(PID.TID 0000.0001) 
(PID.TID 0000.0001) // ======================================================
(PID.TID 0000.0001) //                      MITgcm UV
(PID.TID 0000.0001) //                      =========
(PID.TID 0000.0001) // ======================================================
(PID.TID 0000.0001) // execution environment starting up...
(PID.TID 0000.0001) 
(PID.TID 0000.0001) // MITgcmUV version:  checkpoint66g
(PID.TID 0000.0001) // Build user:        mjmn02
(PID.TID 0000.0001) // Build host:        ln03
(PID.TID 0000.0001) // Build date:        Tue May 17 14:46:49 BST 2022
(PID.TID 0000.0001) 
(PID.TID 0000.0001) // =======================================================
(PID.TID 0000.0001) // Execution Environment parameter file "eedata"
(PID.TID 0000.0001) // =======================================================
(PID.TID 0000.0001) ># Example "eedata" file
(PID.TID 0000.0001) ># Lines beginning "#" are comments
(PID.TID 0000.0001) ># nTx - No. threads per process in X
(PID.TID 0000.0001) ># nTy - No. threads per process in Y
(PID.TID 0000.0001) > &EEPARMS
(PID.TID 0000.0001) > useCubedSphereExchange=.TRUE.,
(PID.TID 0000.0001) > nTx=1,
(PID.TID 0000.0001) > nTy=1,
(PID.TID 0000.0001) > debugMode=.FALSE.,
(PID.TID 0000.0001) > /
(PID.TID 0000.0001) ># Note: Some systems use & as the
(PID.TID 0000.0001) ># namelist terminator. Other systems
(PID.TID 0000.0001) ># use a / character (as shown here).
(PID.TID 0000.0001) 
(PID.TID 0000.0001) // =======================================================
(PID.TID 0000.0001) // Computational Grid Specification ( see files "SIZE.h" )
(PID.TID 0000.0001) //                                  ( and "eedata"       )
(PID.TID 0000.0001) // =======================================================
(PID.TID 0000.0001)      nPx =  192 ; /* No. processes in X */
(PID.TID 0000.0001)      nPy =    1 ; /* No. processes in Y */
(PID.TID 0000.0001)      nSx =    1 ; /* No. tiles in X per process */
(PID.TID 0000.0001)      nSy =    1 ; /* No. tiles in Y per process */
(PID.TID 0000.0001)      sNx =   15 ; /* Tile size in X */
(PID.TID 0000.0001)      sNy =   30 ; /* Tile size in Y */
(PID.TID 0000.0001)      OLx =    4 ; /* Tile overlap distance in X */
(PID.TID 0000.0001)      OLy =    4 ; /* Tile overlap distance in Y */
(PID.TID 0000.0001)      nTx =    1 ; /* No. threads in X per process */
(PID.TID 0000.0001)      nTy =    1 ; /* No. threads in Y per process */
(PID.TID 0000.0001)       Nr =   50 ; /* No. levels in the vertical   */
(PID.TID 0000.0001)       Nx = 2880 ; /* Total domain size in X ( = nPx*nSx*sNx ) */
(PID.TID 0000.0001)       Ny =   30 ; /* Total domain size in Y ( = nPy*nSy*sNy ) */
(PID.TID 0000.0001)   nTiles =    1 ; /* Total no. tiles per process ( = nSx*nSy ) */
(PID.TID 0000.0001)   nProcs =  192 ; /* Total no. processes ( = nPx*nPy ) */
(PID.TID 0000.0001) nThreads =    1 ; /* Total no. threads per process ( = nTx*nTy ) */
(PID.TID 0000.0001) usingMPI =    T ; /* Flag used to control whether MPI is in use */
(PID.TID 0000.0001)                   /*  note: To execute a program with MPI calls */
(PID.TID 0000.0001)                   /*  it must be launched appropriately e.g     */
(PID.TID 0000.0001)                   /*  "mpirun -np 64 ......"                    */
(PID.TID 0000.0001) useCoupler=    F ;/* Flag used to control communications with   */
(PID.TID 0000.0001)                   /*  other model components, through a coupler */
(PID.TID 0000.0001) debugMode =    F ; /* print debug msg. (sequence of S/R calls)  */
(PID.TID 0000.0001) printMapIncludesZeros=    F ; /* print zeros in Std.Output maps */
(PID.TID 0000.0001) maxLengthPrt1D=   65 /* maxLength of 1D array printed to StdOut */
(PID.TID 0000.0001) 
(PID.TID 0000.0001) ======= Starting MPI parallel Run =========
(PID.TID 0000.0001)  My Processor Name (len:  9 ) = nid004308
(PID.TID 0000.0001)  Located at (  0,  0) on processor grid (0:191,0:  0)
(PID.TID 0000.0001)  Origin at  (     1,     1) on global grid (1:  2880,1:    30)
(PID.TID 0000.0001)  North neighbor = processor 0000
(PID.TID 0000.0001)  South neighbor = processor 0000
(PID.TID 0000.0001)   East neighbor = processor 0001
(PID.TID 0000.0001)   West neighbor = processor 0191
(PID.TID 0000.0001) // ======================================================
(PID.TID 0000.0001) // Mapping of tiles to threads
(PID.TID 0000.0001) // ======================================================
(PID.TID 0000.0001) // -o- Thread   1, tiles (   1:   1,   1:   1)
(PID.TID 0000.0001) 
(PID.TID 0000.0001) W2_READPARMS: opening data.exch2
(PID.TID 0000.0001)  OPEN_COPY_DATA_FILE: opening file data.exch2
(PID.TID 0000.0001) // =======================================================
(PID.TID 0000.0001) // Parameter file "data.exch2"
(PID.TID 0000.0001) // =======================================================
(PID.TID 0000.0001) ># EXCH2 Package: Wrapper-2 User Choice
(PID.TID 0000.0001) >#--------------------
(PID.TID 0000.0001) >#  preDefTopol   :: pre-defined Topology selector:
(PID.TID 0000.0001) >#                :: = 0 : topology defined from processing "data.exch2";
(PID.TID 0000.0001) >#                :: = 1 : simple, single facet topology;
(PID.TID 0000.0001) >#                :: = 2 : customized topology (w2_set_myown_facets)
(PID.TID 0000.0001) >#                :: = 3 : 6-facet Cube (3 face-dims: nRed, nGreen, nBlue).
(PID.TID 0000.0001) >#  dimsFacets    :: facet pair of dimensions (n1x,n1y, n2x,n2y ...)
(PID.TID 0000.0001) >#  facetEdgeLink :: Face-Edge connectivity map:
(PID.TID 0000.0001) >#    facetEdgeLink(i,j)=XX.1 : face(j)-edge(i) (i=1,2,3,4 <==> N,S,E,W)
(PID.TID 0000.0001) >#    is connected to Northern edge of face "XX" ; similarly,
(PID.TID 0000.0001) >#    = XX.2 : to Southern.E, XX.3 = Eastern.E, XX.4 = Western.E of face "XX"
(PID.TID 0000.0001) >#  blankList     :: List of "blank" tiles
(PID.TID 0000.0001) >#  W2_mapIO      :: global map IO selector (-1 = old type ; 0 = 1 long line in X
(PID.TID 0000.0001) >#                :: 1 = compact, mostly in Y dir)
(PID.TID 0000.0001) >#  W2_printMsg   :: option for information messages printing
(PID.TID 0000.0001) >#                :: <0 : write to log file ; =0 : minimum print ;
(PID.TID 0000.0001) >#                :: =1 : no duplicated print ; =2 : all processes do print
(PID.TID 0000.0001) >#--------------------
(PID.TID 0000.0001) > &W2_EXCH2_PARM01
(PID.TID 0000.0001) ># W2_printMsg= 0,
(PID.TID 0000.0001) >  W2_mapIO   = 1,
(PID.TID 0000.0001) >#
(PID.TID 0000.0001) >  preDefTopol=0,
(PID.TID 0000.0001) >#-- 5 facets llc_120 topology (drop facet 6 and its connection):
(PID.TID 0000.0001) >  dimsFacets(1:10) = 90, 270, 90, 270, 90, 90, 270, 90, 270, 90,
(PID.TID 0000.0001) >  facetEdgeLink(1:4,1)= 3.4, 0. , 2.4, 5.1,
(PID.TID 0000.0001) >  facetEdgeLink(1:4,2)= 3.2, 0. , 4.2, 1.3,
(PID.TID 0000.0001) >  facetEdgeLink(1:4,3)= 5.4, 2.1, 4.4, 1.1,
(PID.TID 0000.0001) >  facetEdgeLink(1:4,4)= 5.2, 2.3, 0. , 3.3,
(PID.TID 0000.0001) >  facetEdgeLink(1:4,5)= 1.4, 4.1, 0. , 3.1,
(PID.TID 0000.0001) >#-- full 6 facets llc_120 topology (equivalent to default preDefTopol=3):
(PID.TID 0000.0001) ># dimsFacets(1:12) = 120, 360, 120, 360, 120, 120, 360, 120, 360, 120, 120, 120,
(PID.TID 0000.0001) ># facetEdgeLink(1:4,1)= 3.4, 6.1, 2.4, 5.1,
(PID.TID 0000.0001) ># facetEdgeLink(1:4,2)= 3.2, 6.3, 4.2, 1.3,
(PID.TID 0000.0001) ># facetEdgeLink(1:4,3)= 5.4, 2.1, 4.4, 1.1,
(PID.TID 0000.0001) ># facetEdgeLink(1:4,4)= 5.2, 2.3, 6.2, 3.3,
(PID.TID 0000.0001) ># facetEdgeLink(1:4,5)= 1.4, 4.1, 6.4, 3.1,
(PID.TID 0000.0001) ># facetEdgeLink(1:4,6)= 1.2, 4.3, 2.2, 5.3,
(PID.TID 0000.0001) >#
(PID.TID 0000.0001) >#90x30   nprocs = 36
(PID.TID 0000.0001) ># blankList(1:3)=1,10,11,
(PID.TID 0000.0001) >#30x90
(PID.TID 0000.0001) >#
(PID.TID 0000.0001) >#45x30   nprocs = 72
(PID.TID 0000.0001) ># blankList(1:6)=1,2,19,20,21,22
(PID.TID 0000.0001) >#30x45   nprocs = 68
(PID.TID 0000.0001) ># blankList(1:10)=2,3,19,20,21,35,51,60,69,78
(PID.TID 0000.0001) >#45x45   nprocs = 48
(PID.TID 0000.0001) ># blankList(1:4)=2,13,14,23
(PID.TID 0000.0001) >#30x30   nprocs = 96
(PID.TID 0000.0001) >#  blankList(1:21)=1,2,3,5,6,28,29,30,31,32,33,49,50,52,53,72,81,90,99,108,117
(PID.TID 0000.0001) >#30x30   nprocs = 112
(PID.TID 0000.0001) ># blankList(1:5)=2,3,28,29,30
(PID.TID 0000.0001) >#15x30   nprocs = 192
(PID.TID 0000.0001) > blankList(1:42)=1,2,3,4,5,6,9,10,11,12,55,56,57,58,59,60,61,62,63,64,65,66,
(PID.TID 0000.0001) >            97,98,99,100,103,104,105,106,143,144,
(PID.TID 0000.0001) >            161,162,179,180,197,198,215,216,233,234
(PID.TID 0000.0001) >#15x15   nprocs = 360
(PID.TID 0000.0001) ># blankList(1:108)=1,2,3,4,5,6,7,8,9,10,11,12,14,15,16,17,18,21,22,23,24,
(PID.TID 0000.0001) >#  65,71,75,76,90,95,96,101,102,109,110,111,112,113,114,115,116,117,118,119,
(PID.TID 0000.0001) >#  120,121,122,123,124,125,126,127,128,129,130,131,132,
(PID.TID 0000.0001) >#  188,189,190,193,194,195,196,199,
(PID.TID 0000.0001) >#  200,201,202,203,205,206,207,208,209,211,212,213,214,215,216,242,247,253,
(PID.TID 0000.0001) >#  267,268,269,270,287,288,305,306,323,324,341,342,359,360,362,376,377,378,
(PID.TID 0000.0001) >#  380,381,382,395,396,400,412,413,414,430,
(PID.TID 0000.0001) >#note: it seems that 8 of the followig 9 tiles could be added to 15x15 blank
(PID.TID 0000.0001) >#  list to reach 352=22*16 cores : 431 432 440 441 448 449 450 467 468
(PID.TID 0000.0001) > /
(PID.TID 0000.0001) 
(PID.TID 0000.0001) W2_READPARMS: finished reading data.exch2
(PID.TID 0000.0001) W2_useE2ioLayOut=    T ;/* T: use Exch2 glob IO map; F: use model default */
(PID.TID 0000.0001) W2_mapIO        =   1 ; /* select option for Exch2 global-IO map */
(PID.TID 0000.0001) W2_printMsg     =  -1 ; /* select option for printing information */
(PID.TID 0000.0001) ===== Start setting W2 TOPOLOGY:
(PID.TID 0000.0001)  write to log-file: w2_tile_topology.0000.log
(PID.TID 0000.0001) =====       setting W2 TOPOLOGY: Done
(PID.TID 0000.0001) 
(PID.TID 0000.0001)  INI_PARMS: opening model parameter file "data"
(PID.TID 0000.0001)  OPEN_COPY_DATA_FILE: opening file data
(PID.TID 0000.0001) // =======================================================
(PID.TID 0000.0001) // Parameter file "data"
(PID.TID 0000.0001) // =======================================================
(PID.TID 0000.0001) ># ====================
(PID.TID 0000.0001) ># | Model parameters |
(PID.TID 0000.0001) ># ====================
(PID.TID 0000.0001) >#
(PID.TID 0000.0001) ># Continuous equation parameters
(PID.TID 0000.0001) > &PARM01
(PID.TID 0000.0001) > tRef               = 3*23.,3*22.,21.,2*20.,19.,2*18.,17.,2*16.,15.,14.,13.,
(PID.TID 0000.0001) >                      12.,11.,2*9.,8.,7.,2*6.,2*5.,3*4.,3*3.,4*2.,12*1.,
(PID.TID 0000.0001) > sRef               = 50*34.5,
(PID.TID 0000.0001) > no_slip_sides  = .TRUE.,
(PID.TID 0000.0001) > no_slip_bottom = .TRUE.,
(PID.TID 0000.0001) >#
(PID.TID 0000.0001) > viscAr=0.5E-4,
(PID.TID 0000.0001) >#
(PID.TID 0000.0001) > viscAh=1.E0,
(PID.TID 0000.0001) > viscAhGrid=2.E-2,
(PID.TID 0000.0001) ># viscAh=2.0e4,
(PID.TID 0000.0001) >#
(PID.TID 0000.0001) > diffKhT=1.E1,
(PID.TID 0000.0001) > diffKrT=1.E-5,
(PID.TID 0000.0001) > diffKhS=1.E1,
(PID.TID 0000.0001) > diffKrS=1.E-5,
(PID.TID 0000.0001) >#
(PID.TID 0000.0001) >### diffKrBL79surf=0.1E-4,
(PID.TID 0000.0001) >### diffKrBL79deep=1.0E-4,
(PID.TID 0000.0001) > bottomDragQuadratic = 0.001,
(PID.TID 0000.0001) >#when using ggl90
(PID.TID 0000.0001) > ivdc_kappa=10.,
(PID.TID 0000.0001) > implicitDiffusion=.TRUE.,
(PID.TID 0000.0001) > implicitViscosity=.TRUE.,
(PID.TID 0000.0001) > useRealFreshWaterFlux=.TRUE.,
(PID.TID 0000.0001) ># balanceThetaClimRelax=.TRUE.,
(PID.TID 0000.0001) > balanceSaltClimRelax=.TRUE.,
(PID.TID 0000.0001) ># balanceEmPmR=.TRUE.,
(PID.TID 0000.0001) ># balanceQnet=.TRUE.,
(PID.TID 0000.0001) > allowFreezing=.FALSE.,
(PID.TID 0000.0001) >### hFacInf=0.2,
(PID.TID 0000.0001) >### hFacSup=2.0,
(PID.TID 0000.0001) > hFacMin=.2,
(PID.TID 0000.0001) > hFacMinDr=5.,
(PID.TID 0000.0001) > select_rStar=2,
(PID.TID 0000.0001) > nonlinFreeSurf=4,
(PID.TID 0000.0001) > gravity=9.81,
(PID.TID 0000.0001) > rhonil=1029.,
(PID.TID 0000.0001) > rhoConst=1029.,
(PID.TID 0000.0001) > rhoConstFresh=1000.,
(PID.TID 0000.0001) > convertFW2Salt=-1.,
(PID.TID 0000.0001) > eosType='JMD95Z',
(PID.TID 0000.0001) > implicitFreeSurface=.TRUE.,
(PID.TID 0000.0001) > exactConserv=.TRUE.,
(PID.TID 0000.0001) > useSingleCpuIO=.TRUE.,
(PID.TID 0000.0001) > tempAdvScheme=30,
(PID.TID 0000.0001) > saltAdvScheme=30,
(PID.TID 0000.0001) > tempVertAdvScheme=3,
(PID.TID 0000.0001) > saltVertAdvScheme=3,
(PID.TID 0000.0001) > tempImplVertAdv=.TRUE.,
(PID.TID 0000.0001) > saltImplVertAdv=.TRUE.,
(PID.TID 0000.0001) > staggerTimeStep=.TRUE.,
(PID.TID 0000.0001) > vectorInvariantMomentum=.TRUE.,
(PID.TID 0000.0001) >#when using the cd scheme:
(PID.TID 0000.0001) ># useCDscheme=.TRUE.,
(PID.TID 0000.0001) > useJamartWetPoints=.TRUE.,
(PID.TID 0000.0001) > readBinaryPrec=32,
(PID.TID 0000.0001) > writeBinaryPrec=32,
(PID.TID 0000.0001) > debugLevel=1,
(PID.TID 0000.0001) > /
(PID.TID 0000.0001) >
(PID.TID 0000.0001) ># Elliptic solver parameters
(PID.TID 0000.0001) > &PARM02
(PID.TID 0000.0001) > cg2dMaxIters=300,
(PID.TID 0000.0001) >#cg2dTargetResWunit=1.E-12,
(PID.TID 0000.0001) > /
(PID.TID 0000.0001) >
(PID.TID 0000.0001) ># Time stepping parameters
(PID.TID 0000.0001) > &PARM03
(PID.TID 0000.0001) > nIter0=1,
(PID.TID 0000.0001) >#2 lev2 for testing:
(PID.TID 0000.0001) >#nTimeSteps=8,
(PID.TID 0000.0001) >#3month
(PID.TID 0000.0001) >#nTimeSteps=2160,
(PID.TID 0000.0001) >#18month
(PID.TID 0000.0001) > nTimeSteps=13110,
(PID.TID 0000.0001) >#2yr
(PID.TID 0000.0001) >#nTimeSteps=17520,
(PID.TID 0000.0001) >#4-yr from 2014 to 2017, inclusive
(PID.TID 0000.0001) >#nTimeSteps=35051,
(PID.TID 0000.0001) >#20y:
(PID.TID 0000.0001) >#nTimeSteps=175295,
(PID.TID 0000.0001) >#22y:
(PID.TID 0000.0001) >#nTimeSteps=192839,
(PID.TID 0000.0001) >#24y:
(PID.TID 0000.0001) >#nTimeSteps=210359,
(PID.TID 0000.0001) >#26yr
(PID.TID 0000.0001) >#nTimeSteps=227903,
(PID.TID 0000.0001) >#60 years
(PID.TID 0000.0001) >#nTimeSteps=525985,
(PID.TID 0000.0001) >#
(PID.TID 0000.0001) > forcing_In_AB=.FALSE.,
(PID.TID 0000.0001) > momDissip_In_AB=.FALSE.,
(PID.TID 0000.0001) >#when using the cd scheme:
(PID.TID 0000.0001) ># epsAB_CD = 0.25,
(PID.TID 0000.0001) ># tauCD=172800.0,
(PID.TID 0000.0001) > deltaTmom   =3600.,
(PID.TID 0000.0001) > deltaTtracer=3600.,
(PID.TID 0000.0001) > deltaTfreesurf=3600.,
(PID.TID 0000.0001) > deltaTClock =3600.,
(PID.TID 0000.0001) >#when using ab2:
(PID.TID 0000.0001) ># abEps = 0.1,
(PID.TID 0000.0001) >#when using ab3:
(PID.TID 0000.0001) > doAB_onGtGs=.FALSE.,
(PID.TID 0000.0001) > alph_AB=0.5,
(PID.TID 0000.0001) > beta_AB=0.281105,
(PID.TID 0000.0001) >#
(PID.TID 0000.0001) > pChkptFreq  =31536000.0,
(PID.TID 0000.0001) > chkptFreq   =31536000.0,
(PID.TID 0000.0001) ># taveFreq    =31536000.0,
(PID.TID 0000.0001) ># dumpFreq    =31536000.0,
(PID.TID 0000.0001) ># monitorFreq = 7200.0,
(PID.TID 0000.0001) > monitorFreq = 6307200.0,
(PID.TID 0000.0001) > dumpInitAndLast = .TRUE.,
(PID.TID 0000.0001) > adjDumpFreq = 31536000.0,
(PID.TID 0000.0001) >#adjDumpFreq = 604800.0,
(PID.TID 0000.0001) > adjMonitorFreq = 864000.0,
(PID.TID 0000.0001) > pickupStrictlyMatch=.FALSE.,
(PID.TID 0000.0001) > /
(PID.TID 0000.0001) >
(PID.TID 0000.0001) ># Gridding parameters
(PID.TID 0000.0001) > &PARM04
(PID.TID 0000.0001) > usingCurvilinearGrid=.TRUE.,
(PID.TID 0000.0001) > delR =
(PID.TID 0000.0001) >     10.00, 10.00, 10.00, 10.00, 10.00, 10.00, 10.00, 10.01,
(PID.TID 0000.0001) >     10.03, 10.11, 10.32, 10.80, 11.76, 13.42, 16.04, 19.82, 24.85,
(PID.TID 0000.0001) >     31.10, 38.42, 46.50, 55.00, 63.50, 71.58, 78.90, 85.15, 90.18,
(PID.TID 0000.0001) >     93.96, 96.58, 98.25, 99.25,100.01,101.33,104.56,111.33,122.83,
(PID.TID 0000.0001) >     139.09,158.94,180.83,203.55,226.50,249.50,272.50,295.50,318.50,
(PID.TID 0000.0001) >     341.50,364.50,387.50,410.50,433.50,456.50,
(PID.TID 0000.0001) > /
(PID.TID 0000.0001) >
(PID.TID 0000.0001) ># Input datasets
(PID.TID 0000.0001) > &PARM05
(PID.TID 0000.0001) > diffKrFile='total_diffkr_r009bit11.bin',
(PID.TID 0000.0001) > adTapeDir='tapes',
(PID.TID 0000.0001) >#bathyFile      ='bathy_eccollc_90x50.bin',
(PID.TID 0000.0001) > bathyFile      ='bathy_eccollc_90x50_min2pts.bin',
(PID.TID 0000.0001) > hydrogThetaFile='T_OWPv1_M_eccollc_90x50.bin',
(PID.TID 0000.0001) > hydrogSaltFile ='S_OWPv1_M_eccollc_90x50.bin',
(PID.TID 0000.0001) > viscA4Dfile    ='fenty_biharmonic_visc_v11.bin',
(PID.TID 0000.0001) > viscA4Zfile    ='fenty_biharmonic_visc_v11.bin',
(PID.TID 0000.0001) > geothermalFile='geothermalFlux.bin',
(PID.TID 0000.0001) >#
(PID.TID 0000.0001) > /
(PID.TID 0000.0001) 
(PID.TID 0000.0001)  INI_PARMS ; starts to read PARM01
(PID.TID 0000.0001)  INI_PARMS ; read PARM01 : OK
(PID.TID 0000.0001)  INI_PARMS ; starts to read PARM02
(PID.TID 0000.0001)  INI_PARMS ; read PARM02 : OK
(PID.TID 0000.0001)  INI_PARMS ; starts to read PARM03
(PID.TID 0000.0001)  INI_PARMS ; read PARM03 : OK
(PID.TID 0000.0001)  INI_PARMS ; starts to read PARM04
(PID.TID 0000.0001)  INI_PARMS ; read PARM04 : OK
(PID.TID 0000.0001)  INI_PARMS ; starts to read PARM05
(PID.TID 0000.0001)  INI_PARMS ; read PARM05 : OK
(PID.TID 0000.0001)  INI_PARMS: finished reading file "data"
(PID.TID 0000.0001)  PACKAGES_BOOT: opening data.pkg
(PID.TID 0000.0001)  OPEN_COPY_DATA_FILE: opening file data.pkg
(PID.TID 0000.0001) // =======================================================
(PID.TID 0000.0001) // Parameter file "data.pkg"
(PID.TID 0000.0001) // =======================================================
(PID.TID 0000.0001) ># Packages
(PID.TID 0000.0001) > &PACKAGES
(PID.TID 0000.0001) > useEXF   = .TRUE.,
(PID.TID 0000.0001) >#useRBCS  = .TRUE.,
(PID.TID 0000.0001) > useGMRedi= .TRUE.,
(PID.TID 0000.0001) ># useKPP   = .TRUE.,
(PID.TID 0000.0001) > useSBO   = .TRUE.,
(PID.TID 0000.0001) >#useMNC   = .TRUE.,
(PID.TID 0000.0001) > useSeaice= .TRUE.,
(PID.TID 0000.0001) > useGGL90=.TRUE.,
(PID.TID 0000.0001) > useSALT_PlUME=.TRUE.,
(PID.TID 0000.0001) ># useDOWN_SLOPE=.TRUE.,
(PID.TID 0000.0001) > useDiagnostics=.FALSE.,
(PID.TID 0000.0001) > useECCO=.TRUE.,
(PID.TID 0000.0001) > useCTRL=.TRUE.,
(PID.TID 0000.0001) > useProfiles=.TRUE.,
(PID.TID 0000.0001) > useSMOOTH=.TRUE.,
(PID.TID 0000.0001) >#useGrdchk=.TRUE.,
(PID.TID 0000.0001) >#useLayers=.TRUE.,
(PID.TID 0000.0001) >#
(PID.TID 0000.0001) >#usePtracers=.TRUE.,
(PID.TID 0000.0001) >#useBBL=.TRUE.,
(PID.TID 0000.0001) > /
(PID.TID 0000.0001) 
(PID.TID 0000.0001)  PACKAGES_BOOT: finished reading data.pkg
(PID.TID 0000.0001)  PACKAGES_BOOT: On/Off package Summary
 --------  pkgs with a standard "usePKG" On/Off switch in "data.pkg":  --------
 pkg/ggl90                compiled   and   used ( useGGL90                 = T )
 pkg/gmredi               compiled   and   used ( useGMRedi                = T )
 pkg/cal                  compiled   and   used ( useCAL                   = T )
 pkg/exf                  compiled   and   used ( useEXF                   = T )
 pkg/autodiff             compiled   and   used ( useAUTODIFF              = T )
 pkg/grdchk               compiled but not used ( useGrdchk                = F )
 pkg/smooth               compiled   and   used ( useSMOOTH                = T )
 pkg/profiles             compiled   and   used ( usePROFILES              = T )
 pkg/ecco                 compiled   and   used ( useECCO                  = T )
 pkg/ctrl                 compiled   and   used ( useCTRL                  = T )
 pkg/sbo                  compiled   and   used ( useSBO                   = T )
 pkg/seaice               compiled   and   used ( useSEAICE                = T )
 pkg/salt_plume           compiled   and   used ( useSALT_PLUME            = T )
 pkg/diagnostics          compiled but not used ( useDiagnostics           = F )
 -------- pkgs without standard "usePKG" On/Off switch in "data.pkg":  --------
 pkg/generic_advdiff      compiled   and   used ( useGAD                   = T )
 pkg/mom_common           compiled   and   used ( momStepping              = T )
 pkg/mom_vecinv           compiled   and   used ( +vectorInvariantMomentum = T )
 pkg/monitor              compiled   and   used ( monitorFreq > 0.         = T )
 pkg/timeave              compiled but not used ( taveFreq > 0.            = F )
 pkg/debug                compiled but not used ( debugMode                = F )
 pkg/exch2                compiled   and   used
 pkg/rw                   compiled   and   used
 pkg/mdsio                compiled   and   used
 pkg/autodiff             compiled   and   used
 pkg/cost                 compiled   and   used
(PID.TID 0000.0001)  PACKAGES_BOOT: End of package Summary
(PID.TID 0000.0001) 
(PID.TID 0000.0001) CAL_READPARMS: opening data.cal
(PID.TID 0000.0001)  OPEN_COPY_DATA_FILE: opening file data.cal
(PID.TID 0000.0001) // =======================================================
(PID.TID 0000.0001) // Parameter file "data.cal"
(PID.TID 0000.0001) // =======================================================
(PID.TID 0000.0001) >#
(PID.TID 0000.0001) ># *******************
(PID.TID 0000.0001) ># Calendar Parameters
(PID.TID 0000.0001) ># *******************
(PID.TID 0000.0001) > &CAL_NML
(PID.TID 0000.0001) > TheCalendar='gregorian',
(PID.TID 0000.0001) > calendarDumps=.TRUE.,
(PID.TID 0000.0001) ># TheCalendar='model',
(PID.TID 0000.0001) > startDate_1=19920101,
(PID.TID 0000.0001) > startDate_2=120000,
(PID.TID 0000.0001) > /
(PID.TID 0000.0001) 
(PID.TID 0000.0001) CAL_READPARMS: finished reading data.cal
(PID.TID 0000.0001) EXF_READPARMS: opening data.exf
(PID.TID 0000.0001)  OPEN_COPY_DATA_FILE: opening file data.exf
(PID.TID 0000.0001) // =======================================================
(PID.TID 0000.0001) // Parameter file "data.exf"
(PID.TID 0000.0001) // =======================================================
(PID.TID 0000.0001) ># *********************
(PID.TID 0000.0001) ># External Forcing Data
(PID.TID 0000.0001) ># *********************
(PID.TID 0000.0001) >#
(PID.TID 0000.0001) > &EXF_NML_01
(PID.TID 0000.0001) >#
(PID.TID 0000.0001) > useAtmWind        = .FALSE.,
(PID.TID 0000.0001) >#NCEP VALUES:
(PID.TID 0000.0001) ># exf_albedo        = 0.15,
(PID.TID 0000.0001) ># exf_scal_BulkCdn  = 1.015,
(PID.TID 0000.0001) >#
(PID.TID 0000.0001) >#TO COMBINE WITH ALLOW_ZENITH_ANGLE:
(PID.TID 0000.0001) > exf_albedo        = 0.1,
(PID.TID 0000.0001) > useExfZenIncoming = .TRUE.,
(PID.TID 0000.0001) > select_ZenAlbedo  = 1,
(PID.TID 0000.0001) >#
(PID.TID 0000.0001) > ocean_emissivity = 0.97,
(PID.TID 0000.0001) > ice_emissivity = 0.95,
(PID.TID 0000.0001) > snow_emissivity = 0.95,
(PID.TID 0000.0001) >#
(PID.TID 0000.0001) > exf_iprec         = 32,
(PID.TID 0000.0001) > exf_yftype        = 'RL',
(PID.TID 0000.0001) > useExfYearlyFields= .TRUE.,
(PID.TID 0000.0001) > useExfCheckRange  = .FALSE.,
(PID.TID 0000.0001) > readStressOnAgrid = .TRUE.,
(PID.TID 0000.0001) > rotateStressOnAgrid = .TRUE.,
(PID.TID 0000.0001) > /
(PID.TID 0000.0001) >#
(PID.TID 0000.0001) > &EXF_NML_02
(PID.TID 0000.0001) > ustressfile       = 'eccov4r4_ustr',
(PID.TID 0000.0001) > vstressfile       = 'eccov4r4_vstr',
(PID.TID 0000.0001) > atempfile         = 'eccov4r4_tmp2m_degC',
(PID.TID 0000.0001) > aqhfile           = 'eccov4r4_spfh2m',
(PID.TID 0000.0001) > precipfile        = 'eccov4r4_rain',
(PID.TID 0000.0001) ># uwindfile         = 'EIG_u10m',
(PID.TID 0000.0001) ># vwindfile         = 'EIG_v10m',
(PID.TID 0000.0001) > wspeedfile        = 'eccov4r4_wspeed',
(PID.TID 0000.0001) > swdownfile        = 'eccov4r4_dsw',
(PID.TID 0000.0001) > lwdownfile        = 'eccov4r4_dlw',
(PID.TID 0000.0001) > apressurefile     = 'eccov4r4_pres',
(PID.TID 0000.0001) >#
(PID.TID 0000.0001) > ustressstartdate1   = 19920101,
(PID.TID 0000.0001) > ustressstartdate2   = 030000,
(PID.TID 0000.0001) > ustressperiod       = 21600.0,
(PID.TID 0000.0001) >#
(PID.TID 0000.0001) > vstressstartdate1   = 19920101,
(PID.TID 0000.0001) > vstressstartdate2   = 030000,
(PID.TID 0000.0001) > vstressperiod       = 21600.0,
(PID.TID 0000.0001) >#
(PID.TID 0000.0001) > atempstartdate1   = 19920101,
(PID.TID 0000.0001) > atempstartdate2   = 030000,
(PID.TID 0000.0001) > atempperiod       = 21600.0,
(PID.TID 0000.0001) >#
(PID.TID 0000.0001) > aqhstartdate1     = 19920101,
(PID.TID 0000.0001) > aqhstartdate2     = 030000,
(PID.TID 0000.0001) > aqhperiod         = 21600.0,
(PID.TID 0000.0001) >#
(PID.TID 0000.0001) > precipstartdate1  = 19920101,
(PID.TID 0000.0001) > precipstartdate2  = 030000,
(PID.TID 0000.0001) > precipperiod      = 21600.0,
(PID.TID 0000.0001) >#
(PID.TID 0000.0001) > runofffile        = 'runoff-2d-Fekete-1deg-mon-V4-SMOOTH.bin',
(PID.TID 0000.0001) > runoffperiod      = -12,
(PID.TID 0000.0001) >#
(PID.TID 0000.0001) > uwindstartdate1   = 19920101,
(PID.TID 0000.0001) > uwindstartdate2   = 030000,
(PID.TID 0000.0001) > uwindperiod       = 21600.0,
(PID.TID 0000.0001) >#
(PID.TID 0000.0001) > vwindstartdate1   = 19920101,
(PID.TID 0000.0001) > vwindstartdate2   = 030000,
(PID.TID 0000.0001) > vwindperiod       = 21600.0,
(PID.TID 0000.0001) >#
(PID.TID 0000.0001) > wspeedstartdate1   = 19920101,
(PID.TID 0000.0001) > wspeedstartdate2   = 030000,
(PID.TID 0000.0001) > wspeedperiod       = 21600.0,
(PID.TID 0000.0001) >#
(PID.TID 0000.0001) > swdownstartdate1  = 19920101,
(PID.TID 0000.0001) > swdownstartdate2  = 030000,
(PID.TID 0000.0001) > swdownperiod      = 21600.0,
(PID.TID 0000.0001) >#
(PID.TID 0000.0001) > lwdownstartdate1  = 19920101,
(PID.TID 0000.0001) > lwdownstartdate2  = 030000,
(PID.TID 0000.0001) > lwdownperiod      = 21600.0,
(PID.TID 0000.0001) >#
(PID.TID 0000.0001) > apressurestartdate1   = 19920101,
(PID.TID 0000.0001) > apressurestartdate2   = 030000,
(PID.TID 0000.0001) > apressureperiod       = 21600.0,
(PID.TID 0000.0001) >#
(PID.TID 0000.0001) > climsstperiod     = -12.,
(PID.TID 0000.0001) >#climsssfile       = 'SSS_WPv1_M_eccollc_90x50.bin',
(PID.TID 0000.0001) > climsssperiod     = -12.,
(PID.TID 0000.0001) >#climsssTauRelax   = 15768000.,
(PID.TID 0000.0001) > /
(PID.TID 0000.0001) >#
(PID.TID 0000.0001) > &EXF_NML_03
(PID.TID 0000.0001) >#NOT FOR EIG exf_offset_atemp  = 273.3971,
(PID.TID 0000.0001) > exf_offset_atemp  = 273.15,
(PID.TID 0000.0001) >#NOT FOR NEW RUNOFF FIELD exf_inscal_runoff = 3.1710e-08,
(PID.TID 0000.0001) > exf_inscal_swdown = -1.0,
(PID.TID 0000.0001) > exf_inscal_lwdown = -1.0,
(PID.TID 0000.0001) > exf_inscal_ustress = -1.0,
(PID.TID 0000.0001) > exf_inscal_vstress = -1.0,
(PID.TID 0000.0001) ># to compensate for sea level rise for nlfs/realFWF
(PID.TID 0000.0001) >#precip_exfremo_intercept = 1.073E-9,
(PID.TID 0000.0001) >#precip_exfremo_slope = -3.340E-18,
(PID.TID 0000.0001) > /
(PID.TID 0000.0001) >#
(PID.TID 0000.0001) > &EXF_NML_04
(PID.TID 0000.0001) > runoff_interpMethod = 0,
(PID.TID 0000.0001) > climsss_interpMethod = 0,
(PID.TID 0000.0001) > ustress_interpMethod = 0,
(PID.TID 0000.0001) > vstress_interpMethod = 0,
(PID.TID 0000.0001) > atemp_interpMethod = 0,
(PID.TID 0000.0001) > aqh_interpMethod = 0,
(PID.TID 0000.0001) > precip_interpMethod = 0,
(PID.TID 0000.0001) > wspeed_interpMethod = 0,
(PID.TID 0000.0001) > swdown_interpMethod = 0,
(PID.TID 0000.0001) > lwdown_interpMethod = 0,
(PID.TID 0000.0001) > apressure_interpMethod = 0,
(PID.TID 0000.0001) >#
(PID.TID 0000.0001) > /
(PID.TID 0000.0001) 
(PID.TID 0000.0001) EXF_READPARMS: reading EXF_NML_01
(PID.TID 0000.0001) EXF_READPARMS: reading EXF_NML_02
(PID.TID 0000.0001) EXF_READPARMS: reading EXF_NML_03
(PID.TID 0000.0001) EXF_READPARMS: reading EXF_NML_04
(PID.TID 0000.0001) EXF_READPARMS: finished reading data.exf
(PID.TID 0000.0001)  GGL90_READPARMS: opening data.ggl90
(PID.TID 0000.0001)  OPEN_COPY_DATA_FILE: opening file data.ggl90
(PID.TID 0000.0001) // =======================================================
(PID.TID 0000.0001) // Parameter file "data.ggl90"
(PID.TID 0000.0001) // =======================================================
(PID.TID 0000.0001) ># =====================================================================
(PID.TID 0000.0001) ># | Parameters for Gaspar et al. (1990)'s TKE vertical mixing scheme  |
(PID.TID 0000.0001) ># =====================================================================
(PID.TID 0000.0001) > &GGL90_PARM01
(PID.TID 0000.0001) ># GGL90taveFreq = 345600000.,
(PID.TID 0000.0001) ># GGL90dumpFreq = 86400.,
(PID.TID 0000.0001) ># GGL90writeState=.FALSE.,
(PID.TID 0000.0001) ># GGL90diffTKEh=3.e3,
(PID.TID 0000.0001) > GGL90alpha=30.,
(PID.TID 0000.0001) ># GGL90TKEFile = 'TKE_init.bin',
(PID.TID 0000.0001) > GGL90TKEmin  = 1.e-7,
(PID.TID 0000.0001) > GGL90TKEbottom = 1.e-6,
(PID.TID 0000.0001) > mxlMaxFlag =2,
(PID.TID 0000.0001) > mxlSurfFlag=.TRUE.,
(PID.TID 0000.0001) > /
(PID.TID 0000.0001) 
(PID.TID 0000.0001)  GGL90_READPARMS: finished reading data.ggl90
(PID.TID 0000.0001) // =======================================================
(PID.TID 0000.0001) // GGL90 configuration
(PID.TID 0000.0001) // =======================================================
(PID.TID 0000.0001) GGL90dumpFreq =   /* GGL90 state write out interval ( s ). */
(PID.TID 0000.0001)                 0.000000000000000E+00
(PID.TID 0000.0001)     ;
(PID.TID 0000.0001) GGL90taveFreq =   /* GGL90 averaging interval ( s ). */
(PID.TID 0000.0001)                 0.000000000000000E+00
(PID.TID 0000.0001)     ;
(PID.TID 0000.0001) GGL90mixingMAPS =   /* GGL90 IO flag. */
(PID.TID 0000.0001)                   F
(PID.TID 0000.0001)     ;
(PID.TID 0000.0001) GGL90writeState =   /* GGL90 IO flag. */
(PID.TID 0000.0001)                   F
(PID.TID 0000.0001)     ;
(PID.TID 0000.0001) GGL90ck =   /* GGL90 viscosity parameter. */
(PID.TID 0000.0001)                 1.000000000000000E-01
(PID.TID 0000.0001)     ;
(PID.TID 0000.0001) GGL90ceps =   /* GGL90 dissipation parameter. */
(PID.TID 0000.0001)                 7.000000000000000E-01
(PID.TID 0000.0001)     ;
(PID.TID 0000.0001) GGL90alpha =   /* GGL90 TKE diffusivity parameter. */
(PID.TID 0000.0001)                 3.000000000000000E+01
(PID.TID 0000.0001)     ;
(PID.TID 0000.0001) GGL90m2 =   /* GGL90 wind stress to vertical stress ratio. */
(PID.TID 0000.0001)                 3.750000000000000E+00
(PID.TID 0000.0001)     ;
(PID.TID 0000.0001) GGL90TKEmin =   /* GGL90 minimum kinetic energy ( m^2/s^2 ). */
(PID.TID 0000.0001)                 1.000000000000000E-07
(PID.TID 0000.0001)     ;
(PID.TID 0000.0001) GGL90TKEsurfMin =   /* GGL90 minimum surface kinetic energy ( m^2/s^2 ). */
(PID.TID 0000.0001)                 1.000000000000000E-04
(PID.TID 0000.0001)     ;
(PID.TID 0000.0001) GGL90TKEbottom =   /* GGL90 bottom kinetic energy ( m^2/s^2 ). */
(PID.TID 0000.0001)                 1.000000000000000E-06
(PID.TID 0000.0001)     ;
(PID.TID 0000.0001) GGL90viscMax =   /* GGL90 upper limit for viscosity ( m^2/s ). */
(PID.TID 0000.0001)                 1.000000000000000E+02
(PID.TID 0000.0001)     ;
(PID.TID 0000.0001) GGL90diffMax =   /* GGL90 upper limit for diffusivity ( m^2/s ). */
(PID.TID 0000.0001)                 1.000000000000000E+02
(PID.TID 0000.0001)     ;
(PID.TID 0000.0001) GGL90diffTKEh =   /* GGL90 horizontal diffusivity for TKE ( m^2/s ). */
(PID.TID 0000.0001)                 0.000000000000000E+00
(PID.TID 0000.0001)     ;
(PID.TID 0000.0001) GGL90mixingLengthMin =   /* GGL90 minimum mixing length ( m ). */
(PID.TID 0000.0001)                 1.000000000000000E-08
(PID.TID 0000.0001)     ;
(PID.TID 0000.0001) mxlMaxFlag =   /* Flag for limiting mixing-length method */
(PID.TID 0000.0001)                       2
(PID.TID 0000.0001)     ;
(PID.TID 0000.0001) mxlSurfFlag =   /* GGL90 flag for near surface mixing. */
(PID.TID 0000.0001)                   T
(PID.TID 0000.0001)     ;
(PID.TID 0000.0001) calcMeanVertShear = /* calc Mean of Vert.Shear (vs shear of Mean flow) */
(PID.TID 0000.0001)                   F
(PID.TID 0000.0001)     ;
(PID.TID 0000.0001) GGL90: GGL90TKEFile =
(PID.TID 0000.0001) GGL90writeState =   /* GGL90 Boundary condition flag. */
(PID.TID 0000.0001)                   T
(PID.TID 0000.0001)     ;
(PID.TID 0000.0001) // =======================================================
(PID.TID 0000.0001) // End of GGL90 config. summary
(PID.TID 0000.0001) // =======================================================
(PID.TID 0000.0001) 
(PID.TID 0000.0001)  GM_READPARMS: opening data.gmredi
(PID.TID 0000.0001)  OPEN_COPY_DATA_FILE: opening file data.gmredi
(PID.TID 0000.0001) // =======================================================
(PID.TID 0000.0001) // Parameter file "data.gmredi"
(PID.TID 0000.0001) // =======================================================
(PID.TID 0000.0001) ># GM+Redi package parameters:
(PID.TID 0000.0001) >#     GM_Small_Number  :: epsilon used in computing the slope
(PID.TID 0000.0001) >#     GM_slopeSqCutoff :: slope^2 cut-off value
(PID.TID 0000.0001) >
(PID.TID 0000.0001) >#-from MOM :
(PID.TID 0000.0001) ># GM_background_K: 	G & Mc.W  diffusion coefficient
(PID.TID 0000.0001) ># GM_maxSlope    :	max slope of isopycnals
(PID.TID 0000.0001) ># GM_Scrit       :	transition for scaling diffusion coefficient
(PID.TID 0000.0001) ># GM_Sd          :	half width scaling for diffusion coefficient
(PID.TID 0000.0001) ># GM_taper_scheme:	slope clipping or one of the tapering schemes
(PID.TID 0000.0001) ># GM_Kmin_horiz  :	horizontal diffusion minimum value
(PID.TID 0000.0001) >
(PID.TID 0000.0001) >#-Option parameters (needs to "define" options in GMREDI_OPTIONS.h")
(PID.TID 0000.0001) ># GM_isopycK     :	isopycnal diffusion coefficient (default=GM_background_K)
(PID.TID 0000.0001) ># GM_AdvForm     :	turn on GM Advective form       (default=Skew flux form)
(PID.TID 0000.0001) >
(PID.TID 0000.0001) > &GM_PARM01
(PID.TID 0000.0001) >  GM_Small_Number  = 1.D-20,
(PID.TID 0000.0001) >  GM_slopeSqCutoff = 1.D+08,
(PID.TID 0000.0001) >  GM_AdvForm         = .TRUE.,
(PID.TID 0000.0001) >  GM_isopycK         = 1.D+3,
(PID.TID 0000.0001) >  GM_background_K    = 1.D+3,
(PID.TID 0000.0001) >  GM_maxSlope        = 4.D-3,
(PID.TID 0000.0001) >  GM_taper_scheme    = 'stableGmAdjTap',
(PID.TID 0000.0001) >  GM_Kmin_horiz      = 100.,
(PID.TID 0000.0001) >  GM_Scrit           = 4.D-3,
(PID.TID 0000.0001) >  GM_Sd              = 1.D-3,
(PID.TID 0000.0001) >  GM_background_K3dFile='total_kapgm_r009bit11.bin'
(PID.TID 0000.0001) >  GM_isopycK3dFile='total_kapredi_r009bit11.bin'
(PID.TID 0000.0001) >
(PID.TID 0000.0001) >#
(PID.TID 0000.0001) >###  GM_Visbeck_alpha   = 1.5D-2,
(PID.TID 0000.0001) >###  GM_Visbeck_alpha   = 0.D0,
(PID.TID 0000.0001) >###  GM_Visbeck_length  = 2.D+5,
(PID.TID 0000.0001) >###  GM_Visbeck_depth   = 1.D+3,
(PID.TID 0000.0001) >###  GM_Visbeck_maxval_K= 2.5D+3,
(PID.TID 0000.0001) > /
(PID.TID 0000.0001) >
(PID.TID 0000.0001) >
(PID.TID 0000.0001) 
(PID.TID 0000.0001)  GM_READPARMS: finished reading data.gmredi
(PID.TID 0000.0001) 
(PID.TID 0000.0001)  SEAICE_READPARMS: opening data.seaice
(PID.TID 0000.0001)  OPEN_COPY_DATA_FILE: opening file data.seaice
(PID.TID 0000.0001) // =======================================================
(PID.TID 0000.0001) // Parameter file "data.seaice"
(PID.TID 0000.0001) // =======================================================
(PID.TID 0000.0001) ># SEAICE parameters
(PID.TID 0000.0001) > &SEAICE_PARM01
(PID.TID 0000.0001) >
(PID.TID 0000.0001) >      SEAICEpresH0=2.,
(PID.TID 0000.0001) >      SEAICEpresPow0=1,
(PID.TID 0000.0001) >      SEAICEpresPow1=1,
(PID.TID 0000.0001) >
(PID.TID 0000.0001) >      SEAICE_strength = 2.25e4,
(PID.TID 0000.0001) >      SEAICE_area_max = 0.97,
(PID.TID 0000.0001) >
(PID.TID 0000.0001) >      SEAICE_no_slip     = .TRUE.,
(PID.TID 0000.0001) >
(PID.TID 0000.0001) >      SEAICE_drag=0.001,
(PID.TID 0000.0001) >      OCEAN_drag=0.001,
(PID.TID 0000.0001) >
(PID.TID 0000.0001) >#####
(PID.TID 0000.0001) >      SEAICEuseTILT=.FALSE.,
(PID.TID 0000.0001) >      SEAICE_multDim=1,
(PID.TID 0000.0001) >      SEAICErestoreUnderIce=.TRUE.,
(PID.TID 0000.0001) >
(PID.TID 0000.0001) >      SEAICE_salt0=4.,
(PID.TID 0000.0001) >
(PID.TID 0000.0001) >      LSR_ERROR          = 2.e-4,
(PID.TID 0000.0001) >      SEAICEuseDYNAMICS  = .TRUE.,
(PID.TID 0000.0001) >      MIN_ATEMP          = -40.,
(PID.TID 0000.0001) >      MIN_TICE           = -40.,
(PID.TID 0000.0001) >      SEAICEadvScheme    = 33,
(PID.TID 0000.0001) >      SEAICEuseFluxForm = .TRUE.,
(PID.TID 0000.0001) >      SEAICEadvSnow      = .TRUE.,
(PID.TID 0000.0001) >      SEAICEdiffKhHeff   = 400.,
(PID.TID 0000.0001) >      SEAICEdiffKhArea   = 400.,
(PID.TID 0000.0001) >      SEAICEdiffKhSnow   = 400.,
(PID.TID 0000.0001) >      SEAICEuseFlooding  = .TRUE.,
(PID.TID 0000.0001) >      SEAICE_mcPheePiston= 3.858024691358025E-05,
(PID.TID 0000.0001) >      SEAICE_frazilFrac  = 1.,
(PID.TID 0000.0001) >      SEAICE_mcPheeTaper = 0.,
(PID.TID 0000.0001) >      SEAICE_areaLossFormula=2,
(PID.TID 0000.0001) >      SEAICEheatConsFix  = .TRUE.,
(PID.TID 0000.0001) >      SEAICE_tempFrz0    = -1.96,
(PID.TID 0000.0001) >      SEAICE_dTempFrz_dS = 0.,
(PID.TID 0000.0001) >      SEAICEuseMetricTerms = .TRUE.,
(PID.TID 0000.0001) >      SEAICE_clipVelocities = .TRUE.,
(PID.TID 0000.0001) >
(PID.TID 0000.0001) >#take 33% out of (1-albedo)
(PID.TID 0000.0001) >      SEAICE_dryIceAlb   = 0.84,
(PID.TID 0000.0001) >      SEAICE_wetIceAlb   = 0.78,
(PID.TID 0000.0001) >      SEAICE_drySnowAlb  = 0.90,
(PID.TID 0000.0001) >      SEAICE_wetSnowAlb  = 0.8 ,
(PID.TID 0000.0001) >#default albedos
(PID.TID 0000.0001) >      SEAICE_dryIceAlb_south   = 0.75
(PID.TID 0000.0001) >      SEAICE_wetIceAlb_south   = 0.66
(PID.TID 0000.0001) >      SEAICE_drySnowAlb_south  = 0.84
(PID.TID 0000.0001) >      SEAICE_wetSnowAlb_south  = 0.7
(PID.TID 0000.0001) > /
(PID.TID 0000.0001) >#
(PID.TID 0000.0001) > &SEAICE_PARM02
(PID.TID 0000.0001) > /
(PID.TID 0000.0001) >
(PID.TID 0000.0001) 
(PID.TID 0000.0001)  SEAICE_READPARMS: finished reading data.seaice
(PID.TID 0000.0001) SALT_PLUME_READPARMS: opening data.salt_plume
(PID.TID 0000.0001)  OPEN_COPY_DATA_FILE: opening file data.salt_plume
(PID.TID 0000.0001) // =======================================================
(PID.TID 0000.0001) // Parameter file "data.salt_plume"
(PID.TID 0000.0001) // =======================================================
(PID.TID 0000.0001) > &SALT_PLUME_PARM01
(PID.TID 0000.0001) ># SaltPlumeCriterion = 0.4D0,
(PID.TID 0000.0001) > SPsalFRAC= 0.5D0,
(PID.TID 0000.0001) >#SPsalFRAC= 0.25D0,
(PID.TID 0000.0001) >#SPsalFRAC= 0.0D0,
(PID.TID 0000.0001) > /
(PID.TID 0000.0001) 
(PID.TID 0000.0001) SALT_PLUME_READPARMS: finished reading data.salt_plume
(PID.TID 0000.0001) AUTODIFF_READPARMS: opening data.autodiff
(PID.TID 0000.0001)  OPEN_COPY_DATA_FILE: opening file data.autodiff
(PID.TID 0000.0001) // =======================================================
(PID.TID 0000.0001) // Parameter file "data.autodiff"
(PID.TID 0000.0001) // =======================================================
(PID.TID 0000.0001) ># =========================
(PID.TID 0000.0001) ># pkg AUTODIFF parameters :
(PID.TID 0000.0001) ># =========================
(PID.TID 0000.0001) >#  inAdExact :: get an exact adjoint (no approximation) (def=.True.)
(PID.TID 0000.0001) >#
(PID.TID 0000.0001) > &AUTODIFF_PARM01
(PID.TID 0000.0001) ># inAdExact = .FALSE.,
(PID.TID 0000.0001) > useSEAICEinAdMode = .FALSE.,
(PID.TID 0000.0001) ># useKPPinAdMode = .FALSE.,
(PID.TID 0000.0001) ># useGMRediInAdMode = .FALSE.,
(PID.TID 0000.0001) > useGGL90inAdMode = .FALSE.,
(PID.TID 0000.0001) > useSALT_PLUMEinAdMode = .FALSE.,
(PID.TID 0000.0001) > /
(PID.TID 0000.0001) 
(PID.TID 0000.0001) AUTODIFF_READPARMS: finished reading data.autodiff
(PID.TID 0000.0001) // ===================================
(PID.TID 0000.0001) // AUTODIFF parameters :
(PID.TID 0000.0001) // ===================================
(PID.TID 0000.0001) inAdExact = /* get an exact adjoint (no approximation) */
(PID.TID 0000.0001)                   T
(PID.TID 0000.0001)     ;
(PID.TID 0000.0001) useKPPinAdMode = /* use KPP in adjoint mode */
(PID.TID 0000.0001)                   F
(PID.TID 0000.0001)     ;
(PID.TID 0000.0001) useGMRediInAdMode = /* use GMRedi in adjoint mode */
(PID.TID 0000.0001)                   T
(PID.TID 0000.0001)     ;
(PID.TID 0000.0001) useSEAICEinAdMode = /* use SEAICE in adjoint mode */
(PID.TID 0000.0001)                   F
(PID.TID 0000.0001)     ;
(PID.TID 0000.0001) useGGL90inAdMode = /* use GGL90 in adjoint mode */
(PID.TID 0000.0001)                   F
(PID.TID 0000.0001)     ;
(PID.TID 0000.0001) useSALT_PLUMEinAdMode = /* use SALT_PLUME in adjoint mode */
(PID.TID 0000.0001)                   F
(PID.TID 0000.0001)     ;
(PID.TID 0000.0001) SEAICEuseDYNAMICSswitchInAd = /* switch On/Off SEAICE Dyn in AD mode */
(PID.TID 0000.0001)                   F
(PID.TID 0000.0001)     ;
(PID.TID 0000.0001) SEAICEuseFREEDRIFTswitchInAd= /* switch On/Off Free-Drift in AD mode */
(PID.TID 0000.0001)                   F
(PID.TID 0000.0001)     ;
(PID.TID 0000.0001) SEAICEapproxLevInAd = /* -1:SEAICE_FAKE, >0:other adjoint approximation */
(PID.TID 0000.0001)                       0
(PID.TID 0000.0001)     ;
(PID.TID 0000.0001) dumpAdVarExch = /* control adexch before dumpinp */
(PID.TID 0000.0001)                       2
(PID.TID 0000.0001)     ;
(PID.TID 0000.0001) mon_AdVarExch = /* control adexch before monitor */
(PID.TID 0000.0001)                       2
(PID.TID 0000.0001)     ;
(PID.TID 0000.0001) viscFacInAd = /* viscosity factor for adjoint */
(PID.TID 0000.0001)                 1.000000000000000E+00
(PID.TID 0000.0001)     ;
(PID.TID 0000.0001) 
(PID.TID 0000.0001) OPTIM_READPARMS: opening data.optim
(PID.TID 0000.0001)  OPEN_COPY_DATA_FILE: opening file data.optim
(PID.TID 0000.0001) // =======================================================
(PID.TID 0000.0001) // Parameter file "data.optim"
(PID.TID 0000.0001) // =======================================================
(PID.TID 0000.0001) > &OPTIM
(PID.TID 0000.0001) > optimcycle=129,
(PID.TID 0000.0001) > /
(PID.TID 0000.0001) 
(PID.TID 0000.0001) OPTIM_READPARMS: finished reading data.optim
(PID.TID 0000.0001) CTRL_READPARMS: opening data.ctrl
(PID.TID 0000.0001)  OPEN_COPY_DATA_FILE: opening file data.ctrl
(PID.TID 0000.0001) // =======================================================
(PID.TID 0000.0001) // Parameter file "data.ctrl"
(PID.TID 0000.0001) // =======================================================
(PID.TID 0000.0001) ># *********************
(PID.TID 0000.0001) ># ECCO controlvariables
(PID.TID 0000.0001) ># *********************
(PID.TID 0000.0001) > &ctrl_nml
(PID.TID 0000.0001) >#
(PID.TID 0000.0001) > doSinglePrecTapelev=.TRUE.,
(PID.TID 0000.0001) > ctrlSmoothCorrel2D=.TRUE.,
(PID.TID 0000.0001) > ctrlSmoothCorrel3D=.TRUE.,
(PID.TID 0000.0001) >  ctrlUseGen=.TRUE.,
(PID.TID 0000.0001) >#to start from given xx*00.data files
(PID.TID 0000.0001) >  doinitxx = .FALSE.,
(PID.TID 0000.0001) >  doMainUnpack = .FALSE.,
(PID.TID 0000.0001) >#to start from given ecco_ctrl... files
(PID.TID 0000.0001) ># doinitxx = .FALSE.,
(PID.TID 0000.0001) >#
(PID.TID 0000.0001) >#doPackDiag = .TRUE.,
(PID.TID 0000.0001) > forcingPrecond=1.,
(PID.TID 0000.0001) >/
(PID.TID 0000.0001) >
(PID.TID 0000.0001) >#
(PID.TID 0000.0001) ># *********************
(PID.TID 0000.0001) ># names for ctrl_pack/unpack
(PID.TID 0000.0001) ># *********************
(PID.TID 0000.0001) > &ctrl_packnames
(PID.TID 0000.0001) > /
(PID.TID 0000.0001) >#
(PID.TID 0000.0001) ># *********************
(PID.TID 0000.0001) ># names for CTRL_GENARR, CTRL_GENTIM
(PID.TID 0000.0001) ># *********************
(PID.TID 0000.0001) > &CTRL_NML_GENARR
(PID.TID 0000.0001) >#
(PID.TID 0000.0001) > xx_genarr2d_weight(1) = 'SSH_weights_nonseasonal_rms_areascaled.bin',
(PID.TID 0000.0001) > xx_genarr2d_file(1)='xx_etan',
(PID.TID 0000.0001) > xx_genarr2d_bounds(1:5,1)=-9.0,-8.9,8.9,9.0,0.,
(PID.TID 0000.0001) > xx_genarr2d_preproc(1,1)='WC01',
(PID.TID 0000.0001) > xx_genarr2d_preproc_i(1,1)=1,
(PID.TID 0000.0001) > mult_genarr2d(1) = 1.,
(PID.TID 0000.0001) >#
(PID.TID 0000.0001) > xx_genarr3d_weight(1) = 'Theta_weights_nonseasonal_rmsv2_areascaled.bin',
(PID.TID 0000.0001) > xx_genarr3d_file(1)='xx_theta',
(PID.TID 0000.0001) > xx_genarr3d_bounds(1:5,1)=-2.0,-1.9,39.,40.,0.,
(PID.TID 0000.0001) > xx_genarr3d_preproc(1,1)='WC01',
(PID.TID 0000.0001) > xx_genarr3d_preproc_i(1,1)=1,
(PID.TID 0000.0001) > mult_genarr3d(1) = 1.,
(PID.TID 0000.0001) >#
(PID.TID 0000.0001) > xx_genarr3d_weight(2) = 'Salt_weights_nonseasonal_rmsv2_areascaled.bin',
(PID.TID 0000.0001) > xx_genarr3d_file(2)='xx_salt',
(PID.TID 0000.0001) > xx_genarr3d_bounds(1:5,2)=20.,20.5,40.5,41.,0.,
(PID.TID 0000.0001) > xx_genarr3d_preproc(1,2)='WC01',
(PID.TID 0000.0001) > xx_genarr3d_preproc_i(1,2)=1,
(PID.TID 0000.0001) > mult_genarr3d(2) = 1.,
(PID.TID 0000.0001) >#
(PID.TID 0000.0001) > xx_genarr3d_weight(3) = 'r2.wkapgmFldv2.data',
(PID.TID 0000.0001) > xx_genarr3d_file(3)='xx_kapgm',
(PID.TID 0000.0001) > xx_genarr3d_bounds(1:5,3)=1.E2,2.E2,0.9E4,1.E4,0.,
(PID.TID 0000.0001) > xx_genarr3d_preproc(1,3)='WC01',
(PID.TID 0000.0001) > xx_genarr3d_preproc_i(1,3)=1,
(PID.TID 0000.0001) > mult_genarr3d(3) = 1.,
(PID.TID 0000.0001) >#
(PID.TID 0000.0001) > xx_genarr3d_weight(4) = 'r2.wkaprediFldv2.data',
(PID.TID 0000.0001) > xx_genarr3d_file(4)='xx_kapredi',
(PID.TID 0000.0001) > xx_genarr3d_bounds(1:5,4)=1.E2,2.E2,0.9E4,1.E4,0.,
(PID.TID 0000.0001) > xx_genarr3d_preproc(1,4)='WC01',
(PID.TID 0000.0001) > xx_genarr3d_preproc_i(1,4)=1,
(PID.TID 0000.0001) > mult_genarr3d(4) = 1.,
(PID.TID 0000.0001) >#
(PID.TID 0000.0001) > xx_genarr3d_weight(5) = 'r2.wdiffkrFldv2.data',
(PID.TID 0000.0001) > xx_genarr3d_file(5)='xx_diffkr',
(PID.TID 0000.0001) > xx_genarr3d_bounds(1:5,5)=1.E-6,2.E-6,4.E-4,5.E-4,0.,
(PID.TID 0000.0001) > xx_genarr3d_preproc(1,5)='WC01',
(PID.TID 0000.0001) > xx_genarr3d_preproc_i(1,5)=1,
(PID.TID 0000.0001) > mult_genarr3d(5) = 1.,
(PID.TID 0000.0001) >#
(PID.TID 0000.0001) > xx_genarr3d_weight(6) = 'Uvel_weights_nonseasonal_rmsv2_areascaled.bin',
(PID.TID 0000.0001) > xx_genarr3d_file(6)='xx_uvel',
(PID.TID 0000.0001) > xx_genarr3d_bounds(1:5,6)=-3.,-2.9, 2.9,3.,0.,
(PID.TID 0000.0001) > xx_genarr3d_preproc(1,6)='WC01',
(PID.TID 0000.0001) > xx_genarr3d_preproc_i(1,6)=1,
(PID.TID 0000.0001) > mult_genarr3d(6) = 1.,
(PID.TID 0000.0001) >#
(PID.TID 0000.0001) > xx_genarr3d_weight(7) = 'Vvel_weights_nonseasonal_rmsv2_areascaled.bin',
(PID.TID 0000.0001) > xx_genarr3d_file(7)='xx_vvel',
(PID.TID 0000.0001) > xx_genarr3d_bounds(1:5,7)=-3.,-2.9, 2.9,3.,0.,
(PID.TID 0000.0001) > xx_genarr3d_preproc(1,7)='WC01',
(PID.TID 0000.0001) > xx_genarr3d_preproc_i(1,7)=1,
(PID.TID 0000.0001) > mult_genarr3d(7) = 1.,
(PID.TID 0000.0001) >
(PID.TID 0000.0001) > /
(PID.TID 0000.0001) 
(PID.TID 0000.0001) CTRL_READPARMS: finished reading data.ctrl
(PID.TID 0000.0001) COST_READPARMS: opening data.cost
(PID.TID 0000.0001)  OPEN_COPY_DATA_FILE: opening file data.cost
(PID.TID 0000.0001) // =======================================================
(PID.TID 0000.0001) // Parameter file "data.cost"
(PID.TID 0000.0001) // =======================================================
(PID.TID 0000.0001) >#
(PID.TID 0000.0001) >#
(PID.TID 0000.0001) ># ******************
(PID.TID 0000.0001) ># cost function
(PID.TID 0000.0001) ># ******************
(PID.TID 0000.0001) > &COST_NML
(PID.TID 0000.0001) > /
(PID.TID 0000.0001) 
(PID.TID 0000.0001) COST_READPARMS: finished reading data.cost
(PID.TID 0000.0001) SMOOTH_READPARMS: opening data.smooth
(PID.TID 0000.0001)  OPEN_COPY_DATA_FILE: opening file data.smooth
(PID.TID 0000.0001) // =======================================================
(PID.TID 0000.0001) // Parameter file "data.smooth"
(PID.TID 0000.0001) // =======================================================
(PID.TID 0000.0001) > &SMOOTH_NML
(PID.TID 0000.0001) > smooth2Dnbt(1)=300
(PID.TID 0000.0001) > smooth2Dtype(1)=1
(PID.TID 0000.0001) > smooth2Dsize(1)=2
(PID.TID 0000.0001) > smooth2Dfilter(1)=0
(PID.TID 0000.0001) > smooth3Dnbt(1)=300
(PID.TID 0000.0001) > smooth3DtypeH(1)=1
(PID.TID 0000.0001) > smooth3DsizeH(1)=3
(PID.TID 0000.0001) > smooth3DtypeZ(1)=1
(PID.TID 0000.0001) > smooth3DsizeZ(1)=3
(PID.TID 0000.0001) > smooth3Dfilter(1)=0
(PID.TID 0000.0001) > /
(PID.TID 0000.0001) 
(PID.TID 0000.0001) SMOOTH_READPARMS: finished reading data.smooth
(PID.TID 0000.0001) // =======================================================
(PID.TID 0000.0001) // pkg/smooth configuration
(PID.TID 0000.0001) // =======================================================
(PID.TID 0000.0001) smooth 2D parameters:  1   300    0.    0.
(PID.TID 0000.0001) smooth 3D parameters:  1   300    0.    0.    0.
(PID.TID 0000.0001) // =======================================================
(PID.TID 0000.0001) // End of pkg/smooth config. summary
(PID.TID 0000.0001) // =======================================================
(PID.TID 0000.0001) 
(PID.TID 0000.0001) ECCO_READPARMS: opening data.ecco
(PID.TID 0000.0001)  OPEN_COPY_DATA_FILE: opening file data.ecco
(PID.TID 0000.0001) // =======================================================
(PID.TID 0000.0001) // Parameter file "data.ecco"
(PID.TID 0000.0001) // =======================================================
(PID.TID 0000.0001) >#
(PID.TID 0000.0001) >#
(PID.TID 0000.0001) ># ******************
(PID.TID 0000.0001) ># ECCO cost function
(PID.TID 0000.0001) ># ******************
(PID.TID 0000.0001) >#
(PID.TID 0000.0001) > &ECCO_COST_NML
(PID.TID 0000.0001) >#
(PID.TID 0000.0001) > data_errfile    = 'data.err',
(PID.TID 0000.0001) > temp0errfile     = 'Theta_sigma_smoothed_method_02_masked_merged_capped_areascaled.bin',
(PID.TID 0000.0001) > salt0errfile     = 'Salt_sigma_smoothed_method_02_masked_merged_capped_areascaled.bin',
(PID.TID 0000.0001) > cost_iprec  = 32,
(PID.TID 0000.0001) > cost_yftype = 'RL',
(PID.TID 0000.0001) >#
(PID.TID 0000.0001) > /
(PID.TID 0000.0001) >#
(PID.TID 0000.0001) > &ECCO_GENCOST_NML
(PID.TID 0000.0001) >#
(PID.TID 0000.0001) >  gencost_avgperiod(1)  = 'day',
(PID.TID 0000.0001) >  gencost_barfile(1) = 'gbar_area',
(PID.TID 0000.0001) >  gencost_datafile(1) = 'NOAA_NSIDC_DAILY_v3b_MAPPED_TO_LLC90',
(PID.TID 0000.0001) >  gencost_errfile(1) = 'sigma_iceconc_eccollc_coastalmask_areascaled.bin',
(PID.TID 0000.0001) >  gencost_name(1) = 'siv4-conc',
(PID.TID 0000.0001) >  gencost_spmin(1) = -999.,
(PID.TID 0000.0001) >  gencost_spmax(1) = 999.,
(PID.TID 0000.0001) >  gencost_spzero(1) = -9999.,
(PID.TID 0000.0001) >  gencost_outputlevel(1)=1,
(PID.TID 0000.0001) >  mult_gencost(1) = 0.,
(PID.TID 0000.0001) >#
(PID.TID 0000.0001) >  gencost_avgperiod(2)  = 'day',
(PID.TID 0000.0001) >  gencost_barfile(2) = 'gbar_deconc',
(PID.TID 0000.0001) >  gencost_name(2) = 'siv4-deconc',
(PID.TID 0000.0001) >  gencost_datafile(2) = 'NOAA_NSIDC_DAILY_v3b_MAPPED_TO_LLC90',
(PID.TID 0000.0001) >  gencost_errfile(2) = 'seaiceproxy_sigma_coastalmask_areascaled.bin',
(PID.TID 0000.0001) >  gencost_spmin(2) = -999.,
(PID.TID 0000.0001) >  gencost_spmax(2) = 999.,
(PID.TID 0000.0001) >  gencost_spzero(2) = -9999.,
(PID.TID 0000.0001) >  gencost_outputlevel(2)=1,
(PID.TID 0000.0001) >  mult_gencost(2) = 0.071,
(PID.TID 0000.0001) >#
(PID.TID 0000.0001) >  gencost_avgperiod(3)  = 'day',
(PID.TID 0000.0001) >  gencost_barfile(3) = 'gbar_exconc',
(PID.TID 0000.0001) >  gencost_name(3) = 'siv4-exconc',
(PID.TID 0000.0001) >  gencost_datafile(3) = 'NOAA_NSIDC_DAILY_v3b_MAPPED_TO_LLC90',
(PID.TID 0000.0001) >  gencost_errfile(3) = 'seaiceproxy_sigma_coastalmask_areascaled.bin',
(PID.TID 0000.0001) >  gencost_spmin(3) = -999.,
(PID.TID 0000.0001) >  gencost_spmax(3) = 999.,
(PID.TID 0000.0001) >  gencost_spzero(3) = -9999.,
(PID.TID 0000.0001) >  gencost_outputlevel(3)=1,
(PID.TID 0000.0001) >  mult_gencost(3) = 0.,
(PID.TID 0000.0001) >#
(PID.TID 0000.0001) >  gencost_avgperiod(4)  = 'month',
(PID.TID 0000.0001) >  gencost_barfile(4) = 'm_sstmon',
(PID.TID 0000.0001) >  gencost_datafile(4) = 'reynolds_oiv2_r1_mar2018_simasked',
(PID.TID 0000.0001) >  gencost_errfile(4) = 'sigma_half_areascaled.bin',
(PID.TID 0000.0001) >  gencost_name(4) = 'sst-reynoldsmean',
(PID.TID 0000.0001) >  gencost_spmin(4) = -1.8,
(PID.TID 0000.0001) >  gencost_spmax(4) = 40.,
(PID.TID 0000.0001) >  gencost_spzero(4) = 0.,
(PID.TID 0000.0001) >  gencost_preproc(1,4)='mean',
(PID.TID 0000.0001) >  gencost_outputlevel(4)=1,
(PID.TID 0000.0001) >  mult_gencost(4) = 1.,
(PID.TID 0000.0001) >#
(PID.TID 0000.0001) >  gencost_avgperiod(5)  = 'month',
(PID.TID 0000.0001) >  gencost_barfile(5) = 'm_sstmon',
(PID.TID 0000.0001) >  gencost_datafile(5) = 'reynolds_oiv2_r1_mar2018_simasked',
(PID.TID 0000.0001) >  gencost_errfile(5) = 'sigma_half_areascaled.bin',
(PID.TID 0000.0001) >  gencost_name(5) = 'sst-reynoldsanom',
(PID.TID 0000.0001) >  gencost_spmin(5) = -1.8,
(PID.TID 0000.0001) >  gencost_spmax(5) = 40.,
(PID.TID 0000.0001) >  gencost_spzero(5) = 0.,
(PID.TID 0000.0001) >  gencost_preproc(1,5)='anom',
(PID.TID 0000.0001) >  gencost_outputlevel(5)=1,
(PID.TID 0000.0001) >  mult_gencost(5) = 1.,
(PID.TID 0000.0001) >
(PID.TID 0000.0001) >#
(PID.TID 0000.0001) ># gencost_avgperiod(5)  = 'month',
(PID.TID 0000.0001) ># gencost_barfile(5) = 'sstmon',
(PID.TID 0000.0001) ># gencost_datafile(5) = 'tmi_amsre_oisst_r1',
(PID.TID 0000.0001) ># gencost_errfile(5) = 'sigma_half_areascaled.bin',
(PID.TID 0000.0001) ># gencost_name(5) = 'sst-tmi-amsre',
(PID.TID 0000.0001) ># gencost_startdate1(5) = 19980101,
(PID.TID 0000.0001) ># gencost_startdate2(5)= 00000,
(PID.TID 0000.0001) ># gencost_spmin(5) = -1.8,
(PID.TID 0000.0001) ># gencost_spmax(5) = 40.,
(PID.TID 0000.0001) ># gencost_spzero(5) = 0.,
(PID.TID 0000.0001) ># gencost_outputlevel(5)=1,
(PID.TID 0000.0001) ># mult_gencost(5) = 0.,
(PID.TID 0000.0001) >#
(PID.TID 0000.0001) >  gencost_avgperiod(6)  = 'month',
(PID.TID 0000.0001) >  gencost_barfile(6) = 'm_bp_nopabarmon',
(PID.TID 0000.0001) >  gencost_datafile(6) = 'GRACE_jpl_rl05m_20180122',
(PID.TID 0000.0001) >  gencost_errfile(6) = 'GRACE_jpl_rl05m_20180122_err_areascaled',
(PID.TID 0000.0001) >  gencost_name(6) = 'bpv4-grace',
(PID.TID 0000.0001) >  gencost_outputlevel(6)=1,
(PID.TID 0000.0001) >  mult_gencost(6) = 1.,
(PID.TID 0000.0001) >#
(PID.TID 0000.0001) >  gencost_avgperiod(7)  = 'month',
(PID.TID 0000.0001) >  gencost_barfile(7) = 'm_thetamon',
(PID.TID 0000.0001) >  gencost_datafile(7) = 'T_monthly_woa09_highlatnearsurface_masked',
(PID.TID 0000.0001) >  gencost_errfile(7) = 'Theta_sigma_smoothed_method_02_masked_merged_capped_areascaled.bin',
(PID.TID 0000.0001) >#  gencost_name(7) = 'thetaclim',
(PID.TID 0000.0001) >  gencost_name(7) = 'thetamean',
(PID.TID 0000.0001) >  gencost_spmin(7) = -1.8,
(PID.TID 0000.0001) >  gencost_spmax(7) = 40.,
(PID.TID 0000.0001) >  gencost_spzero(7) = 0.,
(PID.TID 0000.0001) >  gencost_is3d(7)=.TRUE.,
(PID.TID 0000.0001) >  gencost_preproc(1,7)='mean',
(PID.TID 0000.0001) >  gencost_outputlevel(7)=1,
(PID.TID 0000.0001) >  mult_gencost(7) = 1.,
(PID.TID 0000.0001) >#
(PID.TID 0000.0001) >  gencost_avgperiod(8)  = 'month',
(PID.TID 0000.0001) >  gencost_barfile(8) = 'm_saltmon',
(PID.TID 0000.0001) >  gencost_datafile(8) = 'S_monthly_woa09_highlatnearsurface_masked',
(PID.TID 0000.0001) >  gencost_errfile(8) = 'Salt_sigma_smoothed_method_02_masked_merged_capped_areascaled.bin',
(PID.TID 0000.0001) >#  gencost_name(8) = 'saltclim',
(PID.TID 0000.0001) >  gencost_name(8) = 'saltmean',
(PID.TID 0000.0001) >  gencost_spmin(8) = 25.,
(PID.TID 0000.0001) >  gencost_spmax(8) = 40.,
(PID.TID 0000.0001) >  gencost_spzero(8) = 0.,
(PID.TID 0000.0001) >  gencost_is3d(8)=.TRUE.,
(PID.TID 0000.0001) >  gencost_preproc(1,8)='mean',
(PID.TID 0000.0001) >  gencost_outputlevel(8)=1,
(PID.TID 0000.0001) >  mult_gencost(8) = 1.,
(PID.TID 0000.0001) >#
(PID.TID 0000.0001) > gencost_datafile(11) = 'mdt2_dtu17.bin',
(PID.TID 0000.0001) > gencost_startdate1(11) = 19930101,
(PID.TID 0000.0001) > gencost_startdate2(11) = 00000,
(PID.TID 0000.0001) > gencost_enddate1(11) = 20171231,
(PID.TID 0000.0001) > gencost_enddate2(11) = 00000,
(PID.TID 0000.0001) > gencost_errfile(11) = 'mdt_dtu13_error_m_areascaled.bin',
(PID.TID 0000.0001) > gencost_name(11) = 'sshv4-mdt',
(PID.TID 0000.0001) > gencost_posproc(1,11)='smooth',
(PID.TID 0000.0001) > gencost_posproc_c(1,11)='sshv4_scale_1p5points.bin',
(PID.TID 0000.0001) > gencost_posproc_i(1,11)=300,
(PID.TID 0000.0001) ># gencost_scalefile(11) = 'sshv4_scale_1p5points.bin',
(PID.TID 0000.0001) > gencost_outputlevel(11)=1,
(PID.TID 0000.0001) > mult_gencost(11) = 1.,
(PID.TID 0000.0001) >#
(PID.TID 0000.0001) > gencost_barfile(12) = 'm_eta_dynday',
(PID.TID 0000.0001) > gencost_datafile(12) = 'RADS_TJ_mar2018',
(PID.TID 0000.0001) > gencost_startdate1(12) = 19920101,
(PID.TID 0000.0001) > gencost_startdate2(12) = 00000,
(PID.TID 0000.0001) > gencost_avgperiod(12)  = 'day',
(PID.TID 0000.0001) > gencost_errfile(12) = 'slaerr_gridscale_r5_areascaled.err',
(PID.TID 0000.0001) > gencost_name(12) = 'sshv4-tp',
(PID.TID 0000.0001) > gencost_outputlevel(12)=1,
(PID.TID 0000.0001) > mult_gencost(12) = 0.,
(PID.TID 0000.0001) >#
(PID.TID 0000.0001) > gencost_datafile(13) = 'RADS_ERS_ENV_SA_mar2018',
(PID.TID 0000.0001) > gencost_startdate1(13) = 19920101,
(PID.TID 0000.0001) > gencost_startdate2(13) = 00000,
(PID.TID 0000.0001) > gencost_avgperiod(13)  = 'day',
(PID.TID 0000.0001) > gencost_errfile(13) = 'slaerr_gridscale_r5_areascaled.err',
(PID.TID 0000.0001) > gencost_name(13) = 'sshv4-ers',
(PID.TID 0000.0001) > gencost_outputlevel(13)=1,
(PID.TID 0000.0001) > mult_gencost(13) = 0.,
(PID.TID 0000.0001) >#
(PID.TID 0000.0001) > gencost_datafile(14) = 'RADS_GFO_C2_mar2018',
(PID.TID 0000.0001) > gencost_startdate1(14) = 19920101,
(PID.TID 0000.0001) > gencost_startdate2(14) = 00000,
(PID.TID 0000.0001) > gencost_avgperiod(14)  = 'day',
(PID.TID 0000.0001) > gencost_errfile(14) = 'slaerr_gridscale_r5_areascaled.err',
(PID.TID 0000.0001) > gencost_name(14) = 'sshv4-gfo',
(PID.TID 0000.0001) > gencost_outputlevel(14)=1,
(PID.TID 0000.0001) > mult_gencost(14) = 0.,
(PID.TID 0000.0001) >#
(PID.TID 0000.0001) > gencost_errfile(15) = 'slaerr_largescale_r5_areascaled.err',
(PID.TID 0000.0001) > gencost_name(15) = 'sshv4-lsc',
(PID.TID 0000.0001) >#gencost_scalefile(15) = 'sshv4_scale_3points.bin',
(PID.TID 0000.0001) > gencost_posproc(1,15)='smooth',
(PID.TID 0000.0001) > gencost_posproc_c(1,15)='sshv4_scale_3points.bin',
(PID.TID 0000.0001) > gencost_posproc_i(1,15)=300,
(PID.TID 0000.0001) > gencost_outputlevel(15)=1,
(PID.TID 0000.0001) > mult_gencost(15) = 0.001,
(PID.TID 0000.0001) >#
(PID.TID 0000.0001) >#gencost_name(16) = 'sshv4-gmsl',
(PID.TID 0000.0001) >#gencost_outputlevel(16)=1,
(PID.TID 0000.0001) >#mult_gencost(16) = 0.,
(PID.TID 0000.0001) >#
(PID.TID 0000.0001) >  gencost_avgperiod(17)  = 'month',
(PID.TID 0000.0001) >  gencost_barfile(17) = 'm_thetamon',
(PID.TID 0000.0001) >  gencost_datafile(17) = 'T_monthly_woa09_highlatnearsurface_masked',
(PID.TID 0000.0001) >  gencost_errfile(17) = 'Theta_sigma_smoothed_method_02_masked_merged_capped_areascaled.bin',
(PID.TID 0000.0001) >#  gencost_name(17) = 'thetaclim',
(PID.TID 0000.0001) >  gencost_name(17) = 'thetaanom',
(PID.TID 0000.0001) >  gencost_spmin(17) = -1.8,
(PID.TID 0000.0001) >  gencost_spmax(17) = 40.,
(PID.TID 0000.0001) >  gencost_spzero(17) = 0.,
(PID.TID 0000.0001) >  gencost_is3d(17)=.TRUE.,
(PID.TID 0000.0001) >  gencost_preproc(1,17)='clim',
(PID.TID 0000.0001) >  gencost_preproc_i(1,17)=12,
(PID.TID 0000.0001) >  gencost_preproc(2,17)='anom',
(PID.TID 0000.0001) >  gencost_outputlevel(17)=1,
(PID.TID 0000.0001) >  mult_gencost(17) = 1.,
(PID.TID 0000.0001) >#
(PID.TID 0000.0001) >  gencost_avgperiod(18)  = 'month',
(PID.TID 0000.0001) >  gencost_barfile(18) = 'm_saltmon',
(PID.TID 0000.0001) >  gencost_datafile(18) = 'S_monthly_woa09_highlatnearsurface_masked',
(PID.TID 0000.0001) >  gencost_errfile(18) = 'Salt_sigma_smoothed_method_02_masked_merged_capped_areascaled.bin',
(PID.TID 0000.0001) >#  gencost_name(18) = 'saltclim',
(PID.TID 0000.0001) >  gencost_name(18) = 'saltanom',
(PID.TID 0000.0001) >  gencost_spmin(18) = 25.,
(PID.TID 0000.0001) >  gencost_spmax(18) = 40.,
(PID.TID 0000.0001) >  gencost_spzero(18) = 0.,
(PID.TID 0000.0001) >  gencost_is3d(18)=.TRUE.,
(PID.TID 0000.0001) >  gencost_preproc(1,18)='clim',
(PID.TID 0000.0001) >  gencost_preproc_i(1,18)=12,
(PID.TID 0000.0001) >  gencost_preproc(2,18)='anom',
(PID.TID 0000.0001) >  gencost_outputlevel(18)=1,
(PID.TID 0000.0001) >  mult_gencost(18) = 1.,
(PID.TID 0000.0001) >#
(PID.TID 0000.0001) >  gencost_avgperiod(19)  = 'month',
(PID.TID 0000.0001) >  gencost_barfile(19) = 'm_sssmon',
(PID.TID 0000.0001) >  gencost_datafile(19) = 'monthlyL3v5_20180129',
(PID.TID 0000.0001) >  gencost_errfile(19) = 'errStdAQ_v3_llc_090_floored_areascaled',
(PID.TID 0000.0001) >  gencost_name(19) = 'sss_AQanom',
(PID.TID 0000.0001) >  gencost_spmin(19) = 25.,
(PID.TID 0000.0001) >  gencost_spmax(19) = 40.,
(PID.TID 0000.0001) >  gencost_spzero(19) = 0.,
(PID.TID 0000.0001) >  gencost_preproc(1,19) = 'anom',
(PID.TID 0000.0001) ># gencost_is3d(19)=.TRUE.,
(PID.TID 0000.0001) >  gencost_outputlevel(19)=1,
(PID.TID 0000.0001) >  mult_gencost(19) = 1.,
(PID.TID 0000.0001) >#
(PID.TID 0000.0001) >  gencost_avgperiod(20)  = 'month',
(PID.TID 0000.0001) >  gencost_barfile(20) = 'm_sssmon',
(PID.TID 0000.0001) >  gencost_datafile(20) = 'monthlyL3v5_20180129',
(PID.TID 0000.0001) >  gencost_errfile(20) = 'biasStdAQ_v3_llc_090_floored_areascaled',
(PID.TID 0000.0001) >  gencost_name(20) = 'sss_AQmean',
(PID.TID 0000.0001) >  gencost_spmin(20) = 25.,
(PID.TID 0000.0001) >  gencost_spmax(20) = 40.,
(PID.TID 0000.0001) >  gencost_spzero(20) = 0.,
(PID.TID 0000.0001) >  gencost_preproc(1,20) = 'mean',
(PID.TID 0000.0001) ># gencost_is3d(20)=.TRUE.,
(PID.TID 0000.0001) >  gencost_outputlevel(20)=1,
(PID.TID 0000.0001) >  mult_gencost(20) = 1.,
(PID.TID 0000.0001) >#
(PID.TID 0000.0001) >  gencost_avgperiod(21)  = 'month',
(PID.TID 0000.0001) >  gencost_barfile(21) = 'm_bp_nopabarmon',
(PID.TID 0000.0001) >  gencost_datafile(21) = 'GRACE_jpl_rl05m_20180122_SpatialMean.asc',
(PID.TID 0000.0001) >  gencost_name(21) = 'gmbp',
(PID.TID 0000.0001) >  gencost_wei1d(21) = 0.1583,
(PID.TID 0000.0001) >  gencost_spmin(21) = -990.,
(PID.TID 0000.0001) >  gencost_spmax(21) = 990.,
(PID.TID 0000.0001) >  gencost_spzero(21) = 0.,
(PID.TID 0000.0001) >  gencost_is1d(21)=.TRUE.,
(PID.TID 0000.0001) >  gencost_outputlevel(21)=1,
(PID.TID 0000.0001) >  mult_gencost(21) = 1.,
(PID.TID 0000.0001) >#
(PID.TID 0000.0001) >  gencost_avgperiod(22)  = 'month',
(PID.TID 0000.0001) >  gencost_barfile(22) = 'm_eta_dynmon',
(PID.TID 0000.0001) >  gencost_datafile(22) = '20180228_ensemble_average_gmsl_ref.asc',
(PID.TID 0000.0001) >  gencost_name(22) = 'gmsl',
(PID.TID 0000.0001) >  gencost_wei1d(22) = 0.00382,
(PID.TID 0000.0001) >  gencost_spmin(22) = -990.,
(PID.TID 0000.0001) >  gencost_spmax(22) = 990.,
(PID.TID 0000.0001) >  gencost_spzero(22) = 0.,
(PID.TID 0000.0001) >  gencost_is1d(22)=.TRUE.,
(PID.TID 0000.0001) >  gencost_outputlevel(22)=1,
(PID.TID 0000.0001) >  mult_gencost(22) = 1.,
(PID.TID 0000.0001) >#
(PID.TID 0000.0001) >  gencost_barfile(27) = 'm_etaday',
(PID.TID 0000.0001) >  gencost_datafile(27) = 'RADS_TJ_mar2018',
(PID.TID 0000.0001) >  gencost_startdate1(27) = 19920101,
(PID.TID 0000.0001) >  gencost_startdate2(27) = 00000,
(PID.TID 0000.0001) >  gencost_avgperiod(27)  = 'day',
(PID.TID 0000.0001) >  gencost_errfile(27) = 'slaerr_gridscale_r5_areascaled.err',
(PID.TID 0000.0001) >  gencost_spmin(27) = -990.,
(PID.TID 0000.0001) >  gencost_spmax(27) = 990.,
(PID.TID 0000.0001) >  gencost_spzero(27) = 0.,
(PID.TID 0000.0001) >  gencost_outputlevel(27)=1,
(PID.TID 0000.0001) >  mult_gencost(27) = 0.,
(PID.TID 0000.0001) >#
(PID.TID 0000.0001) >  gencost_avgperiod(28)  = 'month',
(PID.TID 0000.0001) >  gencost_barfile(28) = 'm_etamon',
(PID.TID 0000.0001) >  gencost_datafile(28) = '20180228_ensemble_average_gmsl_ref.asc',
(PID.TID 0000.0001) >  gencost_wei1d(28) = 0.00382,
(PID.TID 0000.0001) >  gencost_spmin(28) = -990.,
(PID.TID 0000.0001) >  gencost_spmax(28) = 990.,
(PID.TID 0000.0001) >  gencost_spzero(28) = 0.,
(PID.TID 0000.0001) >  gencost_is1d(28)=.TRUE.,
(PID.TID 0000.0001) >  gencost_outputlevel(28)=1,
(PID.TID 0000.0001) >  mult_gencost(28) = 0.,
(PID.TID 0000.0001) >#
(PID.TID 0000.0001) >  gencost_avgperiod(29)  = 'month',
(PID.TID 0000.0001) >  gencost_barfile(29) = 'm_bpmon',
(PID.TID 0000.0001) >  gencost_datafile(29) = 'GRACE_jpl_rl05m_20180122_SpatialMean.asc',
(PID.TID 0000.0001) >  gencost_wei1d(29) = 0.1583,
(PID.TID 0000.0001) >  gencost_spmin(29) = -990.,
(PID.TID 0000.0001) >  gencost_spmax(29) = 990.,
(PID.TID 0000.0001) >  gencost_spzero(29) = 0.,
(PID.TID 0000.0001) >  gencost_is1d(29)=.TRUE.,
(PID.TID 0000.0001) >  gencost_outputlevel(29)=1,
(PID.TID 0000.0001) >  mult_gencost(29) = 0.,
(PID.TID 0000.0001) >#
(PID.TID 0000.0001) >  gencost_avgperiod(30)  = 'day',
(PID.TID 0000.0001) >  gencost_barfile(30) = 'm_bpday',
(PID.TID 0000.0001) >  gencost_datafile(30) = 'GRACE_fake_daily',
(PID.TID 0000.0001) >  gencost_errfile(30) = 'GRACE_jpl_rl05m_20180122_err_areascaled',
(PID.TID 0000.0001) >  gencost_spmin(30) = -990.,
(PID.TID 0000.0001) >  gencost_spmax(30) = 990.,
(PID.TID 0000.0001) >  gencost_spzero(30) = 0.,
(PID.TID 0000.0001) >  gencost_outputlevel(30)=1,
(PID.TID 0000.0001) >  mult_gencost(30) = 0.,
(PID.TID 0000.0001) >#
(PID.TID 0000.0001) >  gencost_avgperiod(31)  = 'day',
(PID.TID 0000.0001) >  gencost_barfile(31) = 'm_bp_nopabarday',
(PID.TID 0000.0001) >  gencost_datafile(31) = 'GRACE_fake_daily'
(PID.TID 0000.0001) >  gencost_errfile(31) = 'GRACE_jpl_rl05m_20180122_err_areascaled',
(PID.TID 0000.0001) >  gencost_spmin(31) = -990.,
(PID.TID 0000.0001) >  gencost_spmax(31) = 990.,
(PID.TID 0000.0001) >  gencost_spzero(31) = 0.,
(PID.TID 0000.0001) >  gencost_outputlevel(31)=1,
(PID.TID 0000.0001) >  mult_gencost(31) = 0.,
(PID.TID 0000.0001) > /
(PID.TID 0000.0001) >#
(PID.TID 0000.0001) 
(PID.TID 0000.0001) ECCO_READPARMS: finished reading #1: ecco_cost_nml
(PID.TID 0000.0001) ECCO_READPARMS: finished reading #2: ecco_gencost_nml
(PID.TID 0000.0001) ECCO_READPARMS: done
(PID.TID 0000.0001) PROFILES_READPARMS: opening data.profiles
(PID.TID 0000.0001)  OPEN_COPY_DATA_FILE: opening file data.profiles
(PID.TID 0000.0001) // =======================================================
(PID.TID 0000.0001) // Parameter file "data.profiles"
(PID.TID 0000.0001) // =======================================================
(PID.TID 0000.0001) >#
(PID.TID 0000.0001) ># ******************
(PID.TID 0000.0001) ># PROFILES cost function
(PID.TID 0000.0001) ># ******************
(PID.TID 0000.0001) > &PROFILES_NML
(PID.TID 0000.0001) >#
(PID.TID 0000.0001) > profilesDir='profiles',
(PID.TID 0000.0001) > profilesDoGenGrid=.TRUE.,
(PID.TID 0000.0001) >#
(PID.TID 0000.0001) > profiles_mean_indsamples(1) = 9,
(PID.TID 0000.0001) > profiles_mean_indsamples(2) = 9,
(PID.TID 0000.0001) >
(PID.TID 0000.0001) > profilesfiles(1)= 'ARGO_20190131_95to13',
(PID.TID 0000.0001) > profilesfiles(2)= 'ARGO_20190131_14to17',
(PID.TID 0000.0001) > profilesfiles(3)= 'APB_20190131_97to04',
(PID.TID 0000.0001) > profilesfiles(4)= 'CTD_20190131_92to05',
(PID.TID 0000.0001) > profilesfiles(5)= 'GLD_20190131_02to11',
(PID.TID 0000.0001) > profilesfiles(6)= 'GLD_20190131_12to13',
(PID.TID 0000.0001) > profilesfiles(7)= 'GLD_20190131_14to15',
(PID.TID 0000.0001) > profilesfiles(8)= 'MRB_20190131_92to03',
(PID.TID 0000.0001) > profilesfiles(9)= 'MRB_20190131_04to04',
(PID.TID 0000.0001) > profilesfiles(10)= 'XBT_20190131_92to05',
(PID.TID 0000.0001) > profilesfiles(11)= 'XBT_20190131_06to17',
(PID.TID 0000.0001) > profilesfiles(12)= 'ITP_20190131_04to13',
(PID.TID 0000.0001) >#profilesfiles(13)= 'beaufortgyremooring_GAMMA_20150915',
(PID.TID 0000.0001) >#profilesfiles(14)= 'beringstraitmooring_GAMMA_20150915',
(PID.TID 0000.0001) >#profilesfiles(15)= 'framstraitmooring_GAMMA_20150915',
(PID.TID 0000.0001) >#profilesfiles(16)= 'climode_GAMMA_20150915',
(PID.TID 0000.0001) >#profilesfiles(17)= 'davisstraitmooring_GAMMA_20150915',
(PID.TID 0000.0001) > profilesfiles(18)= 'GLD_20190131_16to17',
(PID.TID 0000.0001) > profilesfiles(19)= 'GOSHIP_20190131_92to17',
(PID.TID 0000.0001) > profilesfiles(20)= 'MRB_20190131_05to05',
(PID.TID 0000.0001) > profilesfiles(21)= 'MRB_20190131_06to17',
(PID.TID 0000.0001) > profilesfiles(22)= 'CTD_20190131_06to17',
(PID.TID 0000.0001) > profilesfiles(23)= 'ITP_20190131_14to17',
(PID.TID 0000.0001) > profilesfiles(24)= 'APB_20190131_05to05',
(PID.TID 0000.0001) > profilesfiles(25)= 'APB_20190131_06to06',
(PID.TID 0000.0001) > profilesfiles(26)= 'APB_20190131_07to07',
(PID.TID 0000.0001) > profilesfiles(27)= 'APB_20190131_08to09',
(PID.TID 0000.0001) > profilesfiles(28)= 'APB_20190131_10to17',
(PID.TID 0000.0001) > profilesfiles(29)= 'CCHDO_20190131_92to17',
(PID.TID 0000.0001) >#
(PID.TID 0000.0001) > mult_profiles_mean(1)   = 1.,
(PID.TID 0000.0001) > mult_profiles_mean(2)   = 1.,
(PID.TID 0000.0001) >
(PID.TID 0000.0001) > mult_profiles(1,1)   = 1.,
(PID.TID 0000.0001) > mult_profiles(1,2)   = 1.,
(PID.TID 0000.0001) > mult_profiles(2,1)   = 1.,
(PID.TID 0000.0001) > mult_profiles(2,2)   = 1.,
(PID.TID 0000.0001) > mult_profiles(3,1)   = 1.,
(PID.TID 0000.0001) > mult_profiles(3,2)   = 1.,
(PID.TID 0000.0001) > mult_profiles(4,1)   = 1.,
(PID.TID 0000.0001) > mult_profiles(4,2)   = 1.,
(PID.TID 0000.0001) > mult_profiles(5,1)   = 1.,
(PID.TID 0000.0001) > mult_profiles(5,2)   = 1.,
(PID.TID 0000.0001) > mult_profiles(6,1)   = 1.,
(PID.TID 0000.0001) > mult_profiles(6,2)   = 1.,
(PID.TID 0000.0001) > mult_profiles(7,1)   = 1.,
(PID.TID 0000.0001) > mult_profiles(7,2)   = 1.,
(PID.TID 0000.0001) > mult_profiles(8,1)   = 1.,
(PID.TID 0000.0001) > mult_profiles(8,2)   = 1.,
(PID.TID 0000.0001) > mult_profiles(9,1)   = 1.,
(PID.TID 0000.0001) > mult_profiles(9,2)   = 1.,
(PID.TID 0000.0001) > mult_profiles(10,1)   = 1.,
(PID.TID 0000.0001) > mult_profiles(10,2)   = 1.,
(PID.TID 0000.0001) > mult_profiles(11,1)   = 1.,
(PID.TID 0000.0001) > mult_profiles(11,2)   = 1.,
(PID.TID 0000.0001) > mult_profiles(12,1)   = 1.,
(PID.TID 0000.0001) > mult_profiles(12,2)   = 1.,
(PID.TID 0000.0001) > mult_profiles(13,1)   = 0.2,
(PID.TID 0000.0001) > mult_profiles(13,2)   = 0.2,
(PID.TID 0000.0001) > mult_profiles(14,1)   = 1.,
(PID.TID 0000.0001) > mult_profiles(14,2)   = 1.,
(PID.TID 0000.0001) > mult_profiles(15,1)   = 0.013,
(PID.TID 0000.0001) > mult_profiles(15,2)   = 0.013,
(PID.TID 0000.0001) > mult_profiles(16,1)   = 1.,
(PID.TID 0000.0001) > mult_profiles(16,2)   = 1.,
(PID.TID 0000.0001) > mult_profiles(17,1)   = 0.0165,
(PID.TID 0000.0001) > mult_profiles(17,2)   = 0.0165,
(PID.TID 0000.0001) > mult_profiles(18,1)   = 1.,
(PID.TID 0000.0001) > mult_profiles(18,2)   = 1.,
(PID.TID 0000.0001) > mult_profiles(19,1)   = 1.,
(PID.TID 0000.0001) > mult_profiles(19,2)   = 1.,
(PID.TID 0000.0001) > mult_profiles(20,1)   = 1.,
(PID.TID 0000.0001) > mult_profiles(20,2)   = 1.,
(PID.TID 0000.0001) > mult_profiles(21,1)   = 1.,
(PID.TID 0000.0001) > mult_profiles(21,2)   = 1.,
(PID.TID 0000.0001) > mult_profiles(22,1)   = 1.,
(PID.TID 0000.0001) > mult_profiles(22,2)   = 1.,
(PID.TID 0000.0001) > mult_profiles(23,1)   = 1.,
(PID.TID 0000.0001) > mult_profiles(23,2)   = 1.,
(PID.TID 0000.0001) > mult_profiles(24,1)   = 1.,
(PID.TID 0000.0001) > mult_profiles(24,2)   = 1.,
(PID.TID 0000.0001) > mult_profiles(25,1)   = 1.,
(PID.TID 0000.0001) > mult_profiles(25,2)   = 1.,
(PID.TID 0000.0001) > mult_profiles(26,1)   = 1.,
(PID.TID 0000.0001) > mult_profiles(26,2)   = 1.,
(PID.TID 0000.0001) > mult_profiles(27,1)   = 1.,
(PID.TID 0000.0001) > mult_profiles(27,2)   = 1.,
(PID.TID 0000.0001) > mult_profiles(28,1)   = 1.,
(PID.TID 0000.0001) > mult_profiles(28,2)   = 1.,
(PID.TID 0000.0001) > mult_profiles(29,1)   = 1.,
(PID.TID 0000.0001) > mult_profiles(29,2)   = 1.,
(PID.TID 0000.0001) >
(PID.TID 0000.0001) >#
(PID.TID 0000.0001) > /
(PID.TID 0000.0001) 
(PID.TID 0000.0001) PROFILES_READPARMS: finished reading data.profiles
(PID.TID 0000.0001)  SBO_READPARMS: opening data.sbo
(PID.TID 0000.0001)  OPEN_COPY_DATA_FILE: opening file data.sbo
(PID.TID 0000.0001) // =======================================================
(PID.TID 0000.0001) // Parameter file "data.sbo"
(PID.TID 0000.0001) // =======================================================
(PID.TID 0000.0001) >#
(PID.TID 0000.0001) ># *******************
(PID.TID 0000.0001) ># SBO Parameters
(PID.TID 0000.0001) ># *******************
(PID.TID 0000.0001) > &SBO_PARM01
(PID.TID 0000.0001) > /
(PID.TID 0000.0001) 
(PID.TID 0000.0001)  SBO_READPARMS: finished reading data.sbo
(PID.TID 0000.0001) SET_PARMS: done
==> SYSTEM CALL (from AUTODIFF_INI_MODEL_IO): > mkdir -p tapes <
==> SYSTEM CALL (from PROFILES_INI_IO): > mkdir -p profiles <
(PID.TID 0000.0001) Enter INI_VERTICAL_GRID: setInterFDr=    T ; setCenterDr=    F
(PID.TID 0000.0001) tile:   7 ; Read from file tile001.mitgrid
(PID.TID 0000.0001)   => xC yC dxF dyF rA xG yG dxV dyU rAz dxC dyC rAw rAs dxG dyG
(PID.TID 0000.0001) %MON XC_max                       =   1.7997758946678E+02
(PID.TID 0000.0001) %MON XC_min                       =  -1.7998895680928E+02
(PID.TID 0000.0001) %MON XC_mean                      =  -6.8997670631350E+00
(PID.TID 0000.0001) %MON XC_sd                        =   1.0548127462941E+02
(PID.TID 0000.0001) %MON XG_max                       =   1.8000000000000E+02
(PID.TID 0000.0001) %MON XG_min                       =  -1.7999919444240E+02
(PID.TID 0000.0001) %MON XG_mean                      =  -6.3521159278861E+00
(PID.TID 0000.0001) %MON XG_sd                        =   1.0549598176576E+02
(PID.TID 0000.0001) %MON DXC_max                      =   1.1117680031365E+05
(PID.TID 0000.0001) %MON DXC_min                      =   1.3362789164732E+04
(PID.TID 0000.0001) %MON DXC_mean                     =   7.1345115143606E+04
(PID.TID 0000.0001) %MON DXC_sd                       =   2.6107013089865E+04
(PID.TID 0000.0001) %MON DXF_max                      =   1.1117680031365E+05
(PID.TID 0000.0001) %MON DXF_min                      =   1.3491575949394E+04
(PID.TID 0000.0001) %MON DXF_mean                     =   7.1334806791260E+04
(PID.TID 0000.0001) %MON DXF_sd                       =   2.6121349328995E+04
(PID.TID 0000.0001) %MON DXG_max                      =   1.1117747335204E+05
(PID.TID 0000.0001) %MON DXG_min                      =   1.0930409249570E+04
(PID.TID 0000.0001) %MON DXG_mean                     =   7.1313583950284E+04
(PID.TID 0000.0001) %MON DXG_sd                       =   2.6131714747840E+04
(PID.TID 0000.0001) %MON DXV_max                      =   1.1117747335204E+05
(PID.TID 0000.0001) %MON DXV_min                      =   9.4742518926426E+03
(PID.TID 0000.0001) %MON DXV_mean                     =   7.1323777998314E+04
(PID.TID 0000.0001) %MON DXV_sd                       =   2.6117603792432E+04
(PID.TID 0000.0001) %MON YC_max                       =   8.9739397429324E+01
(PID.TID 0000.0001) %MON YC_min                       =  -8.1637173529390E+01
(PID.TID 0000.0001) %MON YC_mean                      =  -5.9338515025079E-01
(PID.TID 0000.0001) %MON YC_sd                        =   5.1058908630085E+01
(PID.TID 0000.0001) %MON YG_max                       =   9.0000000000000E+01
(PID.TID 0000.0001) %MON YG_min                       =  -8.1805478609906E+01
(PID.TID 0000.0001) %MON YG_mean                      =  -5.7357831765463E-01
(PID.TID 0000.0001) %MON YG_sd                        =   5.1060174609345E+01
(PID.TID 0000.0001) %MON DYC_max                      =   1.1117680031365E+05
(PID.TID 0000.0001) %MON DYC_min                      =   1.3362789164732E+04
(PID.TID 0000.0001) %MON DYC_mean                     =   7.0982792089666E+04
(PID.TID 0000.0001) %MON DYC_sd                       =   2.6607387075348E+04
(PID.TID 0000.0001) %MON DYF_max                      =   1.1117680031365E+05
(PID.TID 0000.0001) %MON DYF_min                      =   1.3491575949394E+04
(PID.TID 0000.0001) %MON DYF_mean                     =   7.1000127494934E+04
(PID.TID 0000.0001) %MON DYF_sd                       =   2.6603606017547E+04
(PID.TID 0000.0001) %MON DYG_max                      =   1.1117747335204E+05
(PID.TID 0000.0001) %MON DYG_min                      =   1.0930409249570E+04
(PID.TID 0000.0001) %MON DYG_mean                     =   7.1022116512585E+04
(PID.TID 0000.0001) %MON DYG_sd                       =   2.6571715830406E+04
(PID.TID 0000.0001) %MON DYU_max                      =   1.1117747335204E+05
(PID.TID 0000.0001) %MON DYU_min                      =   9.4742518926426E+03
(PID.TID 0000.0001) %MON DYU_mean                     =   7.1004694583927E+04
(PID.TID 0000.0001) %MON DYU_sd                       =   2.6575655787476E+04
(PID.TID 0000.0001) %MON RA_max                       =   1.1896090857160E+10
(PID.TID 0000.0001) %MON RA_min                       =   2.1263387742345E+08
(PID.TID 0000.0001) %MON RA_mean                      =   5.6344293572480E+09
(PID.TID 0000.0001) %MON RA_sd                        =   3.5929461176606E+09
(PID.TID 0000.0001) %MON RAW_max                      =   1.1896090856781E+10
(PID.TID 0000.0001) %MON RAW_min                      =   1.7369571508711E+08
(PID.TID 0000.0001) %MON RAW_mean                     =   5.6355850434318E+09
(PID.TID 0000.0001) %MON RAW_sd                       =   3.5915487677190E+09
(PID.TID 0000.0001) %MON RAS_max                      =   1.1896090856781E+10
(PID.TID 0000.0001) %MON RAS_min                      =   1.7369571508711E+08
(PID.TID 0000.0001) %MON RAS_mean                     =   5.6320332286162E+09
(PID.TID 0000.0001) %MON RAS_sd                       =   3.5937184228135E+09
(PID.TID 0000.0001) %MON RAZ_max                      =   1.1891903479271E+10
(PID.TID 0000.0001) %MON RAZ_min                      =   1.0413402423292E+08
(PID.TID 0000.0001) %MON RAZ_mean                     =   5.6331824674695E+09
(PID.TID 0000.0001) %MON RAZ_sd                       =   3.5923307220197E+09
(PID.TID 0000.0001) %MON AngleCS_max                  =   1.0000000000000E+00
(PID.TID 0000.0001) %MON AngleCS_min                  =  -9.9996641938864E-01
(PID.TID 0000.0001) %MON AngleCS_mean                 =   4.0572930529500E-01
(PID.TID 0000.0001) %MON AngleCS_sd                   =   5.3874397836719E-01
(PID.TID 0000.0001) %MON AngleSN_max                  =   9.9996641938864E-01
(PID.TID 0000.0001) %MON AngleSN_min                  =  -1.0000000000000E+00
(PID.TID 0000.0001) %MON AngleSN_mean                 =  -4.9986154624599E-01
(PID.TID 0000.0001) %MON AngleSN_sd                   =   5.4339404779819E-01
(PID.TID 0000.0001) 
(PID.TID 0000.0001) // =======================================================
(PID.TID 0000.0001) // Calendar configuration >>> START <<<
(PID.TID 0000.0001) // =======================================================
(PID.TID 0000.0001) 
(PID.TID 0000.0001) modelstart = /* Start time of the model integration [s] */
(PID.TID 0000.0001)                 3.600000000000000E+03
(PID.TID 0000.0001)     ;
(PID.TID 0000.0001) modelend  = /* End time of the model integration [s] */
(PID.TID 0000.0001)                 4.719960000000000E+07
(PID.TID 0000.0001)     ;
(PID.TID 0000.0001) modelStep = /* Time interval for a model forward step [s] */
(PID.TID 0000.0001)                 3.600000000000000E+03
(PID.TID 0000.0001)     ;
(PID.TID 0000.0001) usingGregorianCalendar= /* Calendar Type: Gregorian Calendar */
(PID.TID 0000.0001)                   T
(PID.TID 0000.0001)     ;
(PID.TID 0000.0001) usingJulianCalendar = /* Calendar Type: Julian Calendar */
(PID.TID 0000.0001)                   F
(PID.TID 0000.0001)     ;
(PID.TID 0000.0001) usingNoLeapYearCal  = /* Calendar Type: without Leap Year */
(PID.TID 0000.0001)                   F
(PID.TID 0000.0001)     ;
(PID.TID 0000.0001) usingModelCalendar  = /* Calendar Type: Model Calendar */
(PID.TID 0000.0001)                   F
(PID.TID 0000.0001)     ;
(PID.TID 0000.0001) modelStartDate YYYYMMDD = /* Model start date YYYY-MM-DD */
(PID.TID 0000.0001)                19920101
(PID.TID 0000.0001)     ;
(PID.TID 0000.0001)   modelStartDate HHMMSS = /* Model start date HH-MM-SS  */
(PID.TID 0000.0001)                  130000
(PID.TID 0000.0001)     ;
(PID.TID 0000.0001) modelEndDate   YYYYMMDD = /* Model end date YYYY-MM-DD */
(PID.TID 0000.0001)                19930630
(PID.TID 0000.0001)     ;
(PID.TID 0000.0001)   modelEndDate   HHMMSS = /* Model end date HH-MM-SS  */
(PID.TID 0000.0001)                  190000
(PID.TID 0000.0001)     ;
(PID.TID 0000.0001) intyears = /* Number of calendar years affected by the integration */
(PID.TID 0000.0001)                       2
(PID.TID 0000.0001)     ;
(PID.TID 0000.0001) intmonths= /* Number of calendar months affected by the integration */
(PID.TID 0000.0001)                      18
(PID.TID 0000.0001)     ;
(PID.TID 0000.0001) intdays = /* Number of calendar days affected by the integration */
(PID.TID 0000.0001)                     547
(PID.TID 0000.0001)     ;
(PID.TID 0000.0001) modelIter0 = /* Base timestep number  */
(PID.TID 0000.0001)                       1
(PID.TID 0000.0001)     ;
(PID.TID 0000.0001) modelIterEnd = /* Final timestep number  */
(PID.TID 0000.0001)                   13111
(PID.TID 0000.0001)     ;
(PID.TID 0000.0001) modelIntSteps= /* Number of model timesteps  */
(PID.TID 0000.0001)                   13110
(PID.TID 0000.0001)     ;
(PID.TID 0000.0001) 
(PID.TID 0000.0001) // =======================================================
(PID.TID 0000.0001) // Calendar configuration  >>> END <<<
(PID.TID 0000.0001) // =======================================================
(PID.TID 0000.0001) 
(PID.TID 0000.0001) GAD_INIT_FIXED: GAD_OlMinSize=  2  0  2
(PID.TID 0000.0001) 
(PID.TID 0000.0001) // ===================================
(PID.TID 0000.0001) // GAD parameters :
(PID.TID 0000.0001) // ===================================
(PID.TID 0000.0001) tempAdvScheme =   /* Temp. Horiz.Advection scheme selector */
(PID.TID 0000.0001)                      30
(PID.TID 0000.0001)     ;
(PID.TID 0000.0001) tempVertAdvScheme =   /* Temp. Vert. Advection scheme selector */
(PID.TID 0000.0001)                       3
(PID.TID 0000.0001)     ;
(PID.TID 0000.0001) tempMultiDimAdvec =   /* use Muti-Dim Advec method for Temp */
(PID.TID 0000.0001)                   T
(PID.TID 0000.0001)     ;
(PID.TID 0000.0001) tempSOM_Advection = /* use 2nd Order Moment Advection for Temp */
(PID.TID 0000.0001)                   F
(PID.TID 0000.0001)     ;
(PID.TID 0000.0001) AdamsBashforthGt = /* apply Adams-Bashforth extrapolation on Gt */
(PID.TID 0000.0001)                   F
(PID.TID 0000.0001)     ;
(PID.TID 0000.0001) AdamsBashforth_T = /* apply Adams-Bashforth extrapolation on Temp */
(PID.TID 0000.0001)                   F
(PID.TID 0000.0001)     ;
(PID.TID 0000.0001) saltAdvScheme =   /* Salt. Horiz.advection scheme selector */
(PID.TID 0000.0001)                      30
(PID.TID 0000.0001)     ;
(PID.TID 0000.0001) saltVertAdvScheme =   /* Salt. Vert. Advection scheme selector */
(PID.TID 0000.0001)                       3
(PID.TID 0000.0001)     ;
(PID.TID 0000.0001) saltMultiDimAdvec =   /* use Muti-Dim Advec method for Salt */
(PID.TID 0000.0001)                   T
(PID.TID 0000.0001)     ;
(PID.TID 0000.0001) saltSOM_Advection = /* use 2nd Order Moment Advection for Salt */
(PID.TID 0000.0001)                   F
(PID.TID 0000.0001)     ;
(PID.TID 0000.0001) AdamsBashforthGs = /* apply Adams-Bashforth extrapolation on Gs */
(PID.TID 0000.0001)                   F
(PID.TID 0000.0001)     ;
(PID.TID 0000.0001) AdamsBashforth_S = /* apply Adams-Bashforth extrapolation on Salt */
(PID.TID 0000.0001)                   F
(PID.TID 0000.0001)     ;
(PID.TID 0000.0001) // ===================================
(PID.TID 0000.0001) 
(PID.TID 0000.0001) // =======================================================
(PID.TID 0000.0001) // External forcing (EXF) configuration >>> START <<<
(PID.TID 0000.0001) // =======================================================
(PID.TID 0000.0001) 
(PID.TID 0000.0001)  EXF general parameters:
(PID.TID 0000.0001) 
(PID.TID 0000.0001) exf_iprec = /* exf file precision */
(PID.TID 0000.0001)                      32
(PID.TID 0000.0001)     ;
(PID.TID 0000.0001) useExfYearlyFields = /* add extension _YEAR to input file names */
(PID.TID 0000.0001)                   T
(PID.TID 0000.0001)     ;
(PID.TID 0000.0001) twoDigitYear = /* use 2-digit year extension */
(PID.TID 0000.0001)                   F
(PID.TID 0000.0001)     ;
(PID.TID 0000.0001) useExfCheckRange = /* check for fields range */
(PID.TID 0000.0001)                   F
(PID.TID 0000.0001)     ;
(PID.TID 0000.0001) exf_output_interp = /* output directly interpolation result */
(PID.TID 0000.0001)                   F
(PID.TID 0000.0001)     ;
(PID.TID 0000.0001) exf_debugLev = /* select EXF-debug printing level */
(PID.TID 0000.0001)                       1
(PID.TID 0000.0001)     ;
(PID.TID 0000.0001) exf_monFreq  = /* EXF monitor frequency [ s ] */
(PID.TID 0000.0001)                 6.307200000000000E+06
(PID.TID 0000.0001)     ;
(PID.TID 0000.0001) repeatPeriod = /* period for cycling forcing dataset [ s ] */
(PID.TID 0000.0001)                 0.000000000000000E+00
(PID.TID 0000.0001)     ;
(PID.TID 0000.0001) climTempFreeze= /* Minimum climatological temperature [deg.C] */
(PID.TID 0000.0001)                -1.900000000000000E+00
(PID.TID 0000.0001)     ;
(PID.TID 0000.0001) windStressMax = /* Maximum absolute windstress [ Pa ] */
(PID.TID 0000.0001)                 2.000000000000000E+00
(PID.TID 0000.0001)     ;
(PID.TID 0000.0001) stressIsOnCgrid = /* set u,v_stress on Arakawa C-grid */
(PID.TID 0000.0001)                   F
(PID.TID 0000.0001)     ;
(PID.TID 0000.0001) rotateStressOnAgrid = /* rotate u,v_stress on Arakawa A-grid */
(PID.TID 0000.0001)                   T
(PID.TID 0000.0001)     ;
(PID.TID 0000.0001) cen2kel = /* conversion of deg. Centigrade to Kelvin [K] */
(PID.TID 0000.0001)                 2.731500000000000E+02
(PID.TID 0000.0001)     ;
(PID.TID 0000.0001) gravity_mks= /* gravitational acceleration [m/s^2] */
(PID.TID 0000.0001)                 9.810000000000000E+00
(PID.TID 0000.0001)     ;
(PID.TID 0000.0001) atmrho =  /* mean atmospheric density [kg/m^3] */
(PID.TID 0000.0001)                 1.200000000000000E+00
(PID.TID 0000.0001)     ;
(PID.TID 0000.0001) atmcp =  /* mean atmospheric specific heat [J/kg/K] */
(PID.TID 0000.0001)                 1.005000000000000E+03
(PID.TID 0000.0001)     ;
(PID.TID 0000.0001) flamb =  /* latent heat of evaporation [J/kg] */
(PID.TID 0000.0001)                 2.500000000000000E+06
(PID.TID 0000.0001)     ;
(PID.TID 0000.0001) flami =  /* latent heat of pure-ice melting [J/kg] */
(PID.TID 0000.0001)                 3.340000000000000E+05
(PID.TID 0000.0001)     ;
(PID.TID 0000.0001) cvapor_fac = /* const. for Saturation calculation [?] */
(PID.TID 0000.0001)                 6.403800000000000E+05
(PID.TID 0000.0001)     ;
(PID.TID 0000.0001) cvapor_exp = /* const. for Saturation calculation [?] */
(PID.TID 0000.0001)                 5.107400000000000E+03
(PID.TID 0000.0001)     ;
(PID.TID 0000.0001) cvapor_fac_ice= /* const. for Saturation calculation [?] */
(PID.TID 0000.0001)                 1.163780000000000E+07
(PID.TID 0000.0001)     ;
(PID.TID 0000.0001) cvapor_exp_ice= /* const. for Saturation calculation [?] */
(PID.TID 0000.0001)                 5.897800000000000E+03
(PID.TID 0000.0001)     ;
(PID.TID 0000.0001) humid_fac = /* humidity coef. in virtual temp. [(kg/kg)^-1] */
(PID.TID 0000.0001)                 6.060000000000000E-01
(PID.TID 0000.0001)     ;
(PID.TID 0000.0001) gamma_blk = /* adiabatic lapse rate [?] */
(PID.TID 0000.0001)                 1.000000000000000E-02
(PID.TID 0000.0001)     ;
(PID.TID 0000.0001) saltsat = /* reduction of Qsat over salty water [-] */
(PID.TID 0000.0001)                 9.800000000000000E-01
(PID.TID 0000.0001)     ;
(PID.TID 0000.0001) noNegativeEvap = /* prevent negative Evaporation */
(PID.TID 0000.0001)                   F
(PID.TID 0000.0001)     ;
(PID.TID 0000.0001) sstExtrapol = /* extrapolation coeff from lev. 1 & 2 to surf [-] */
(PID.TID 0000.0001)                 0.000000000000000E+00
(PID.TID 0000.0001)     ;
(PID.TID 0000.0001) cDrag_1 = /* coef used in drag calculation [?] */
(PID.TID 0000.0001)                 2.700000000000000E-03
(PID.TID 0000.0001)     ;
(PID.TID 0000.0001) cDrag_2 = /* coef used in drag calculation [?] */
(PID.TID 0000.0001)                 1.420000000000000E-04
(PID.TID 0000.0001)     ;
(PID.TID 0000.0001) cDrag_3 = /* coef used in drag calculation [?] */
(PID.TID 0000.0001)                 7.640000000000000E-05
(PID.TID 0000.0001)     ;
(PID.TID 0000.0001) cStanton_1 = /* coef used in Stanton number calculation [?] */
(PID.TID 0000.0001)                 3.270000000000000E-02
(PID.TID 0000.0001)     ;
(PID.TID 0000.0001) cStanton_2 = /* coef used in Stanton number calculation [?] */
(PID.TID 0000.0001)                 1.800000000000000E-02
(PID.TID 0000.0001)     ;
(PID.TID 0000.0001) cDalton = /* coef used in Dalton number calculation [?] */
(PID.TID 0000.0001)                 3.460000000000000E-02
(PID.TID 0000.0001)     ;
(PID.TID 0000.0001) exf_scal_BulkCdn= /* Drag coefficient scaling factor [-] */
(PID.TID 0000.0001)                 1.000000000000000E+00
(PID.TID 0000.0001)     ;
(PID.TID 0000.0001) zolmin = /* minimum stability parameter [?] */
(PID.TID 0000.0001)                -1.000000000000000E+02
(PID.TID 0000.0001)     ;
(PID.TID 0000.0001) psim_fac = /* coef used in turbulent fluxes calculation [-] */
(PID.TID 0000.0001)                 5.000000000000000E+00
(PID.TID 0000.0001)     ;
(PID.TID 0000.0001) zref =  /* reference height [ m ] */
(PID.TID 0000.0001)                 1.000000000000000E+01
(PID.TID 0000.0001)     ;
(PID.TID 0000.0001) hu =  /* height of mean wind [ m ] */
(PID.TID 0000.0001)                 1.000000000000000E+01
(PID.TID 0000.0001)     ;
(PID.TID 0000.0001) ht =  /* height of mean temperature [ m ] */
(PID.TID 0000.0001)                 2.000000000000000E+00
(PID.TID 0000.0001)     ;
(PID.TID 0000.0001) hq =  /* height of mean spec.humidity [ m ] */
(PID.TID 0000.0001)                 2.000000000000000E+00
(PID.TID 0000.0001)     ;
(PID.TID 0000.0001) uMin = /* minimum wind speed [m/s] */
(PID.TID 0000.0001)                 5.000000000000000E-01
(PID.TID 0000.0001)     ;
(PID.TID 0000.0001) useStabilityFct_overIce= /* transfert Coeffs over sea-ice depend on stability */
(PID.TID 0000.0001)                   F
(PID.TID 0000.0001)     ;
(PID.TID 0000.0001) exf_iceCd = /* drag coefficient over sea-ice (fixed) [-] */
(PID.TID 0000.0001)                 1.630000000000000E-03
(PID.TID 0000.0001)     ;
(PID.TID 0000.0001) exf_iceCe = /* transfert coeff. over sea-ice, for Evap (fixed) [-] */
(PID.TID 0000.0001)                 1.630000000000000E-03
(PID.TID 0000.0001)     ;
(PID.TID 0000.0001) exf_iceCh = /* transfert coeff. over sea-ice, Sens.Heat.(fixed)[-] */
(PID.TID 0000.0001)                 1.630000000000000E-03
(PID.TID 0000.0001)     ;
(PID.TID 0000.0001) exf_albedo =  /* Sea-water albedo [-] */
(PID.TID 0000.0001)                 1.000000000000000E-01
(PID.TID 0000.0001)     ;
(PID.TID 0000.0001) useExfZenAlbedo = /* Sea-water albedo varies with zenith angle */
(PID.TID 0000.0001)                   T
(PID.TID 0000.0001)     ;
(PID.TID 0000.0001) select_ZenAlbedo = /* Sea-water albedo computation method */
(PID.TID 0000.0001)                       1
(PID.TID 0000.0001)     ;
(PID.TID 0000.0001) useExfZenIncoming = /* compute incoming solar radiation */
(PID.TID 0000.0001)                   T
(PID.TID 0000.0001)     ;
(PID.TID 0000.0001) ocean_emissivity = /* longwave ocean-surface emissivity [-] */
(PID.TID 0000.0001)                 9.700000000000000E-01
(PID.TID 0000.0001)     ;
(PID.TID 0000.0001) ice_emissivity = /* longwave seaice emissivity [-] */
(PID.TID 0000.0001)                 9.500000000000000E-01
(PID.TID 0000.0001)     ;
(PID.TID 0000.0001) snow_emissivity = /* longwave snow  emissivity [-] */
(PID.TID 0000.0001)                 9.500000000000000E-01
(PID.TID 0000.0001)     ;
(PID.TID 0000.0001) 
(PID.TID 0000.0001)  EXF main CPP flags:
(PID.TID 0000.0001) 
(PID.TID 0000.0001) // USE_EXF_INTERPOLATION:              defined
(PID.TID 0000.0001) // ALLOW_ATM_TEMP:                     defined
(PID.TID 0000.0001) // ALLOW_ATM_WIND (useAtmWind):    NOT defined
(PID.TID 0000.0001) // ALLOW_DOWNWARD_RADIATION:           defined
(PID.TID 0000.0001) // ALLOW_BULKFORMULAE:                 defined
(PID.TID 0000.0001) 
(PID.TID 0000.0001)    Zonal wind stress forcing starts at               10800.
(PID.TID 0000.0001)    Zonal wind stress forcing period is               21600.
(PID.TID 0000.0001)    Zonal wind stress forcing repeat-cycle is             0.
(PID.TID 0000.0001)    Zonal wind stress forcing is read from file:
(PID.TID 0000.0001)    >> eccov4r4_ustr <<
(PID.TID 0000.0001)    assume "ustress" on model-grid (no interpolation)
(PID.TID 0000.0001) 
(PID.TID 0000.0001)    Meridional wind stress forcing starts at          10800.
(PID.TID 0000.0001)    Meridional wind stress forcing period is          21600.
(PID.TID 0000.0001)    Meridional wind stress forcing rep-cycle is           0.
(PID.TID 0000.0001)    Meridional wind stress forcing is read from file:
(PID.TID 0000.0001)    >> eccov4r4_vstr <<
(PID.TID 0000.0001)    assume "vstress" on model-grid (no interpolation)
(PID.TID 0000.0001)     Interp. U & V comp. together: uvInterp_stress =    F
(PID.TID 0000.0001) 
(PID.TID 0000.0001)    Atmospheric temperature starts at                 10800.
(PID.TID 0000.0001)    Atmospheric temperature period is                 21600.
(PID.TID 0000.0001)    Atmospheric temperature repeat-cycle is               0.
(PID.TID 0000.0001)    Atmospheric temperature is read from file:
(PID.TID 0000.0001)    >> eccov4r4_tmp2m_degC <<
(PID.TID 0000.0001)    assume "atemp" on model-grid (no interpolation)
(PID.TID 0000.0001) 
(PID.TID 0000.0001)    Atmospheric specific humidity starts at           10800.
(PID.TID 0000.0001)    Atmospheric specific humidity period is           21600.
(PID.TID 0000.0001)    Atmospheric specific humidity rep-cycle is            0.
(PID.TID 0000.0001)    Atmospheric specific humidity is read from file:
(PID.TID 0000.0001)    >> eccov4r4_spfh2m <<
(PID.TID 0000.0001)    assume "aqh" on model-grid (no interpolation)
(PID.TID 0000.0001) 
(PID.TID 0000.0001) // ALLOW_READ_TURBFLUXES:          NOT defined
(PID.TID 0000.0001) // EXF_READ_EVAP:                  NOT defined
(PID.TID 0000.0001) 
(PID.TID 0000.0001)    Precipitation data starts at                      10800.
(PID.TID 0000.0001)    Precipitation data period is                      21600.
(PID.TID 0000.0001)    Precipitation data repeat-cycle is                    0.
(PID.TID 0000.0001)    Precipitation data is read from file:
(PID.TID 0000.0001)    >> eccov4r4_rain <<
(PID.TID 0000.0001)    assume "precip" on model-grid (no interpolation)
(PID.TID 0000.0001) 
(PID.TID 0000.0001) // ALLOW_RUNOFF:                       defined
(PID.TID 0000.0001)    Runoff data period is                               -12.
(PID.TID 0000.0001)    Runoff data is read from file:
(PID.TID 0000.0001)    >> runoff-2d-Fekete-1deg-mon-V4-SMOOTH.bin <<
(PID.TID 0000.0001)    assume "runoff" on model-grid (no interpolation)
(PID.TID 0000.0001) 
(PID.TID 0000.0001) // ALLOW_RUNOFTEMP:                NOT defined
(PID.TID 0000.0001) // ALLOW_SALTFLX:                      defined
(PID.TID 0000.0001) 
(PID.TID 0000.0001)    Downward shortwave flux starts at                 10800.
(PID.TID 0000.0001)    Downward shortwave flux period is                 21600.
(PID.TID 0000.0001)    Downward shortwave flux repeat-cycle is               0.
(PID.TID 0000.0001)    Downward shortwave flux is read from file:
(PID.TID 0000.0001)    >> eccov4r4_dsw <<
(PID.TID 0000.0001)    assume "swdown" on model-grid (no interpolation)
(PID.TID 0000.0001) 
(PID.TID 0000.0001)    Downward longwave flux starts at                  10800.
(PID.TID 0000.0001)    Downward longwave flux period is                  21600.
(PID.TID 0000.0001)    Downward longwave flux repeat-cycle is                0.
(PID.TID 0000.0001)    Downward longwave flux is read from file:
(PID.TID 0000.0001)    >> eccov4r4_dlw <<
(PID.TID 0000.0001)    assume "lwdown" on model-grid (no interpolation)
(PID.TID 0000.0001) 
(PID.TID 0000.0001)    Atmospheric pressure forcing starts at            10800.
(PID.TID 0000.0001)    Atmospheric pressure forcing period is            21600.
(PID.TID 0000.0001)    Atmospheric pressure forcing rep-cycle is             0.
(PID.TID 0000.0001)    Atmospheric pressure forcing is read from file:
(PID.TID 0000.0001)    >> eccov4r4_pres <<
(PID.TID 0000.0001)    assume "apressure" on model-grid (no interpolation)
(PID.TID 0000.0001) 
(PID.TID 0000.0001) // =======================================================
(PID.TID 0000.0001) // External forcing (EXF) climatology configuration :
(PID.TID 0000.0001) // =======================================================
(PID.TID 0000.0001) 
(PID.TID 0000.0001) // ALLOW_CLIMSST_RELAXATION:           defined
(PID.TID 0000.0001)    climsst relaxation is NOT used
(PID.TID 0000.0001) 
(PID.TID 0000.0001) // ALLOW_CLIMSSS_RELAXATION:           defined
(PID.TID 0000.0001)    climsss relaxation is NOT used
(PID.TID 0000.0001) 
(PID.TID 0000.0001) // =======================================================
(PID.TID 0000.0001) // External forcing (EXF) configuration  >>> END <<<
(PID.TID 0000.0001) // =======================================================
(PID.TID 0000.0001) 
(PID.TID 0000.0001)  OPEN_COPY_DATA_FILE: opening file GRACE_jpl_rl05m_20180122_SpatialMean.asc
(PID.TID 0000.0001) // =======================================================
(PID.TID 0000.0001) // Parameter file "GRACE_jpl_rl05m_20180122_SpatialMean.asc"
(PID.TID 0000.0001) // =======================================================
(PID.TID 0000.0001) >  -999.0000
(PID.TID 0000.0001) >  -999.0000
(PID.TID 0000.0001) >  -999.0000
(PID.TID 0000.0001) >  -999.0000
(PID.TID 0000.0001) >  -999.0000
(PID.TID 0000.0001) >  -999.0000
(PID.TID 0000.0001) >  -999.0000
(PID.TID 0000.0001) >  -999.0000
(PID.TID 0000.0001) >  -999.0000
(PID.TID 0000.0001) >  -999.0000
(PID.TID 0000.0001) >  -999.0000
(PID.TID 0000.0001) >  -999.0000
(PID.TID 0000.0001) >  -999.0000
(PID.TID 0000.0001) >  -999.0000
(PID.TID 0000.0001) >  -999.0000
(PID.TID 0000.0001) >  -999.0000
(PID.TID 0000.0001) >  -999.0000
(PID.TID 0000.0001) >  -999.0000
(PID.TID 0000.0001) >  -999.0000
(PID.TID 0000.0001) >  -999.0000
(PID.TID 0000.0001) >  -999.0000
(PID.TID 0000.0001) >  -999.0000
(PID.TID 0000.0001) >  -999.0000
(PID.TID 0000.0001) >  -999.0000
(PID.TID 0000.0001) >  -999.0000
(PID.TID 0000.0001) >  -999.0000
(PID.TID 0000.0001) >  -999.0000
(PID.TID 0000.0001) >  -999.0000
(PID.TID 0000.0001) >  -999.0000
(PID.TID 0000.0001) >  -999.0000
(PID.TID 0000.0001) >  -999.0000
(PID.TID 0000.0001) >  -999.0000
(PID.TID 0000.0001) >  -999.0000
(PID.TID 0000.0001) >  -999.0000
(PID.TID 0000.0001) >  -999.0000
(PID.TID 0000.0001) >  -999.0000
(PID.TID 0000.0001) >  -999.0000
(PID.TID 0000.0001) >  -999.0000
(PID.TID 0000.0001) >  -999.0000
(PID.TID 0000.0001) >  -999.0000
(PID.TID 0000.0001) >  -999.0000
(PID.TID 0000.0001) >  -999.0000
(PID.TID 0000.0001) >  -999.0000
(PID.TID 0000.0001) >  -999.0000
(PID.TID 0000.0001) >  -999.0000
(PID.TID 0000.0001) >  -999.0000
(PID.TID 0000.0001) >  -999.0000
(PID.TID 0000.0001) >  -999.0000
(PID.TID 0000.0001) >  -999.0000
(PID.TID 0000.0001) >  -999.0000
(PID.TID 0000.0001) >  -999.0000
(PID.TID 0000.0001) >  -999.0000
(PID.TID 0000.0001) >  -999.0000
(PID.TID 0000.0001) >  -999.0000
(PID.TID 0000.0001) >  -999.0000
(PID.TID 0000.0001) >  -999.0000
(PID.TID 0000.0001) >  -999.0000
(PID.TID 0000.0001) >  -999.0000
(PID.TID 0000.0001) >  -999.0000
(PID.TID 0000.0001) >  -999.0000
(PID.TID 0000.0001) >  -999.0000
(PID.TID 0000.0001) >  -999.0000
(PID.TID 0000.0001) >  -999.0000
(PID.TID 0000.0001) >  -999.0000
(PID.TID 0000.0001) >  -999.0000
(PID.TID 0000.0001) >  -999.0000
(PID.TID 0000.0001) >  -999.0000
(PID.TID 0000.0001) >  -999.0000
(PID.TID 0000.0001) >  -999.0000
(PID.TID 0000.0001) >  -999.0000
(PID.TID 0000.0001) >  -999.0000
(PID.TID 0000.0001) >  -999.0000
(PID.TID 0000.0001) >  -999.0000
(PID.TID 0000.0001) >  -999.0000
(PID.TID 0000.0001) >  -999.0000
(PID.TID 0000.0001) >  -999.0000
(PID.TID 0000.0001) >  -999.0000
(PID.TID 0000.0001) >  -999.0000
(PID.TID 0000.0001) >  -999.0000
(PID.TID 0000.0001) >  -999.0000
(PID.TID 0000.0001) >  -999.0000
(PID.TID 0000.0001) >  -999.0000
(PID.TID 0000.0001) >  -999.0000
(PID.TID 0000.0001) >  -999.0000
(PID.TID 0000.0001) >  -999.0000
(PID.TID 0000.0001) >  -999.0000
(PID.TID 0000.0001) >  -999.0000
(PID.TID 0000.0001) >  -999.0000
(PID.TID 0000.0001) >  -999.0000
(PID.TID 0000.0001) >  -999.0000
(PID.TID 0000.0001) >  -999.0000
(PID.TID 0000.0001) >  -999.0000
(PID.TID 0000.0001) >  -999.0000
(PID.TID 0000.0001) >  -999.0000
(PID.TID 0000.0001) >  -999.0000
(PID.TID 0000.0001) >  -999.0000
(PID.TID 0000.0001) >  -999.0000
(PID.TID 0000.0001) >  -999.0000
(PID.TID 0000.0001) >  -999.0000
(PID.TID 0000.0001) >  -999.0000
(PID.TID 0000.0001) >  -999.0000
(PID.TID 0000.0001) >  -999.0000
(PID.TID 0000.0001) >  -999.0000
(PID.TID 0000.0001) >  -999.0000
(PID.TID 0000.0001) >  -999.0000
(PID.TID 0000.0001) >  -999.0000
(PID.TID 0000.0001) >  -999.0000
(PID.TID 0000.0001) >  -999.0000
(PID.TID 0000.0001) >  -999.0000
(PID.TID 0000.0001) >  -999.0000
(PID.TID 0000.0001) >  -999.0000
(PID.TID 0000.0001) >  -999.0000
(PID.TID 0000.0001) >  -999.0000
(PID.TID 0000.0001) >  -999.0000
(PID.TID 0000.0001) >  -999.0000
(PID.TID 0000.0001) >  -999.0000
(PID.TID 0000.0001) >  -999.0000
(PID.TID 0000.0001) >  -999.0000
(PID.TID 0000.0001) >  -999.0000
(PID.TID 0000.0001) >  -999.0000
(PID.TID 0000.0001) >  -999.0000
(PID.TID 0000.0001) >  -999.0000
(PID.TID 0000.0001) >  -999.0000
(PID.TID 0000.0001) >    -1.5388
(PID.TID 0000.0001) >  -999.0000
(PID.TID 0000.0001) >  -999.0000
(PID.TID 0000.0001) >  -999.0000
(PID.TID 0000.0001) >    -0.0248
(PID.TID 0000.0001) >     0.2932
(PID.TID 0000.0001) >     0.3102
(PID.TID 0000.0001) >     0.0922
(PID.TID 0000.0001) >    -0.0298
(PID.TID 0000.0001) >    -0.4188
(PID.TID 0000.0001) >    -0.6158
(PID.TID 0000.0001) >    -0.9188
(PID.TID 0000.0001) >    -0.9888
(PID.TID 0000.0001) >  -999.0000
(PID.TID 0000.0001) >  -999.0000
(PID.TID 0000.0001) >    -0.3688
(PID.TID 0000.0001) >     0.1912
(PID.TID 0000.0001) >     0.2652
(PID.TID 0000.0001) >     0.4822
(PID.TID 0000.0001) >     0.2602
(PID.TID 0000.0001) >    -0.0588
(PID.TID 0000.0001) >  -999.0000
(PID.TID 0000.0001) >    -0.7528
(PID.TID 0000.0001) >    -0.8628
(PID.TID 0000.0001) >    -1.3578
(PID.TID 0000.0001) >    -1.2408
(PID.TID 0000.0001) >    -0.6928
(PID.TID 0000.0001) >    -0.3358
(PID.TID 0000.0001) >     0.0592
(PID.TID 0000.0001) >     0.2422
(PID.TID 0000.0001) >     0.4852
(PID.TID 0000.0001) >     0.2622
(PID.TID 0000.0001) >    -0.0378
(PID.TID 0000.0001) >    -0.2518
(PID.TID 0000.0001) >    -0.6918
(PID.TID 0000.0001) >    -1.0148
(PID.TID 0000.0001) >    -1.1048
(PID.TID 0000.0001) >    -0.9988
(PID.TID 0000.0001) >    -0.4218
(PID.TID 0000.0001) >    -0.0018
(PID.TID 0000.0001) >     0.2812
(PID.TID 0000.0001) >     0.4302
(PID.TID 0000.0001) >     0.6062
(PID.TID 0000.0001) >     0.6752
(PID.TID 0000.0001) >     0.1732
(PID.TID 0000.0001) >    -0.1758
(PID.TID 0000.0001) >    -0.6118
(PID.TID 0000.0001) >    -1.0758
(PID.TID 0000.0001) >    -1.2518
(PID.TID 0000.0001) >    -0.9708
(PID.TID 0000.0001) >    -0.7618
(PID.TID 0000.0001) >     0.0952
(PID.TID 0000.0001) >     0.3142
(PID.TID 0000.0001) >     0.7172
(PID.TID 0000.0001) >     1.0472
(PID.TID 0000.0001) >     0.5252
(PID.TID 0000.0001) >     0.0522
(PID.TID 0000.0001) >    -0.3888
(PID.TID 0000.0001) >    -0.5848
(PID.TID 0000.0001) >    -0.8598
(PID.TID 0000.0001) >    -0.9228
(PID.TID 0000.0001) >    -0.8378
(PID.TID 0000.0001) >    -0.4348
(PID.TID 0000.0001) >     0.0402
(PID.TID 0000.0001) >     0.4342
(PID.TID 0000.0001) >     0.7352
(PID.TID 0000.0001) >     0.9632
(PID.TID 0000.0001) >     0.8602
(PID.TID 0000.0001) >     0.5092
(PID.TID 0000.0001) >     0.2892
(PID.TID 0000.0001) >    -0.2408
(PID.TID 0000.0001) >    -0.7448
(PID.TID 0000.0001) >    -0.8738
(PID.TID 0000.0001) >    -0.6528
(PID.TID 0000.0001) >    -0.2038
(PID.TID 0000.0001) >     0.3092
(PID.TID 0000.0001) >     0.5212
(PID.TID 0000.0001) >     0.7532
(PID.TID 0000.0001) >     1.0612
(PID.TID 0000.0001) >     0.9722
(PID.TID 0000.0001) >     0.6242
(PID.TID 0000.0001) >     0.1832
(PID.TID 0000.0001) >    -0.1248
(PID.TID 0000.0001) >    -0.5758
(PID.TID 0000.0001) >    -0.7968
(PID.TID 0000.0001) >    -0.5058
(PID.TID 0000.0001) >    -0.0158
(PID.TID 0000.0001) >     0.3082
(PID.TID 0000.0001) >     0.7482
(PID.TID 0000.0001) >     1.0622
(PID.TID 0000.0001) >     1.3502
(PID.TID 0000.0001) >     1.2482
(PID.TID 0000.0001) >     0.8732
(PID.TID 0000.0001) >     0.2372
(PID.TID 0000.0001) >     0.0282
(PID.TID 0000.0001) >    -0.1598
(PID.TID 0000.0001) >    -0.2458
(PID.TID 0000.0001) >    -0.2478
(PID.TID 0000.0001) >     0.2942
(PID.TID 0000.0001) >     0.7142
(PID.TID 0000.0001) >     1.0932
(PID.TID 0000.0001) >     1.4212
(PID.TID 0000.0001) >     1.4302
(PID.TID 0000.0001) >     1.3282
(PID.TID 0000.0001) >     0.7382
(PID.TID 0000.0001) >  -999.0000
(PID.TID 0000.0001) >    -0.0198
(PID.TID 0000.0001) >    -0.3278
(PID.TID 0000.0001) >    -0.6478
(PID.TID 0000.0001) >    -0.3818
(PID.TID 0000.0001) >  -999.0000
(PID.TID 0000.0001) >     0.7452
(PID.TID 0000.0001) >     1.1822
(PID.TID 0000.0001) >     1.4902
(PID.TID 0000.0001) >     1.5122
(PID.TID 0000.0001) >  -999.0000
(PID.TID 0000.0001) >  -999.0000
(PID.TID 0000.0001) >     0.8362
(PID.TID 0000.0001) >     0.5392
(PID.TID 0000.0001) >     0.0162
(PID.TID 0000.0001) >  -999.0000
(PID.TID 0000.0001) >  -999.0000
(PID.TID 0000.0001) >     0.8882
(PID.TID 0000.0001) >     1.3982
(PID.TID 0000.0001) >     1.7702
(PID.TID 0000.0001) >     1.8042
(PID.TID 0000.0001) >  -999.0000
(PID.TID 0000.0001) >     1.8312
(PID.TID 0000.0001) >     1.7052
(PID.TID 0000.0001) >     1.3232
(PID.TID 0000.0001) >     1.0082
(PID.TID 0000.0001) >  -999.0000
(PID.TID 0000.0001) >  -999.0000
(PID.TID 0000.0001) >     0.5862
(PID.TID 0000.0001) >     0.9022
(PID.TID 0000.0001) >     1.4452
(PID.TID 0000.0001) >  -999.0000
(PID.TID 0000.0001) >  -999.0000
(PID.TID 0000.0001) >     2.0492
(PID.TID 0000.0001) >     1.7562
(PID.TID 0000.0001) >     1.4922
(PID.TID 0000.0001) >  -999.0000
(PID.TID 0000.0001) >  -999.0000
(PID.TID 0000.0001) >     0.4932
(PID.TID 0000.0001) >     0.4712
(PID.TID 0000.0001) >     0.4242
(PID.TID 0000.0001) >     0.7852
(PID.TID 0000.0001) >  -999.0000
(PID.TID 0000.0001) >     1.8622
(PID.TID 0000.0001) >     2.1782
(PID.TID 0000.0001) >     2.2842
(PID.TID 0000.0001) >     1.9402
(PID.TID 0000.0001) >  -999.0000
(PID.TID 0000.0001) >  -999.0000
(PID.TID 0000.0001) >     1.2932
(PID.TID 0000.0001) >     1.1872
(PID.TID 0000.0001) >     0.8952
(PID.TID 0000.0001) >  -999.0000
(PID.TID 0000.0001) >  -999.0000
(PID.TID 0000.0001) >     1.8022
(PID.TID 0000.0001) >     2.5012
(PID.TID 0000.0001) >     2.8002
(PID.TID 0000.0001) >  -999.0000
(PID.TID 0000.0001) >  -999.0000
(PID.TID 0000.0001) >  -999.0000
(PID.TID 0000.0001) >     2.2922
(PID.TID 0000.0001) >     1.7692
(PID.TID 0000.0001) >     1.3192
(PID.TID 0000.0001) >  -999.0000
(PID.TID 0000.0001) >  -999.0000
(PID.TID 0000.0001) >     1.7062
(PID.TID 0000.0001) >     2.0142
(PID.TID 0000.0001) >  -999.0000
(PID.TID 0000.0001) >  -999.0000
(PID.TID 0000.0001) >  -999.0000
(PID.TID 0000.0001) >  -999.0000
(PID.TID 0000.0001) >  -999.0000
(PID.TID 0000.0001) >  -999.0000
(PID.TID 0000.0001) >  -999.0000
(PID.TID 0000.0001) >  -999.0000
(PID.TID 0000.0001) >  -999.0000
(PID.TID 0000.0001) >  -999.0000
(PID.TID 0000.0001) >  -999.0000
(PID.TID 0000.0001) >  -999.0000
(PID.TID 0000.0001) >  -999.0000
(PID.TID 0000.0001) >  -999.0000
(PID.TID 0000.0001) >  -999.0000
(PID.TID 0000.0001) >  -999.0000
(PID.TID 0000.0001) >  -999.0000
(PID.TID 0000.0001) 
(PID.TID 0000.0001)  OPEN_COPY_DATA_FILE: opening file 20180228_ensemble_average_gmsl_ref.asc
(PID.TID 0000.0001) // =======================================================
(PID.TID 0000.0001) // Parameter file "20180228_ensemble_average_gmsl_ref.asc"
(PID.TID 0000.0001) // =======================================================
(PID.TID 0000.0001) >     -999.00000000
(PID.TID 0000.0001) >     -999.00000000
(PID.TID 0000.0001) >     -999.00000000
(PID.TID 0000.0001) >     -999.00000000
(PID.TID 0000.0001) >     -999.00000000
(PID.TID 0000.0001) >     -999.00000000
(PID.TID 0000.0001) >     -999.00000000
(PID.TID 0000.0001) >     -999.00000000
(PID.TID 0000.0001) >     -999.00000000
(PID.TID 0000.0001) >     -999.00000000
(PID.TID 0000.0001) >     -999.00000000
(PID.TID 0000.0001) >     -999.00000000
(PID.TID 0000.0001) >       -0.04147270
(PID.TID 0000.0001) >       -0.04237865
(PID.TID 0000.0001) >       -0.04097288
(PID.TID 0000.0001) >       -0.04090154
(PID.TID 0000.0001) >       -0.04112925
(PID.TID 0000.0001) >       -0.04106228
(PID.TID 0000.0001) >       -0.03907203
(PID.TID 0000.0001) >       -0.03618315
(PID.TID 0000.0001) >       -0.03250311
(PID.TID 0000.0001) >       -0.02982531
(PID.TID 0000.0001) >       -0.03084511
(PID.TID 0000.0001) >       -0.03170664
(PID.TID 0000.0001) >       -0.03477146
(PID.TID 0000.0001) >       -0.03727155
(PID.TID 0000.0001) >       -0.03671943
(PID.TID 0000.0001) >       -0.03633736
(PID.TID 0000.0001) >       -0.03893056
(PID.TID 0000.0001) >       -0.03990498
(PID.TID 0000.0001) >       -0.03901100
(PID.TID 0000.0001) >       -0.03510541
(PID.TID 0000.0001) >       -0.03136623
(PID.TID 0000.0001) >       -0.02858639
(PID.TID 0000.0001) >       -0.02847964
(PID.TID 0000.0001) >       -0.03107087
(PID.TID 0000.0001) >       -0.03199374
(PID.TID 0000.0001) >       -0.03270754
(PID.TID 0000.0001) >       -0.03356637
(PID.TID 0000.0001) >       -0.03534618
(PID.TID 0000.0001) >       -0.03607659
(PID.TID 0000.0001) >       -0.03615414
(PID.TID 0000.0001) >       -0.03647404
(PID.TID 0000.0001) >       -0.03376810
(PID.TID 0000.0001) >       -0.02786484
(PID.TID 0000.0001) >       -0.02478499
(PID.TID 0000.0001) >       -0.02488398
(PID.TID 0000.0001) >       -0.02710032
(PID.TID 0000.0001) >       -0.03092830
(PID.TID 0000.0001) >       -0.03130595
(PID.TID 0000.0001) >       -0.03171272
(PID.TID 0000.0001) >       -0.03196083
(PID.TID 0000.0001) >       -0.03180755
(PID.TID 0000.0001) >       -0.03187516
(PID.TID 0000.0001) >       -0.02950634
(PID.TID 0000.0001) >       -0.02781836
(PID.TID 0000.0001) >       -0.02399761
(PID.TID 0000.0001) >       -0.01780496
(PID.TID 0000.0001) >       -0.01720086
(PID.TID 0000.0001) >       -0.02412198
(PID.TID 0000.0001) >       -0.02897271
(PID.TID 0000.0001) >       -0.03068367
(PID.TID 0000.0001) >       -0.03020304
(PID.TID 0000.0001) >       -0.03016213
(PID.TID 0000.0001) >       -0.02944090
(PID.TID 0000.0001) >       -0.02861399
(PID.TID 0000.0001) >       -0.02572239
(PID.TID 0000.0001) >       -0.02144631
(PID.TID 0000.0001) >       -0.01591145
(PID.TID 0000.0001) >       -0.01305523
(PID.TID 0000.0001) >       -0.01522997
(PID.TID 0000.0001) >       -0.01967341
(PID.TID 0000.0001) >       -0.02261823
(PID.TID 0000.0001) >       -0.02340964
(PID.TID 0000.0001) >       -0.02382727
(PID.TID 0000.0001) >       -0.02408131
(PID.TID 0000.0001) >       -0.02546367
(PID.TID 0000.0001) >       -0.02656347
(PID.TID 0000.0001) >       -0.02483889
(PID.TID 0000.0001) >       -0.02215362
(PID.TID 0000.0001) >       -0.01922804
(PID.TID 0000.0001) >       -0.01714474
(PID.TID 0000.0001) >       -0.01734868
(PID.TID 0000.0001) >       -0.01971341
(PID.TID 0000.0001) >       -0.02252271
(PID.TID 0000.0001) >       -0.02418757
(PID.TID 0000.0001) >       -0.02435222
(PID.TID 0000.0001) >       -0.02415182
(PID.TID 0000.0001) >       -0.02626419
(PID.TID 0000.0001) >       -0.02637114
(PID.TID 0000.0001) >       -0.02377816
(PID.TID 0000.0001) >       -0.02027127
(PID.TID 0000.0001) >       -0.01640096
(PID.TID 0000.0001) >       -0.01271858
(PID.TID 0000.0001) >       -0.01329467
(PID.TID 0000.0001) >       -0.01365981
(PID.TID 0000.0001) >       -0.01571355
(PID.TID 0000.0001) >       -0.01793811
(PID.TID 0000.0001) >       -0.01976830
(PID.TID 0000.0001) >       -0.02152092
(PID.TID 0000.0001) >       -0.02392259
(PID.TID 0000.0001) >       -0.02386643
(PID.TID 0000.0001) >       -0.02168764
(PID.TID 0000.0001) >       -0.01918088
(PID.TID 0000.0001) >       -0.01430814
(PID.TID 0000.0001) >       -0.00882649
(PID.TID 0000.0001) >       -0.00901079
(PID.TID 0000.0001) >       -0.01193851
(PID.TID 0000.0001) >       -0.01312020
(PID.TID 0000.0001) >       -0.01614753
(PID.TID 0000.0001) >       -0.01635597
(PID.TID 0000.0001) >       -0.01723824
(PID.TID 0000.0001) >       -0.01849779
(PID.TID 0000.0001) >       -0.01771708
(PID.TID 0000.0001) >       -0.01381826
(PID.TID 0000.0001) >       -0.01138890
(PID.TID 0000.0001) >       -0.00656355
(PID.TID 0000.0001) >       -0.00462256
(PID.TID 0000.0001) >       -0.00466037
(PID.TID 0000.0001) >       -0.00768062
(PID.TID 0000.0001) >       -0.00979272
(PID.TID 0000.0001) >       -0.01125056
(PID.TID 0000.0001) >       -0.01299094
(PID.TID 0000.0001) >       -0.01538250
(PID.TID 0000.0001) >       -0.01580836
(PID.TID 0000.0001) >       -0.01490598
(PID.TID 0000.0001) >       -0.01094319
(PID.TID 0000.0001) >       -0.00688015
(PID.TID 0000.0001) >       -0.00454752
(PID.TID 0000.0001) >       -0.00163842
(PID.TID 0000.0001) >       -0.00120365
(PID.TID 0000.0001) >       -0.00330943
(PID.TID 0000.0001) >       -0.00578805
(PID.TID 0000.0001) >       -0.00737440
(PID.TID 0000.0001) >       -0.00914734
(PID.TID 0000.0001) >       -0.01022173
(PID.TID 0000.0001) >       -0.01066046
(PID.TID 0000.0001) >       -0.01151595
(PID.TID 0000.0001) >       -0.01057154
(PID.TID 0000.0001) >       -0.00683359
(PID.TID 0000.0001) >       -0.00140351
(PID.TID 0000.0001) >        0.00162164
(PID.TID 0000.0001) >        0.00082399
(PID.TID 0000.0001) >       -0.00158270
(PID.TID 0000.0001) >       -0.00384391
(PID.TID 0000.0001) >       -0.00644552
(PID.TID 0000.0001) >       -0.00665305
(PID.TID 0000.0001) >       -0.00722688
(PID.TID 0000.0001) >       -0.00877996
(PID.TID 0000.0001) >       -0.00827943
(PID.TID 0000.0001) >       -0.00662335
(PID.TID 0000.0001) >       -0.00434757
(PID.TID 0000.0001) >        0.00020843
(PID.TID 0000.0001) >        0.00271393
(PID.TID 0000.0001) >        0.00216869
(PID.TID 0000.0001) >        0.00091488
(PID.TID 0000.0001) >       -0.00119615
(PID.TID 0000.0001) >       -0.00197838
(PID.TID 0000.0001) >       -0.00326923
(PID.TID 0000.0001) >       -0.00493475
(PID.TID 0000.0001) >       -0.00516213
(PID.TID 0000.0001) >       -0.00463033
(PID.TID 0000.0001) >       -0.00342823
(PID.TID 0000.0001) >       -0.00036215
(PID.TID 0000.0001) >        0.00391399
(PID.TID 0000.0001) >        0.00727962
(PID.TID 0000.0001) >        0.00883675
(PID.TID 0000.0001) >        0.00708760
(PID.TID 0000.0001) >        0.00283303
(PID.TID 0000.0001) >       -0.00005775
(PID.TID 0000.0001) >       -0.00201734
(PID.TID 0000.0001) >       -0.00310832
(PID.TID 0000.0001) >       -0.00310899
(PID.TID 0000.0001) >       -0.00178046
(PID.TID 0000.0001) >       -0.00008680
(PID.TID 0000.0001) >        0.00243197
(PID.TID 0000.0001) >        0.00773053
(PID.TID 0000.0001) >        0.01033648
(PID.TID 0000.0001) >        0.00946383
(PID.TID 0000.0001) >        0.00660276
(PID.TID 0000.0001) >        0.00310204
(PID.TID 0000.0001) >        0.00066316
(PID.TID 0000.0001) >        0.00007108
(PID.TID 0000.0001) >        0.00011690
(PID.TID 0000.0001) >       -0.00081483
(PID.TID 0000.0001) >       -0.00162525
(PID.TID 0000.0001) >       -0.00148614
(PID.TID 0000.0001) >        0.00107289
(PID.TID 0000.0001) >        0.00538297
(PID.TID 0000.0001) >        0.00895235
(PID.TID 0000.0001) >        0.01047932
(PID.TID 0000.0001) >        0.00847417
(PID.TID 0000.0001) >        0.00539799
(PID.TID 0000.0001) >        0.00282624
(PID.TID 0000.0001) >        0.00163986
(PID.TID 0000.0001) >        0.00115355
(PID.TID 0000.0001) >        0.00275862
(PID.TID 0000.0001) >        0.00403121
(PID.TID 0000.0001) >        0.00519214
(PID.TID 0000.0001) >        0.00672258
(PID.TID 0000.0001) >        0.01032091
(PID.TID 0000.0001) >        0.01359020
(PID.TID 0000.0001) >        0.01467404
(PID.TID 0000.0001) >        0.01329685
(PID.TID 0000.0001) >        0.01009228
(PID.TID 0000.0001) >        0.00700790
(PID.TID 0000.0001) >        0.00642086
(PID.TID 0000.0001) >        0.00654674
(PID.TID 0000.0001) >        0.00602162
(PID.TID 0000.0001) >        0.00576382
(PID.TID 0000.0001) >        0.00719312
(PID.TID 0000.0001) >        0.01090523
(PID.TID 0000.0001) >        0.01579733
(PID.TID 0000.0001) >        0.01968412
(PID.TID 0000.0001) >        0.02046005
(PID.TID 0000.0001) >        0.01851100
(PID.TID 0000.0001) >        0.01409794
(PID.TID 0000.0001) >        0.01097860
(PID.TID 0000.0001) >        0.01031540
(PID.TID 0000.0001) >        0.00939064
(PID.TID 0000.0001) >        0.00911685
(PID.TID 0000.0001) >        0.01082404
(PID.TID 0000.0001) >        0.01224243
(PID.TID 0000.0001) >        0.01307233
(PID.TID 0000.0001) >        0.01448105
(PID.TID 0000.0001) >        0.01717605
(PID.TID 0000.0001) >        0.01748673
(PID.TID 0000.0001) >        0.01507983
(PID.TID 0000.0001) >        0.01184131
(PID.TID 0000.0001) >        0.00883508
(PID.TID 0000.0001) >        0.00667820
(PID.TID 0000.0001) >        0.00504999
(PID.TID 0000.0001) >        0.00470485
(PID.TID 0000.0001) >        0.00680446
(PID.TID 0000.0001) >        0.00886402
(PID.TID 0000.0001) >        0.01262384
(PID.TID 0000.0001) >        0.01677563
(PID.TID 0000.0001) >        0.02019074
(PID.TID 0000.0001) >        0.02063724
(PID.TID 0000.0001) >        0.02072811
(PID.TID 0000.0001) >        0.01962652
(PID.TID 0000.0001) >        0.01794813
(PID.TID 0000.0001) >        0.01633759
(PID.TID 0000.0001) >        0.01537694
(PID.TID 0000.0001) >        0.01567859
(PID.TID 0000.0001) >        0.01708372
(PID.TID 0000.0001) >        0.02037311
(PID.TID 0000.0001) >        0.02358307
(PID.TID 0000.0001) >        0.02751593
(PID.TID 0000.0001) >        0.03070397
(PID.TID 0000.0001) >        0.03126814
(PID.TID 0000.0001) >        0.03010550
(PID.TID 0000.0001) >        0.02798674
(PID.TID 0000.0001) >        0.02573000
(PID.TID 0000.0001) >        0.02398622
(PID.TID 0000.0001) >        0.02249828
(PID.TID 0000.0001) >        0.02141529
(PID.TID 0000.0001) >        0.02050706
(PID.TID 0000.0001) >        0.02144277
(PID.TID 0000.0001) >        0.02360970
(PID.TID 0000.0001) >        0.02668396
(PID.TID 0000.0001) >        0.03046590
(PID.TID 0000.0001) >        0.03212708
(PID.TID 0000.0001) >        0.03004662
(PID.TID 0000.0001) >        0.02712121
(PID.TID 0000.0001) >        0.02558150
(PID.TID 0000.0001) >        0.02507455
(PID.TID 0000.0001) >        0.02376230
(PID.TID 0000.0001) >        0.02194285
(PID.TID 0000.0001) >        0.02281129
(PID.TID 0000.0001) >        0.02530421
(PID.TID 0000.0001) >        0.02879413
(PID.TID 0000.0001) >        0.03253911
(PID.TID 0000.0001) >        0.03567068
(PID.TID 0000.0001) >        0.03528119
(PID.TID 0000.0001) >        0.03429798
(PID.TID 0000.0001) >        0.03285426
(PID.TID 0000.0001) >        0.03319703
(PID.TID 0000.0001) >        0.03280700
(PID.TID 0000.0001) >        0.03246718
(PID.TID 0000.0001) >        0.03151321
(PID.TID 0000.0001) >        0.03237005
(PID.TID 0000.0001) >        0.03467840
(PID.TID 0000.0001) >        0.03887486
(PID.TID 0000.0001) >        0.04425615
(PID.TID 0000.0001) >        0.04831862
(PID.TID 0000.0001) >        0.04858530
(PID.TID 0000.0001) >        0.04574655
(PID.TID 0000.0001) >        0.04201343
(PID.TID 0000.0001) >        0.04048565
(PID.TID 0000.0001) >        0.03938458
(PID.TID 0000.0001) >        0.03799471
(PID.TID 0000.0001) >        0.03686806
(PID.TID 0000.0001) >        0.03792774
(PID.TID 0000.0001) >        0.03851224
(PID.TID 0000.0001) >        0.04011639
(PID.TID 0000.0001) >        0.04388373
(PID.TID 0000.0001) >        0.04632144
(PID.TID 0000.0001) >        0.04848074
(PID.TID 0000.0001) >        0.04656891
(PID.TID 0000.0001) >        0.04165369
(PID.TID 0000.0001) >        0.03791665
(PID.TID 0000.0001) >        0.03815636
(PID.TID 0000.0001) >        0.03871958
(PID.TID 0000.0001) >        0.03753415
(PID.TID 0000.0001) >        0.03729899
(PID.TID 0000.0001) >        0.04003057
(PID.TID 0000.0001) >        0.04457429
(PID.TID 0000.0001) >        0.04814349
(PID.TID 0000.0001) >        0.05030210
(PID.TID 0000.0001) >        0.05236099
(PID.TID 0000.0001) >        0.05185569
(PID.TID 0000.0001) 
(PID.TID 0000.0001) etaday defined by gencost  28
(PID.TID 0000.0001) 
(PID.TID 0000.0001) // =======================================================
(PID.TID 0000.0001) // ECCO configuration >>> START <<<
(PID.TID 0000.0001) // =======================================================
(PID.TID 0000.0001) 
(PID.TID 0000.0001) gencost( 1) = siv4-conc
(PID.TID 0000.0001) -------------
(PID.TID 0000.0001)  data file = NOAA_NSIDC_DAILY_v3b_MAPPED_TO_LLC90
(PID.TID 0000.0001)   starts and ends at :
(PID.TID 0000.0001)   19920101  130000  2   6
(PID.TID 0000.0001)   19930630  190000  1   6
(PID.TID 0000.0001)   number of records =   547
(PID.TID 0000.0001)  model file = m_gbar_area
(PID.TID 0000.0001)  error file = sigma_iceconc_eccollc_coastalmask_areascaled.bin
(PID.TID 0000.0001)  gencost_flag =  2
(PID.TID 0000.0001)  gencost_outputlevel =  1
(PID.TID 0000.0001) 
(PID.TID 0000.0001) gencost( 2) = siv4-deconc
(PID.TID 0000.0001) -------------
(PID.TID 0000.0001)  data file = NOAA_NSIDC_DAILY_v3b_MAPPED_TO_LLC90
(PID.TID 0000.0001)   starts and ends at :
(PID.TID 0000.0001)   19920101  130000  2   6
(PID.TID 0000.0001)   19930630  190000  1   6
(PID.TID 0000.0001)   number of records =   547
(PID.TID 0000.0001)  model file = m_gbar_deconc
(PID.TID 0000.0001)  error file = seaiceproxy_sigma_coastalmask_areascaled.bin
(PID.TID 0000.0001)  gencost_flag =  2
(PID.TID 0000.0001)  gencost_outputlevel =  1
(PID.TID 0000.0001) 
(PID.TID 0000.0001) gencost( 3) = siv4-exconc
(PID.TID 0000.0001) -------------
(PID.TID 0000.0001)  data file = NOAA_NSIDC_DAILY_v3b_MAPPED_TO_LLC90
(PID.TID 0000.0001)   starts and ends at :
(PID.TID 0000.0001)   19920101  130000  2   6
(PID.TID 0000.0001)   19930630  190000  1   6
(PID.TID 0000.0001)   number of records =   547
(PID.TID 0000.0001)  model file = m_gbar_exconc
(PID.TID 0000.0001)  error file = seaiceproxy_sigma_coastalmask_areascaled.bin
(PID.TID 0000.0001)  gencost_flag =  2
(PID.TID 0000.0001)  gencost_outputlevel =  1
(PID.TID 0000.0001) 
(PID.TID 0000.0001) gencost( 4) = sst-reynoldsmean
(PID.TID 0000.0001) -------------
(PID.TID 0000.0001)  data file = reynolds_oiv2_r1_mar2018_simasked
(PID.TID 0000.0001)   starts and ends at :
(PID.TID 0000.0001)   19920101  130000  2   6
(PID.TID 0000.0001)   19930630  190000  1   6
(PID.TID 0000.0001)   number of records =    18
(PID.TID 0000.0001)  model file = m_sstmon
(PID.TID 0000.0001)  error file = sigma_half_areascaled.bin
(PID.TID 0000.0001)  preprocess = mean
(PID.TID 0000.0001)  gencost_flag =  1
(PID.TID 0000.0001)  gencost_outputlevel =  1
(PID.TID 0000.0001) 
(PID.TID 0000.0001) gencost( 5) = sst-reynoldsanom
(PID.TID 0000.0001) -------------
(PID.TID 0000.0001)  data file = reynolds_oiv2_r1_mar2018_simasked
(PID.TID 0000.0001)   starts and ends at :
(PID.TID 0000.0001)   19920101  130000  2   6
(PID.TID 0000.0001)   19930630  190000  1   6
(PID.TID 0000.0001)   number of records =    18
(PID.TID 0000.0001)  model file = m_sstmon
(PID.TID 0000.0001)  error file = sigma_half_areascaled.bin
(PID.TID 0000.0001)  preprocess = anom
(PID.TID 0000.0001)  gencost_flag =  1
(PID.TID 0000.0001)  gencost_outputlevel =  1
(PID.TID 0000.0001)  skip barfile write =  T
(PID.TID 0000.0001) 
(PID.TID 0000.0001) gencost( 6) = bpv4-grace
(PID.TID 0000.0001) -------------
(PID.TID 0000.0001)  data file = GRACE_jpl_rl05m_20180122
(PID.TID 0000.0001)   starts and ends at :
(PID.TID 0000.0001)   19920101  130000  2   6
(PID.TID 0000.0001)   19930630  190000  1   6
(PID.TID 0000.0001)   number of records =    18
(PID.TID 0000.0001)  model file = m_bp_nopabarmon
(PID.TID 0000.0001)  error file = GRACE_jpl_rl05m_20180122_err_areascaled
(PID.TID 0000.0001)  gencost_flag = -1
(PID.TID 0000.0001)  gencost_outputlevel =  1
(PID.TID 0000.0001) 
(PID.TID 0000.0001) gencost( 7) = thetamean
(PID.TID 0000.0001) -------------
(PID.TID 0000.0001)  data file = T_monthly_woa09_highlatnearsurface_masked
(PID.TID 0000.0001)   starts and ends at :
(PID.TID 0000.0001)   19920101  130000  2   6
(PID.TID 0000.0001)   19930630  190000  1   6
(PID.TID 0000.0001)   number of records =    18
(PID.TID 0000.0001)  model file = m_thetamon
(PID.TID 0000.0001)  error file = Theta_sigma_smoothed_method_02_masked_merged_capped_areascaled.bin
(PID.TID 0000.0001)  preprocess = mean
(PID.TID 0000.0001)  gencost_flag =  1
(PID.TID 0000.0001)  gencost_outputlevel =  1
(PID.TID 0000.0001)  gencost_pointer3d =  1
(PID.TID 0000.0001) 
(PID.TID 0000.0001) gencost( 8) = saltmean
(PID.TID 0000.0001) -------------
(PID.TID 0000.0001)  data file = S_monthly_woa09_highlatnearsurface_masked
(PID.TID 0000.0001)   starts and ends at :
(PID.TID 0000.0001)   19920101  130000  2   6
(PID.TID 0000.0001)   19930630  190000  1   6
(PID.TID 0000.0001)   number of records =    18
(PID.TID 0000.0001)  model file = m_saltmon
(PID.TID 0000.0001)  error file = Salt_sigma_smoothed_method_02_masked_merged_capped_areascaled.bin
(PID.TID 0000.0001)  preprocess = mean
(PID.TID 0000.0001)  gencost_flag =  1
(PID.TID 0000.0001)  gencost_outputlevel =  1
(PID.TID 0000.0001)  gencost_pointer3d =  2
(PID.TID 0000.0001) 
(PID.TID 0000.0001) gencost(11) = sshv4-mdt
(PID.TID 0000.0001) -------------
(PID.TID 0000.0001)  data file = mdt2_dtu17.bin
(PID.TID 0000.0001)  model file =
(PID.TID 0000.0001)  error file = mdt_dtu13_error_m_areascaled.bin
(PID.TID 0000.0001)  posprocess = smooth
(PID.TID 0000.0001)  gencost_flag = -1
(PID.TID 0000.0001)  gencost_outputlevel =  1
(PID.TID 0000.0001)  skip barfile write =  T
(PID.TID 0000.0001) 
(PID.TID 0000.0001) gencost(12) = sshv4-tp
(PID.TID 0000.0001) -------------
(PID.TID 0000.0001)  data file = RADS_TJ_mar2018
(PID.TID 0000.0001)   starts and ends at :
(PID.TID 0000.0001)   19920101       0  2   6
(PID.TID 0000.0001)   19930630  190000  1   6
(PID.TID 0000.0001)   number of records =   547
(PID.TID 0000.0001)  model file = m_eta_dynday
(PID.TID 0000.0001)  error file = slaerr_gridscale_r5_areascaled.err
(PID.TID 0000.0001)  gencost_flag = -1
(PID.TID 0000.0001)  gencost_outputlevel =  1
(PID.TID 0000.0001) 
(PID.TID 0000.0001) gencost(13) = sshv4-ers
(PID.TID 0000.0001) -------------
(PID.TID 0000.0001)  data file = RADS_ERS_ENV_SA_mar2018
(PID.TID 0000.0001)   starts and ends at :
(PID.TID 0000.0001)   19920101       0  2   6
(PID.TID 0000.0001)   19930630  190000  1   6
(PID.TID 0000.0001)   number of records =   547
(PID.TID 0000.0001)  model file =
(PID.TID 0000.0001)  error file = slaerr_gridscale_r5_areascaled.err
(PID.TID 0000.0001)  gencost_flag = -1
(PID.TID 0000.0001)  gencost_outputlevel =  1
(PID.TID 0000.0001)  skip barfile write =  T
(PID.TID 0000.0001) 
(PID.TID 0000.0001) gencost(14) = sshv4-gfo
(PID.TID 0000.0001) -------------
(PID.TID 0000.0001)  data file = RADS_GFO_C2_mar2018
(PID.TID 0000.0001)   starts and ends at :
(PID.TID 0000.0001)   19920101       0  2   6
(PID.TID 0000.0001)   19930630  190000  1   6
(PID.TID 0000.0001)   number of records =   547
(PID.TID 0000.0001)  model file =
(PID.TID 0000.0001)  error file = slaerr_gridscale_r5_areascaled.err
(PID.TID 0000.0001)  gencost_flag = -1
(PID.TID 0000.0001)  gencost_outputlevel =  1
(PID.TID 0000.0001)  skip barfile write =  T
(PID.TID 0000.0001) 
(PID.TID 0000.0001) gencost(15) = sshv4-lsc
(PID.TID 0000.0001) -------------
(PID.TID 0000.0001)  model file =
(PID.TID 0000.0001)  error file = slaerr_largescale_r5_areascaled.err
(PID.TID 0000.0001)  posprocess = smooth
(PID.TID 0000.0001)  gencost_flag = -1
(PID.TID 0000.0001)  gencost_outputlevel =  1
(PID.TID 0000.0001)  skip barfile write =  T
(PID.TID 0000.0001) 
(PID.TID 0000.0001) gencost(17) = thetaanom
(PID.TID 0000.0001) -------------
(PID.TID 0000.0001)  data file = T_monthly_woa09_highlatnearsurface_masked
(PID.TID 0000.0001)   starts and ends at :
(PID.TID 0000.0001)   19920101  130000  2   6
(PID.TID 0000.0001)   19930630  190000  1   6
(PID.TID 0000.0001)   number of records =    18
(PID.TID 0000.0001)  model file = m_thetamon
(PID.TID 0000.0001)  error file = Theta_sigma_smoothed_method_02_masked_merged_capped_areascaled.bin
(PID.TID 0000.0001)  preprocess = clim
(PID.TID 0000.0001)  preprocess = anom
(PID.TID 0000.0001)  gencost_flag =  1
(PID.TID 0000.0001)  gencost_outputlevel =  1
(PID.TID 0000.0001)  gencost_pointer3d =  3
(PID.TID 0000.0001)  skip barfile write =  T
(PID.TID 0000.0001) 
(PID.TID 0000.0001) gencost(18) = saltanom
(PID.TID 0000.0001) -------------
(PID.TID 0000.0001)  data file = S_monthly_woa09_highlatnearsurface_masked
(PID.TID 0000.0001)   starts and ends at :
(PID.TID 0000.0001)   19920101  130000  2   6
(PID.TID 0000.0001)   19930630  190000  1   6
(PID.TID 0000.0001)   number of records =    18
(PID.TID 0000.0001)  model file = m_saltmon
(PID.TID 0000.0001)  error file = Salt_sigma_smoothed_method_02_masked_merged_capped_areascaled.bin
(PID.TID 0000.0001)  preprocess = clim
(PID.TID 0000.0001)  preprocess = anom
(PID.TID 0000.0001)  gencost_flag =  1
(PID.TID 0000.0001)  gencost_outputlevel =  1
(PID.TID 0000.0001)  gencost_pointer3d =  4
(PID.TID 0000.0001)  skip barfile write =  T
(PID.TID 0000.0001) 
(PID.TID 0000.0001) gencost(19) = sss_AQanom
(PID.TID 0000.0001) -------------
(PID.TID 0000.0001)  data file = monthlyL3v5_20180129
(PID.TID 0000.0001)   starts and ends at :
(PID.TID 0000.0001)   19920101  130000  2   6
(PID.TID 0000.0001)   19930630  190000  1   6
(PID.TID 0000.0001)   number of records =    18
(PID.TID 0000.0001)  model file = m_sssmon
(PID.TID 0000.0001)  error file = errStdAQ_v3_llc_090_floored_areascaled
(PID.TID 0000.0001)  preprocess = anom
(PID.TID 0000.0001)  gencost_flag =  1
(PID.TID 0000.0001)  gencost_outputlevel =  1
(PID.TID 0000.0001) 
(PID.TID 0000.0001) gencost(20) = sss_AQmean
(PID.TID 0000.0001) -------------
(PID.TID 0000.0001)  data file = monthlyL3v5_20180129
(PID.TID 0000.0001)   starts and ends at :
(PID.TID 0000.0001)   19920101  130000  2   6
(PID.TID 0000.0001)   19930630  190000  1   6
(PID.TID 0000.0001)   number of records =    18
(PID.TID 0000.0001)  model file = m_sssmon
(PID.TID 0000.0001)  error file = biasStdAQ_v3_llc_090_floored_areascaled
(PID.TID 0000.0001)  preprocess = mean
(PID.TID 0000.0001)  gencost_flag =  1
(PID.TID 0000.0001)  gencost_outputlevel =  1
(PID.TID 0000.0001)  skip barfile write =  T
(PID.TID 0000.0001) 
(PID.TID 0000.0001) gencost(21) = gmbp
(PID.TID 0000.0001) -------------
(PID.TID 0000.0001)  data file = GRACE_jpl_rl05m_20180122_SpatialMean.asc
(PID.TID 0000.0001)   starts and ends at :
(PID.TID 0000.0001)   19920101  130000  2   6
(PID.TID 0000.0001)   19930630  190000  1   6
(PID.TID 0000.0001)   number of records =    18
(PID.TID 0000.0001)  model file = m_bp_nopabarmon
(PID.TID 0000.0001)  error file =
(PID.TID 0000.0001)  gencost_flag =  1
(PID.TID 0000.0001)  gencost_outputlevel =  1
(PID.TID 0000.0001)  skip barfile write =  T
(PID.TID 0000.0001) 
(PID.TID 0000.0001) gencost(22) = gmsl
(PID.TID 0000.0001) -------------
(PID.TID 0000.0001)  data file = 20180228_ensemble_average_gmsl_ref.asc
(PID.TID 0000.0001)   starts and ends at :
(PID.TID 0000.0001)   19920101  130000  2   6
(PID.TID 0000.0001)   19930630  190000  1   6
(PID.TID 0000.0001)   number of records =    18
(PID.TID 0000.0001)  model file = m_eta_dynmon
(PID.TID 0000.0001)  error file =
(PID.TID 0000.0001)  gencost_flag =  1
(PID.TID 0000.0001)  gencost_outputlevel =  1
(PID.TID 0000.0001) 
(PID.TID 0000.0001) gencost(27) = RADS_TJ_mar2018
(PID.TID 0000.0001) -------------
(PID.TID 0000.0001)  data file = RADS_TJ_mar2018
(PID.TID 0000.0001)   starts and ends at :
(PID.TID 0000.0001)   19920101       0  2   6
(PID.TID 0000.0001)   19930630  190000  1   6
(PID.TID 0000.0001)   number of records =   547
(PID.TID 0000.0001)  model file = m_etaday
(PID.TID 0000.0001)  error file = slaerr_gridscale_r5_areascaled.err
(PID.TID 0000.0001)  gencost_flag =  1
(PID.TID 0000.0001)  gencost_outputlevel =  1
(PID.TID 0000.0001) 
(PID.TID 0000.0001) gencost(28) = 20180228_ensemble_average_gmsl_ref.asc
(PID.TID 0000.0001) -------------
(PID.TID 0000.0001)  data file = 20180228_ensemble_average_gmsl_ref.asc
(PID.TID 0000.0001)   starts and ends at :
(PID.TID 0000.0001)   19920101  130000  2   6
(PID.TID 0000.0001)   19930630  190000  1   6
(PID.TID 0000.0001)   number of records =    18
(PID.TID 0000.0001)  model file = m_etamon
(PID.TID 0000.0001)  error file =
(PID.TID 0000.0001)  gencost_flag =  1
(PID.TID 0000.0001)  gencost_outputlevel =  1
(PID.TID 0000.0001) 
(PID.TID 0000.0001) gencost(29) = GRACE_jpl_rl05m_20180122_SpatialMean.asc
(PID.TID 0000.0001) -------------
(PID.TID 0000.0001)  data file = GRACE_jpl_rl05m_20180122_SpatialMean.asc
(PID.TID 0000.0001)   starts and ends at :
(PID.TID 0000.0001)   19920101  130000  2   6
(PID.TID 0000.0001)   19930630  190000  1   6
(PID.TID 0000.0001)   number of records =    18
(PID.TID 0000.0001)  model file = m_bpmon
(PID.TID 0000.0001)  error file =
(PID.TID 0000.0001)  gencost_flag =  1
(PID.TID 0000.0001)  gencost_outputlevel =  1
(PID.TID 0000.0001) 
(PID.TID 0000.0001) gencost(30) = GRACE_fake_daily
(PID.TID 0000.0001) -------------
(PID.TID 0000.0001)  data file = GRACE_fake_daily
(PID.TID 0000.0001)   starts and ends at :
(PID.TID 0000.0001)   19920101  130000  2   6
(PID.TID 0000.0001)   19930630  190000  1   6
(PID.TID 0000.0001)   number of records =   547
(PID.TID 0000.0001)  model file = m_bpday
(PID.TID 0000.0001)  error file = GRACE_jpl_rl05m_20180122_err_areascaled
(PID.TID 0000.0001)  gencost_flag =  1
(PID.TID 0000.0001)  gencost_outputlevel =  1
(PID.TID 0000.0001) 
(PID.TID 0000.0001) gencost(31) = GRACE_fake_daily
(PID.TID 0000.0001) -------------
(PID.TID 0000.0001)  data file = GRACE_fake_daily
(PID.TID 0000.0001)   starts and ends at :
(PID.TID 0000.0001)   19920101  130000  2   6
(PID.TID 0000.0001)   19930630  190000  1   6
(PID.TID 0000.0001)   number of records =   547
(PID.TID 0000.0001)  model file = m_bp_nopabarday
(PID.TID 0000.0001)  error file = GRACE_jpl_rl05m_20180122_err_areascaled
(PID.TID 0000.0001)  gencost_flag =  1
(PID.TID 0000.0001)  gencost_outputlevel =  1
(PID.TID 0000.0001) 
(PID.TID 0000.0001) 
(PID.TID 0000.0001) 
(PID.TID 0000.0001) // =======================================================
(PID.TID 0000.0001) // ECCO configuration  >>> END <<<
(PID.TID 0000.0001) // =======================================================
(PID.TID 0000.0001) 
(PID.TID 0000.0001) 
(PID.TID 0000.0001) // =======================================================
(PID.TID 0000.0001) // insitu profiles model sampling >>> START <<<
(PID.TID 0000.0001) // =======================================================
(PID.TID 0000.0001) 
(PID.TID 0000.0001) 
(PID.TID 0000.0001)   profilesDir profiles/
(PID.TID 0000.0001)   profilesDoGenGrid      T
(PID.TID 0000.0001)   profilesDoNcOutput     F
(PID.TID 0000.0001) 
(PID.TID 0000.0001) 
(PID.TID 0000.0001) profiles file #  1 is ARGO_20190131_95to13
(PID.TID 0000.0001)   current tile is bi,bj                      =   1,   1
(PID.TID 0000.0001)   # of depth levels in file                  =       55
(PID.TID 0000.0001)   # of profiles in file                      =  1069993
(PID.TID 0000.0001)   # of profiles with erroneous HHMMSS values =        0
(PID.TID 0000.0001)   # of profiles within tile and time period  =        0
(PID.TID 0000.0001)   variable #  1 is            prof_T and theta
(PID.TID 0000.0001)   variable #  2 is            prof_S and salt
(PID.TID 0000.0001) 
(PID.TID 0000.0001) profiles file #  2 is ARGO_20190131_14to17
(PID.TID 0000.0001)   current tile is bi,bj                      =   1,   1
(PID.TID 0000.0001)   # of depth levels in file                  =       55
(PID.TID 0000.0001)   # of profiles in file                      =   616384
(PID.TID 0000.0001)   # of profiles with erroneous HHMMSS values =        0
(PID.TID 0000.0001)   # of profiles within tile and time period  =        0
(PID.TID 0000.0001)   variable #  1 is            prof_T and theta
(PID.TID 0000.0001)   variable #  2 is            prof_S and salt
(PID.TID 0000.0001) 
(PID.TID 0000.0001) profiles file #  3 is APB_20190131_97to04
(PID.TID 0000.0001)   current tile is bi,bj                      =   1,   1
(PID.TID 0000.0001)   # of depth levels in file                  =       55
(PID.TID 0000.0001)   # of profiles in file                      =    28422
(PID.TID 0000.0001)   # of profiles with erroneous HHMMSS values =        0
(PID.TID 0000.0001)   # of profiles within tile and time period  =        0
(PID.TID 0000.0001)   variable #  1 is            prof_T and theta
(PID.TID 0000.0001)   variable #  2 is            prof_S and salt
(PID.TID 0000.0001) 
(PID.TID 0000.0001) profiles file #  4 is CTD_20190131_92to05
(PID.TID 0000.0001)   current tile is bi,bj                      =   1,   1
(PID.TID 0000.0001)   # of depth levels in file                  =      102
(PID.TID 0000.0001)   # of profiles in file                      =   321615
(PID.TID 0000.0001)   # of profiles with erroneous HHMMSS values =        0
(PID.TID 0000.0001)   # of profiles within tile and time period  =        0
(PID.TID 0000.0001)   variable #  1 is            prof_T and theta
(PID.TID 0000.0001)   variable #  2 is            prof_S and salt
(PID.TID 0000.0001) 
(PID.TID 0000.0001) profiles file #  5 is GLD_20190131_02to11
(PID.TID 0000.0001)   current tile is bi,bj                      =   1,   1
(PID.TID 0000.0001)   # of depth levels in file                  =       98
(PID.TID 0000.0001)   # of profiles in file                      =    18190
(PID.TID 0000.0001)   # of profiles with erroneous HHMMSS values =        0
(PID.TID 0000.0001)   # of profiles within tile and time period  =        0
(PID.TID 0000.0001)   variable #  1 is            prof_T and theta
(PID.TID 0000.0001)   variable #  2 is            prof_S and salt
(PID.TID 0000.0001) 
(PID.TID 0000.0001) profiles file #  6 is GLD_20190131_12to13
(PID.TID 0000.0001)   current tile is bi,bj                      =   1,   1
(PID.TID 0000.0001)   # of depth levels in file                  =       98
(PID.TID 0000.0001)   # of profiles in file                      =     5507
(PID.TID 0000.0001)   # of profiles with erroneous HHMMSS values =        0
(PID.TID 0000.0001)   # of profiles within tile and time period  =        0
(PID.TID 0000.0001)   variable #  1 is            prof_T and theta
(PID.TID 0000.0001)   variable #  2 is            prof_S and salt
(PID.TID 0000.0001) 
(PID.TID 0000.0001) profiles file #  7 is GLD_20190131_14to15
(PID.TID 0000.0001)   current tile is bi,bj                      =   1,   1
(PID.TID 0000.0001)   # of depth levels in file                  =       98
(PID.TID 0000.0001)   # of profiles in file                      =    14876
(PID.TID 0000.0001)   # of profiles with erroneous HHMMSS values =        0
(PID.TID 0000.0001)   # of profiles within tile and time period  =        0
(PID.TID 0000.0001)   variable #  1 is            prof_T and theta
(PID.TID 0000.0001)   variable #  2 is            prof_S and salt
(PID.TID 0000.0001) 
(PID.TID 0000.0001) profiles file #  8 is MRB_20190131_92to03
(PID.TID 0000.0001)   current tile is bi,bj                      =   1,   1
(PID.TID 0000.0001)   # of depth levels in file                  =       42
(PID.TID 0000.0001)   # of profiles in file                      =   118013
(PID.TID 0000.0001)   # of profiles with erroneous HHMMSS values =        0
(PID.TID 0000.0001)   # of profiles within tile and time period  =        0
(PID.TID 0000.0001)   variable #  1 is            prof_T and theta
(PID.TID 0000.0001)   variable #  2 is            prof_S and salt
(PID.TID 0000.0001) 
(PID.TID 0000.0001) profiles file #  9 is MRB_20190131_04to04
(PID.TID 0000.0001)   current tile is bi,bj                      =   1,   1
(PID.TID 0000.0001)   # of depth levels in file                  =       42
(PID.TID 0000.0001)   # of profiles in file                      =    20634
(PID.TID 0000.0001)   # of profiles with erroneous HHMMSS values =        0
(PID.TID 0000.0001)   # of profiles within tile and time period  =        0
(PID.TID 0000.0001)   variable #  1 is            prof_T and theta
(PID.TID 0000.0001)   variable #  2 is            prof_S and salt
(PID.TID 0000.0001) 
(PID.TID 0000.0001) profiles file # 10 is XBT_20190131_92to05
(PID.TID 0000.0001)   current tile is bi,bj                      =   1,   1
(PID.TID 0000.0001)   # of depth levels in file                  =       77
(PID.TID 0000.0001)   # of profiles in file                      =   631537
(PID.TID 0000.0001)   # of profiles with erroneous HHMMSS values =        0
(PID.TID 0000.0001)   # of profiles within tile and time period  =        0
(PID.TID 0000.0001)   variable #  1 is            prof_T and theta
(PID.TID 0000.0001)   variable #  2 is            prof_S and salt
(PID.TID 0000.0001) 
(PID.TID 0000.0001) profiles file # 11 is XBT_20190131_06to17
(PID.TID 0000.0001)   current tile is bi,bj                      =   1,   1
(PID.TID 0000.0001)   # of depth levels in file                  =       77
(PID.TID 0000.0001)   # of profiles in file                      =   219966
(PID.TID 0000.0001)   # of profiles with erroneous HHMMSS values =        0
(PID.TID 0000.0001)   # of profiles within tile and time period  =        0
(PID.TID 0000.0001)   variable #  1 is            prof_T and theta
(PID.TID 0000.0001)   variable #  2 is            prof_S and salt
(PID.TID 0000.0001) 
(PID.TID 0000.0001) profiles file # 12 is ITP_20190131_04to13
(PID.TID 0000.0001)   current tile is bi,bj                      =   1,   1
(PID.TID 0000.0001)   # of depth levels in file                  =       61
(PID.TID 0000.0001)   # of profiles in file                      =    15843
(PID.TID 0000.0001)   # of profiles with erroneous HHMMSS values =        0
(PID.TID 0000.0001)   # of profiles within tile and time period  =        0
(PID.TID 0000.0001)   variable #  1 is            prof_T and theta
(PID.TID 0000.0001)   variable #  2 is            prof_S and salt
(PID.TID 0000.0001) 
(PID.TID 0000.0001) profiles file # 18 is GLD_20190131_16to17
(PID.TID 0000.0001)   current tile is bi,bj                      =   1,   1
(PID.TID 0000.0001)   # of depth levels in file                  =       98
(PID.TID 0000.0001)   # of profiles in file                      =    13165
(PID.TID 0000.0001)   # of profiles with erroneous HHMMSS values =        0
(PID.TID 0000.0001)   # of profiles within tile and time period  =        0
(PID.TID 0000.0001)   variable #  1 is            prof_T and theta
(PID.TID 0000.0001)   variable #  2 is            prof_S and salt
(PID.TID 0000.0001) 
(PID.TID 0000.0001) profiles file # 19 is GOSHIP_20190131_92to17
(PID.TID 0000.0001)   current tile is bi,bj                      =   1,   1
(PID.TID 0000.0001)   # of depth levels in file                  =       94
(PID.TID 0000.0001)   # of profiles in file                      =    26976
(PID.TID 0000.0001)   # of profiles with erroneous HHMMSS values =        0
(PID.TID 0000.0001)   # of profiles within tile and time period  =        0
(PID.TID 0000.0001)   variable #  1 is            prof_T and theta
(PID.TID 0000.0001)   variable #  2 is            prof_S and salt
(PID.TID 0000.0001) 
(PID.TID 0000.0001) profiles file # 20 is MRB_20190131_05to05
(PID.TID 0000.0001)   current tile is bi,bj                      =   1,   1
(PID.TID 0000.0001)   # of depth levels in file                  =       42
(PID.TID 0000.0001)   # of profiles in file                      =    22143
(PID.TID 0000.0001)   # of profiles with erroneous HHMMSS values =        0
(PID.TID 0000.0001)   # of profiles within tile and time period  =        0
(PID.TID 0000.0001)   variable #  1 is            prof_T and theta
(PID.TID 0000.0001)   variable #  2 is            prof_S and salt
(PID.TID 0000.0001) 
(PID.TID 0000.0001) profiles file # 21 is MRB_20190131_06to17
(PID.TID 0000.0001)   current tile is bi,bj                      =   1,   1
(PID.TID 0000.0001)   # of depth levels in file                  =       42
(PID.TID 0000.0001)   # of profiles in file                      =   332880
(PID.TID 0000.0001)   # of profiles with erroneous HHMMSS values =        0
(PID.TID 0000.0001)   # of profiles within tile and time period  =        0
(PID.TID 0000.0001)   variable #  1 is            prof_T and theta
(PID.TID 0000.0001)   variable #  2 is            prof_S and salt
(PID.TID 0000.0001) 
(PID.TID 0000.0001) profiles file # 22 is CTD_20190131_06to17
(PID.TID 0000.0001)   current tile is bi,bj                      =   1,   1
(PID.TID 0000.0001)   # of depth levels in file                  =      102
(PID.TID 0000.0001)   # of profiles in file                      =   239089
(PID.TID 0000.0001)   # of profiles with erroneous HHMMSS values =        0
(PID.TID 0000.0001)   # of profiles within tile and time period  =        0
(PID.TID 0000.0001)   variable #  1 is            prof_T and theta
(PID.TID 0000.0001)   variable #  2 is            prof_S and salt
(PID.TID 0000.0001) 
(PID.TID 0000.0001) profiles file # 23 is ITP_20190131_14to17
(PID.TID 0000.0001)   current tile is bi,bj                      =   1,   1
(PID.TID 0000.0001)   # of depth levels in file                  =       61
(PID.TID 0000.0001)   # of profiles in file                      =     6421
(PID.TID 0000.0001)   # of profiles with erroneous HHMMSS values =        0
(PID.TID 0000.0001)   # of profiles within tile and time period  =        0
(PID.TID 0000.0001)   variable #  1 is            prof_T and theta
(PID.TID 0000.0001)   variable #  2 is            prof_S and salt
(PID.TID 0000.0001) 
(PID.TID 0000.0001) profiles file # 24 is APB_20190131_05to05
(PID.TID 0000.0001)   current tile is bi,bj                      =   1,   1
(PID.TID 0000.0001)   # of depth levels in file                  =       55
(PID.TID 0000.0001)   # of profiles in file                      =    23163
(PID.TID 0000.0001)   # of profiles with erroneous HHMMSS values =        0
(PID.TID 0000.0001)   # of profiles within tile and time period  =        0
(PID.TID 0000.0001)   variable #  1 is            prof_T and theta
(PID.TID 0000.0001)   variable #  2 is            prof_S and salt
(PID.TID 0000.0001) 
(PID.TID 0000.0001) profiles file # 25 is APB_20190131_06to06
(PID.TID 0000.0001)   current tile is bi,bj                      =   1,   1
(PID.TID 0000.0001)   # of depth levels in file                  =       55
(PID.TID 0000.0001)   # of profiles in file                      =     8594
(PID.TID 0000.0001)   # of profiles with erroneous HHMMSS values =        0
(PID.TID 0000.0001)   # of profiles within tile and time period  =        0
(PID.TID 0000.0001)   variable #  1 is            prof_T and theta
(PID.TID 0000.0001)   variable #  2 is            prof_S and salt
(PID.TID 0000.0001) 
(PID.TID 0000.0001) profiles file # 26 is APB_20190131_07to07
(PID.TID 0000.0001)   current tile is bi,bj                      =   1,   1
(PID.TID 0000.0001)   # of depth levels in file                  =       55
(PID.TID 0000.0001)   # of profiles in file                      =    24983
(PID.TID 0000.0001)   # of profiles with erroneous HHMMSS values =        0
(PID.TID 0000.0001)   # of profiles within tile and time period  =        0
(PID.TID 0000.0001)   variable #  1 is            prof_T and theta
(PID.TID 0000.0001)   variable #  2 is            prof_S and salt
(PID.TID 0000.0001) 
(PID.TID 0000.0001) profiles file # 27 is APB_20190131_08to09
(PID.TID 0000.0001)   current tile is bi,bj                      =   1,   1
(PID.TID 0000.0001)   # of depth levels in file                  =       55
(PID.TID 0000.0001)   # of profiles in file                      =    81905
(PID.TID 0000.0001)   # of profiles with erroneous HHMMSS values =        0
(PID.TID 0000.0001)   # of profiles within tile and time period  =        0
(PID.TID 0000.0001)   variable #  1 is            prof_T and theta
(PID.TID 0000.0001)   variable #  2 is            prof_S and salt
(PID.TID 0000.0001) 
(PID.TID 0000.0001) profiles file # 28 is APB_20190131_10to17
(PID.TID 0000.0001)   current tile is bi,bj                      =   1,   1
(PID.TID 0000.0001)   # of depth levels in file                  =       55
(PID.TID 0000.0001)   # of profiles in file                      =   202245
(PID.TID 0000.0001)   # of profiles with erroneous HHMMSS values =        0
(PID.TID 0000.0001)   # of profiles within tile and time period  =        0
(PID.TID 0000.0001)   variable #  1 is            prof_T and theta
(PID.TID 0000.0001)   variable #  2 is            prof_S and salt
(PID.TID 0000.0001) 
(PID.TID 0000.0001) profiles file # 29 is CCHDO_20190131_92to17
(PID.TID 0000.0001)   current tile is bi,bj                      =   1,   1
(PID.TID 0000.0001)   # of depth levels in file                  =       94
(PID.TID 0000.0001)   # of profiles in file                      =    26976
(PID.TID 0000.0001)   # of profiles with erroneous HHMMSS values =        0
(PID.TID 0000.0001)   # of profiles within tile and time period  =        0
(PID.TID 0000.0001)   variable #  1 is            prof_T and theta
(PID.TID 0000.0001)   variable #  2 is            prof_S and salt
(PID.TID 0000.0001) NLEVELCOMB =    139
(PID.TID 0000.0001) 
(PID.TID 0000.0001) // =======================================================
(PID.TID 0000.0001) // insitu profiles model sampling >>> END <<<
(PID.TID 0000.0001) // =======================================================
(PID.TID 0000.0001) 
(PID.TID 0000.0001) // =======================================================
(PID.TID 0000.0001) // Seaice configuration (SEAICE_PARM01) >>> START <<<
(PID.TID 0000.0001) // =======================================================
(PID.TID 0000.0001) 
(PID.TID 0000.0001)    Seaice time stepping configuration   > START <
(PID.TID 0000.0001)    ----------------------------------------------
(PID.TID 0000.0001) SEAICE_deltaTtherm= /* thermodynamic timestep */
(PID.TID 0000.0001)                 3.600000000000000E+03
(PID.TID 0000.0001)     ;
(PID.TID 0000.0001) SEAICE_deltaTdyn  = /* dynamic timestep */
(PID.TID 0000.0001)                 3.600000000000000E+03
(PID.TID 0000.0001)     ;
(PID.TID 0000.0001) SEAICE_deltaTevp  = /* EVP timestep */
(PID.TID 0000.0001)                 1.234567000000000E+05
(PID.TID 0000.0001)     ;
(PID.TID 0000.0001) SEAICEuseBDF2  = /* use backw. differencing for mom. eq. */
(PID.TID 0000.0001)                   F
(PID.TID 0000.0001)     ;
(PID.TID 0000.0001) SEAICErestoreUnderIce  = /* restore T and S under ice */
(PID.TID 0000.0001)                   T
(PID.TID 0000.0001)     ;
(PID.TID 0000.0001) 
(PID.TID 0000.0001)    Seaice dynamics configuration   > START <
(PID.TID 0000.0001)    ------------------------------------------
(PID.TID 0000.0001) SEAICEuseDYNAMICS = /* use dynamics */
(PID.TID 0000.0001)                   T
(PID.TID 0000.0001)     ;
(PID.TID 0000.0001) model grid type   = /* type of sea ice model grid */
(PID.TID 0000.0001)               'C-GRID'
(PID.TID 0000.0001)     ;
(PID.TID 0000.0001) SEAICEuseStrImpCpl = /* use strongly implicit coupling */
(PID.TID 0000.0001)                   F
(PID.TID 0000.0001)     ;
(PID.TID 0000.0001) SEAICEusePicardAsPrecon = /* Picard as preconditioner */
(PID.TID 0000.0001)                   F
(PID.TID 0000.0001)     ;
(PID.TID 0000.0001) SEAICEuseLSR      = /* use default Picard-LSR solver */
(PID.TID 0000.0001)                   T
(PID.TID 0000.0001)     ;
(PID.TID 0000.0001) SEAICEuseKrylov   = /* use Picard-Krylov solver */
(PID.TID 0000.0001)                   F
(PID.TID 0000.0001)     ;
(PID.TID 0000.0001) SEAICEuseEVP      = /* use EVP solver rather than LSR */
(PID.TID 0000.0001)                   F
(PID.TID 0000.0001)     ;
(PID.TID 0000.0001) SEAICEuseJFNK     = /* use JFNK solver */
(PID.TID 0000.0001)                   F
(PID.TID 0000.0001)     ;
(PID.TID 0000.0001) SEAICEuseFREEDRIFT = /* use free drift solution */
(PID.TID 0000.0001)                   F
(PID.TID 0000.0001)     ;
(PID.TID 0000.0001) OCEAN_drag        = /* air-ocean drag coefficient */
(PID.TID 0000.0001)                 1.000000000000000E-03
(PID.TID 0000.0001)     ;
(PID.TID 0000.0001) SEAICE_drag       = /* air-ice drag coefficient */
(PID.TID 0000.0001)                 1.000000000000000E-03
(PID.TID 0000.0001)     ;
(PID.TID 0000.0001) SEAICE_drag_south      = /* Southern Ocean SEAICE_drag */
(PID.TID 0000.0001)                 1.000000000000000E-03
(PID.TID 0000.0001)     ;
(PID.TID 0000.0001) SEAICE_waterDrag  = /* water-ice drag * density */
(PID.TID 0000.0001)                 5.500000000000000E+00
(PID.TID 0000.0001)     ;
(PID.TID 0000.0001) SEAICE_waterDrag_south = /* Southern Ocean waterDrag */
(PID.TID 0000.0001)                 5.500000000000000E+00
(PID.TID 0000.0001)     ;
(PID.TID 0000.0001) SEAICEuseTilt     = /* include surface tilt in dyna. */
(PID.TID 0000.0001)                   F
(PID.TID 0000.0001)     ;
(PID.TID 0000.0001) SEAICEuseTEM      = /* use truncated ellipse rheology */
(PID.TID 0000.0001)                   F
(PID.TID 0000.0001)     ;
(PID.TID 0000.0001) SEAICE_strength   = /* sea-ice strength Pstar */
(PID.TID 0000.0001)                 2.250000000000000E+04
(PID.TID 0000.0001)     ;
(PID.TID 0000.0001) SEAICE_cStar      = /* sea-ice strength parameter cStar */
(PID.TID 0000.0001)                 2.000000000000000E+01
(PID.TID 0000.0001)     ;
(PID.TID 0000.0001) SEAICEpressReplFac= /* press. replacement method factor */
(PID.TID 0000.0001)                 1.000000000000000E+00
(PID.TID 0000.0001)     ;
(PID.TID 0000.0001) SEAICE_tensilFac  = /* sea-ice tensile strength factor */
(PID.TID 0000.0001)                 0.000000000000000E+00
(PID.TID 0000.0001)     ;
(PID.TID 0000.0001) SEAICE_tensilDepth= /* crit. depth for tensile strength */
(PID.TID 0000.0001)                 0.000000000000000E+00
(PID.TID 0000.0001)     ;
(PID.TID 0000.0001) SEAICEpresH0   = /* sea-ice strength Heff threshold */
(PID.TID 0000.0001)                 2.000000000000000E+00
(PID.TID 0000.0001)     ;
(PID.TID 0000.0001) SEAICEpresPow0 = /* exponent for Heff<SEAICEpresH0 */
(PID.TID 0000.0001)                       1
(PID.TID 0000.0001)     ;
(PID.TID 0000.0001) SEAICEpresPow1 = /* exponent for Heff>SEAICEpresH0 */
(PID.TID 0000.0001)                       1
(PID.TID 0000.0001)     ;
(PID.TID 0000.0001) SEAICEetaZmethod = /* method computing eta at Z-point */
(PID.TID 0000.0001)                       0
(PID.TID 0000.0001)     ;
(PID.TID 0000.0001) SEAICE_zetaMin    = /* lower bound for viscosity */
(PID.TID 0000.0001)                 0.000000000000000E+00
(PID.TID 0000.0001)     ;
(PID.TID 0000.0001) SEAICE_eccen    = /* elliptical yield curve eccent */
(PID.TID 0000.0001)                 2.000000000000000E+00
(PID.TID 0000.0001)     ;
(PID.TID 0000.0001) SEAICEstressFactor    = /* wind stress scaling factor */
(PID.TID 0000.0001)                 1.000000000000000E+00
(PID.TID 0000.0001)     ;
(PID.TID 0000.0001) SEAICE_airTurnAngle    = /* air-ice turning angle */
(PID.TID 0000.0001)                 0.000000000000000E+00
(PID.TID 0000.0001)     ;
(PID.TID 0000.0001) SEAICE_waterTurnAngle  = /* ice-water turning angle */
(PID.TID 0000.0001)                 0.000000000000000E+00
(PID.TID 0000.0001)     ;
(PID.TID 0000.0001) SEAICEuseMetricTerms = /* use metric terms */
(PID.TID 0000.0001)                   T
(PID.TID 0000.0001)     ;
(PID.TID 0000.0001) SEAICE_no_slip    = /* no slip boundary conditions */
(PID.TID 0000.0001)                   T
(PID.TID 0000.0001)     ;
(PID.TID 0000.0001) SEAICE_clipVeloctities = /* impose max. vels. */
(PID.TID 0000.0001)                   T
(PID.TID 0000.0001)     ;
(PID.TID 0000.0001) useHB87stressCoupling  = /* altern. ice-ocean stress */
(PID.TID 0000.0001)                   F
(PID.TID 0000.0001)     ;
(PID.TID 0000.0001) SEAICEscaleSurfStress  = /* scale atm. and ocean-surface stress with AREA */
(PID.TID 0000.0001)                   F
(PID.TID 0000.0001)     ;
(PID.TID 0000.0001) SEAICE_maskRHS    = /* mask RHS of solver */
(PID.TID 0000.0001)                   F
(PID.TID 0000.0001)     ;
(PID.TID 0000.0001) SEAICEaddSnowMass = /* add snow mass to seaiceMassC/U/V */
(PID.TID 0000.0001)                   F
(PID.TID 0000.0001)     ;
(PID.TID 0000.0001) LSR_mixIniGuess = /* mix free-drift sol. into LSR initial Guess */
(PID.TID 0000.0001)                       0
(PID.TID 0000.0001)     ;
(PID.TID 0000.0001) SEAICE_LSRrelaxU  = /* LSR solver: relaxation parameter */
(PID.TID 0000.0001)                 9.500000000000000E-01
(PID.TID 0000.0001)     ;
(PID.TID 0000.0001) SEAICE_LSRrelaxV  = /* LSR solver: relaxation parameter */
(PID.TID 0000.0001)                 9.500000000000000E-01
(PID.TID 0000.0001)     ;
(PID.TID 0000.0001) LSR_ERROR         = /* sets accuracy of LSR solver */
(PID.TID 0000.0001)                 2.000000000000000E-04
(PID.TID 0000.0001)     ;
(PID.TID 0000.0001) SOLV_NCHECK       = /* test interval for LSR solver */
(PID.TID 0000.0001)                       2
(PID.TID 0000.0001)     ;
(PID.TID 0000.0001) SEAICEuseMultiTileSolver = /* use full domain tri-diag solver */
(PID.TID 0000.0001)                   F
(PID.TID 0000.0001)     ;
(PID.TID 0000.0001) SEAICE_OLx = /* overlap for LSR/preconditioner */
(PID.TID 0000.0001)                       0
(PID.TID 0000.0001)     ;
(PID.TID 0000.0001) SEAICE_OLy = /* overlap for LSR/preconditioner */
(PID.TID 0000.0001)                       0
(PID.TID 0000.0001)     ;
(PID.TID 0000.0001) SEAICEnonLinIterMax = /* max. number of nonlinear solver steps */
(PID.TID 0000.0001)                       2
(PID.TID 0000.0001)     ;
(PID.TID 0000.0001) SEAICElinearIterMax = /* max. number of linear solver steps */
(PID.TID 0000.0001)                    1500
(PID.TID 0000.0001)     ;
(PID.TID 0000.0001) SEAICEnonLinTol     = /* non-linear solver tolerance */
(PID.TID 0000.0001)                 0.000000000000000E+00
(PID.TID 0000.0001)     ;
(PID.TID 0000.0001) 
(PID.TID 0000.0001)    Seaice advection diffusion config,   > START <
(PID.TID 0000.0001)    -----------------------------------------------
(PID.TID 0000.0001) SEAICEadvHeff = /* advect effective ice thickness */
(PID.TID 0000.0001)                   T
(PID.TID 0000.0001)     ;
(PID.TID 0000.0001) SEAICEadvArea = /* advect fractional ice area */
(PID.TID 0000.0001)                   T
(PID.TID 0000.0001)     ;
(PID.TID 0000.0001) SEAICEadvSnow = /* advect snow layer together with ice */
(PID.TID 0000.0001)                   T
(PID.TID 0000.0001)     ;
(PID.TID 0000.0001) SEAICEadvScheme   = /* advection scheme for ice */
(PID.TID 0000.0001)                      33
(PID.TID 0000.0001)     ;
(PID.TID 0000.0001) SEAICEadvSchArea   = /* advection scheme for area */
(PID.TID 0000.0001)                      33
(PID.TID 0000.0001)     ;
(PID.TID 0000.0001) SEAICEadvSchHeff   = /* advection scheme for thickness */
(PID.TID 0000.0001)                      33
(PID.TID 0000.0001)     ;
(PID.TID 0000.0001) SEAICEadvSchSnow   = /* advection scheme for snow */
(PID.TID 0000.0001)                      33
(PID.TID 0000.0001)     ;
(PID.TID 0000.0001) SEAICEdiffKhArea   = /* diffusivity (m^2/s) for area */
(PID.TID 0000.0001)                 4.000000000000000E+02
(PID.TID 0000.0001)     ;
(PID.TID 0000.0001) SEAICEdiffKhHeff   = /* diffusivity (m^2/s) for heff */
(PID.TID 0000.0001)                 4.000000000000000E+02
(PID.TID 0000.0001)     ;
(PID.TID 0000.0001) SEAICEdiffKhSnow   = /* diffusivity (m^2/s) for snow */
(PID.TID 0000.0001)                 4.000000000000000E+02
(PID.TID 0000.0001)     ;
(PID.TID 0000.0001) DIFF1             = /* parameter used in advect.F [m/s] */
(PID.TID 0000.0001)                 0.000000000000000E+00
(PID.TID 0000.0001)     ;
(PID.TID 0000.0001) 
(PID.TID 0000.0001)    Seaice thermodynamics configuration   > START <
(PID.TID 0000.0001)    -----------------------------------------------
(PID.TID 0000.0001) SEAICE_rhoIce     = /* density of sea ice (kg/m3) */
(PID.TID 0000.0001)                 9.100000000000000E+02
(PID.TID 0000.0001)     ;
(PID.TID 0000.0001) SEAICE_rhoSnow    = /* density of snow (kg/m3) */
(PID.TID 0000.0001)                 3.300000000000000E+02
(PID.TID 0000.0001)     ;
(PID.TID 0000.0001) SEAICE_rhoAir     = /* density of air (kg/m3) */
(PID.TID 0000.0001)                 1.200000000000000E+00
(PID.TID 0000.0001)     ;
(PID.TID 0000.0001) usePW79thermodynamics  = /* default 0-layer TD */
(PID.TID 0000.0001)                   T
(PID.TID 0000.0001)     ;
(PID.TID 0000.0001) SEAICE_lhEvap     = /* latent heat of evaporation */
(PID.TID 0000.0001)                 2.500000000000000E+06
(PID.TID 0000.0001)     ;
(PID.TID 0000.0001) SEAICE_lhFusion   = /* latent heat of fusion */
(PID.TID 0000.0001)                 3.340000000000000E+05
(PID.TID 0000.0001)     ;
(PID.TID 0000.0001) SEAICE_mcPheePiston = /* turbulent flux "piston velocity" a la McPhee (m/s) */
(PID.TID 0000.0001)                 3.858024691358025E-05
(PID.TID 0000.0001)     ;
(PID.TID 0000.0001) SEAICE_mcPheeTaper = /* tapering of turbulent flux (0.< <1.) for AREA=1. */
(PID.TID 0000.0001)                 0.000000000000000E+00
(PID.TID 0000.0001)     ;
(PID.TID 0000.0001) SEAICE_mcPheeStepFunc = /* replace linear tapering with step funct. */
(PID.TID 0000.0001)                   F
(PID.TID 0000.0001)     ;
(PID.TID 0000.0001) SEAICE_frazilFrac = /* frazil (T<tempFrz) to seaice conversion rate (0.< <1.) */
(PID.TID 0000.0001)                 1.000000000000000E+00
(PID.TID 0000.0001)     ;
(PID.TID 0000.0001) SEAICE_tempFrz0   = /* freezing temp. of sea water (intercept) */
(PID.TID 0000.0001)                -1.960000000000000E+00
(PID.TID 0000.0001)     ;
(PID.TID 0000.0001) SEAICE_dTempFrz_dS= /* freezing temp. of sea water (slope) */
(PID.TID 0000.0001)                 0.000000000000000E+00
(PID.TID 0000.0001)     ;
(PID.TID 0000.0001) SEAICE_growMeltByConv  = /* grow,melt by vert. conv. */
(PID.TID 0000.0001)                   F
(PID.TID 0000.0001)     ;
(PID.TID 0000.0001) SEAICE_doOpenWaterGrowth = /* grow by open water */
(PID.TID 0000.0001)                   T
(PID.TID 0000.0001)     ;
(PID.TID 0000.0001) SEAICE_doOpenWaterMelt = /* melt by open water */
(PID.TID 0000.0001)                   F
(PID.TID 0000.0001)     ;
(PID.TID 0000.0001) SEAICE_areaGainFormula = /* ice cover gain formula (1,2)*/
(PID.TID 0000.0001)                       1
(PID.TID 0000.0001)     1=from growth by ATM
(PID.TID 0000.0001)     2=from predicted growth by ATM
(PID.TID 0000.0001)     ;
(PID.TID 0000.0001) SEAICE_areaLossFormula = /* ice cover loss formula (1,2)*/
(PID.TID 0000.0001)                       2
(PID.TID 0000.0001)     1=from all but only melt conributions by ATM and OCN
(PID.TID 0000.0001)     2=from net melt-grow>0 by ATM and OCN
(PID.TID 0000.0001)     3=from predicted melt by ATM
(PID.TID 0000.0001)     ;
(PID.TID 0000.0001) HO                = /* nominal thickness of new ice */
(PID.TID 0000.0001)                 5.000000000000000E-01
(PID.TID 0000.0001)     ;
(PID.TID 0000.0001) HO_south               = /* Southern Ocean HO */
(PID.TID 0000.0001)                 5.000000000000000E-01
(PID.TID 0000.0001)     ;
(PID.TID 0000.0001) SEAICE_area_max        = /* set to les than 1. to mimic open leads */
(PID.TID 0000.0001)                 9.700000000000000E-01
(PID.TID 0000.0001)     ;
(PID.TID 0000.0001) SEAICE_salt0   = /* constant sea ice salinity */
(PID.TID 0000.0001)                 4.000000000000000E+00
(PID.TID 0000.0001)     ;
(PID.TID 0000.0001) SEAICE_salinityTracer = /* test SITR varia. salinity */
(PID.TID 0000.0001)                   F
(PID.TID 0000.0001)     ;
(PID.TID 0000.0001) SEAICEuseFlooding = /* turn submerged snow into ice */
(PID.TID 0000.0001)                   T
(PID.TID 0000.0001)     ;
(PID.TID 0000.0001) 
(PID.TID 0000.0001)    Seaice air-sea fluxes configuration,   > START <
(PID.TID 0000.0001)    -----------------------------------------------
(PID.TID 0000.0001) SEAICEheatConsFix  = /* accound for ocn<->seaice advect. heat flux */
(PID.TID 0000.0001)                   T
(PID.TID 0000.0001)     ;
(PID.TID 0000.0001) SEAICE_multDim    = /* number of ice categories (1 or 7) */
(PID.TID 0000.0001)                       1
(PID.TID 0000.0001)     ;
(PID.TID 0000.0001) SEAICE_PDF        = /* sea-ice distribution (-) */
(PID.TID 0000.0001)                 1.000000000000000E+00,      /* K =  1 */
(PID.TID 0000.0001)     6 @  0.000000000000000E+00              /* K =  2:  7 */
(PID.TID 0000.0001)     ;
(PID.TID 0000.0001) IMAX_TICE         = /* iterations for ice surface temp */
(PID.TID 0000.0001)                      10
(PID.TID 0000.0001)     ;
(PID.TID 0000.0001) postSolvTempIter= /* flux calculation after surf. temp iter */
(PID.TID 0000.0001)                       2
(PID.TID 0000.0001)     ;
(PID.TID 0000.0001) SEAICE_dryIceAlb  = /* winter albedo */
(PID.TID 0000.0001)                 8.400000000000000E-01
(PID.TID 0000.0001)     ;
(PID.TID 0000.0001) SEAICE_wetIceAlb  = /* summer albedo */
(PID.TID 0000.0001)                 7.800000000000000E-01
(PID.TID 0000.0001)     ;
(PID.TID 0000.0001) SEAICE_drySnowAlb = /* dry snow albedo */
(PID.TID 0000.0001)                 9.000000000000000E-01
(PID.TID 0000.0001)     ;
(PID.TID 0000.0001) SEAICE_wetSnowAlb = /* wet snow albedo */
(PID.TID 0000.0001)                 8.000000000000000E-01
(PID.TID 0000.0001)     ;
(PID.TID 0000.0001) SEAICE_dryIceAlb_south = /* Southern Ocean dryIceAlb */
(PID.TID 0000.0001)                 7.500000000000000E-01
(PID.TID 0000.0001)     ;
(PID.TID 0000.0001) SEAICE_wetIceAlb_south = /* Southern Ocean wetIceAlb */
(PID.TID 0000.0001)                 6.600000000000000E-01
(PID.TID 0000.0001)     ;
(PID.TID 0000.0001) SEAICE_drySnowAlb_south= /* Southern Ocean drySnowAlb */
(PID.TID 0000.0001)                 8.400000000000000E-01
(PID.TID 0000.0001)     ;
(PID.TID 0000.0001) SEAICE_wetSnowAlb_south= /* Southern Ocean wetSnowAlb */
(PID.TID 0000.0001)                 7.000000000000000E-01
(PID.TID 0000.0001)     ;
(PID.TID 0000.0001) SEAICE_wetAlbTemp= /* Temp (o.C) threshold for wet-albedo */
(PID.TID 0000.0001)                -1.000000000000000E-03
(PID.TID 0000.0001)     ;
(PID.TID 0000.0001) SEAICE_snow_emiss = /* snow emissivity */
(PID.TID 0000.0001)                 9.500000000000000E-01
(PID.TID 0000.0001)     ;
(PID.TID 0000.0001) SEAICE_ice_emiss = /* seaice emissivity */
(PID.TID 0000.0001)                 9.500000000000000E-01
(PID.TID 0000.0001)     ;
(PID.TID 0000.0001) SEAICE_cpAir      = /* heat capacity of air */
(PID.TID 0000.0001)                 1.005000000000000E+03
(PID.TID 0000.0001)     ;
(PID.TID 0000.0001) SEAICE_dalton     = /* constant dalton number */
(PID.TID 0000.0001)                 1.750000000000000E-03
(PID.TID 0000.0001)     ;
(PID.TID 0000.0001) SEAICE_iceConduct = /* sea-ice conductivity */
(PID.TID 0000.0001)                 2.165600000000000E+00
(PID.TID 0000.0001)     ;
(PID.TID 0000.0001) SEAICE_snowConduct= /* snow conductivity */
(PID.TID 0000.0001)                 3.100000000000000E-01
(PID.TID 0000.0001)     ;
(PID.TID 0000.0001) SEAICE_snowThick  = /* cutoff snow thickness (for albedo) */
(PID.TID 0000.0001)                 1.500000000000000E-01
(PID.TID 0000.0001)     ;
(PID.TID 0000.0001) SEAICE_shortwave  = /* penetration shortwave radiation */
(PID.TID 0000.0001)                 3.000000000000000E-01
(PID.TID 0000.0001)     ;
(PID.TID 0000.0001) useMaykutSatVapPoly = /* use Maykut Polynomial for Sat.Vap.Pr */
(PID.TID 0000.0001)                   F
(PID.TID 0000.0001)     ;
(PID.TID 0000.0001) MIN_ATEMP         = /* minimum air temperature */
(PID.TID 0000.0001)                -4.000000000000000E+01
(PID.TID 0000.0001)     ;
(PID.TID 0000.0001) MIN_LWDOWN        = /* minimum downward longwave */
(PID.TID 0000.0001)                 6.000000000000000E+01
(PID.TID 0000.0001)     ;
(PID.TID 0000.0001) MIN_TICE          = /* minimum ice temperature */
(PID.TID 0000.0001)                -4.000000000000000E+01
(PID.TID 0000.0001)     ;
(PID.TID 0000.0001) 
(PID.TID 0000.0001)    Seaice initialization and IO config.,   > START <
(PID.TID 0000.0001)    -------------------------------------------------
(PID.TID 0000.0001) SEAICE_initialHEFF= /* initial sea-ice thickness */
(PID.TID 0000.0001)                 0.000000000000000E+00
(PID.TID 0000.0001)     ;
(PID.TID 0000.0001) AreaFile = /* Initial ice concentration File */
(PID.TID 0000.0001)               ''
(PID.TID 0000.0001)     ;
(PID.TID 0000.0001) HeffFile = /* Initial effective ice thickness File */
(PID.TID 0000.0001)               ''
(PID.TID 0000.0001)     ;
(PID.TID 0000.0001) HsnowFile = /* Initial snow thickness File */
(PID.TID 0000.0001)               ''
(PID.TID 0000.0001)     ;
(PID.TID 0000.0001) uIceFile = /* Initial U-ice velocity File */
(PID.TID 0000.0001)               ''
(PID.TID 0000.0001)     ;
(PID.TID 0000.0001) vIceFile = /* Initial V-ice velocity File */
(PID.TID 0000.0001)               ''
(PID.TID 0000.0001)     ;
(PID.TID 0000.0001) SEAICEwriteState  = /* write sea ice state to file */
(PID.TID 0000.0001)                   F
(PID.TID 0000.0001)     ;
(PID.TID 0000.0001) SEAICE_monFreq  = /* monitor frequency */
(PID.TID 0000.0001)                 6.307200000000000E+06
(PID.TID 0000.0001)     ;
(PID.TID 0000.0001) SEAICE_dumpFreq   = /* dump frequency */
(PID.TID 0000.0001)                 0.000000000000000E+00
(PID.TID 0000.0001)     ;
(PID.TID 0000.0001) SEAICE_taveFreq   = /* time-averaging frequency */
(PID.TID 0000.0001)                 0.000000000000000E+00
(PID.TID 0000.0001)     ;
(PID.TID 0000.0001) SEAICE_mon_stdio  = /* write monitor to std-outp */
(PID.TID 0000.0001)                   T
(PID.TID 0000.0001)     ;
(PID.TID 0000.0001) SEAICE_dump_mdsio = /* write snap-shot   using MDSIO */
(PID.TID 0000.0001)                   T
(PID.TID 0000.0001)     ;
(PID.TID 0000.0001) SEAICE_tave_mdsio = /* write TimeAverage using MDSIO */
(PID.TID 0000.0001)                   T
(PID.TID 0000.0001)     ;
(PID.TID 0000.0001) 
(PID.TID 0000.0001)    Seaice regularization numbers,   > START <
(PID.TID 0000.0001)    -----------------------------------------------
(PID.TID 0000.0001) SEAICE_deltaMin   = /* reduce singularities in Delta */
(PID.TID 0000.0001)                 1.000000000000000E-10
(PID.TID 0000.0001)     ;
(PID.TID 0000.0001) SEAICE_EPS        = /* small number */
(PID.TID 0000.0001)                 1.000000000000000E-10
(PID.TID 0000.0001)     ;
(PID.TID 0000.0001) SEAICE_EPS_SQ     = /* small number squared */
(PID.TID 0000.0001)                 1.000000000000000E-20
(PID.TID 0000.0001)     ;
(PID.TID 0000.0001) SEAICE_area_reg   = /* reduce derivative singularities */
(PID.TID 0000.0001)                 1.000000000000000E-05
(PID.TID 0000.0001)     ;
(PID.TID 0000.0001) SEAICE_hice_reg   = /* reduce derivative singularities */
(PID.TID 0000.0001)                 5.000000000000000E-02
(PID.TID 0000.0001)     ;
(PID.TID 0000.0001) SEAICE_area_floor = /* reduce derivative singularities */
(PID.TID 0000.0001)                 1.000000000000000E-05
(PID.TID 0000.0001)     ;
(PID.TID 0000.0001) 
(PID.TID 0000.0001) // =======================================================
(PID.TID 0000.0001) // Seaice configuration (SEAICE_PARM01) >>> END <<<
(PID.TID 0000.0001) // =======================================================
(PID.TID 0000.0001) 
(PID.TID 0000.0001) ctrl-wet 1:    nvarlength =        60824
(PID.TID 0000.0001) ctrl-wet 2: surface wet C =          239
(PID.TID 0000.0001) ctrl-wet 3: surface wet W =          239
(PID.TID 0000.0001) ctrl-wet 4: surface wet S =          224
(PID.TID 0000.0001) ctrl-wet 4a:surface wet V =            0
(PID.TID 0000.0001) ctrl-wet 5: 3D wet points =         8655
(PID.TID 0000.0001) ctrl-wet 6: no recs for i =     1           0
(PID.TID 0000.0001) ctrl-wet 6: no recs for i =     2           0
(PID.TID 0000.0001) ctrl-wet 6: no recs for i =     3           0
(PID.TID 0000.0001) ctrl-wet 6: no recs for i =     4           0
(PID.TID 0000.0001) ctrl-wet 6: no recs for i =     5           0
(PID.TID 0000.0001) ctrl-wet 6: no recs for i =     6           0
(PID.TID 0000.0001) ctrl-wet 6: no recs for i =     7           0
(PID.TID 0000.0001) ctrl-wet 6: no recs for i =     8           0
(PID.TID 0000.0001) ctrl-wet 6: no recs for i =     9           0
(PID.TID 0000.0001) ctrl-wet 6: no recs for i =    10           0
(PID.TID 0000.0001) ctrl-wet 6: no recs for i =    11           0
(PID.TID 0000.0001) ctrl-wet 6: no recs for i =    12           0
(PID.TID 0000.0001) ctrl-wet 6: no recs for i =    13           0
(PID.TID 0000.0001) ctrl-wet 6: no recs for i =    14           0
(PID.TID 0000.0001) ctrl-wet 6: no recs for i =    15           0
(PID.TID 0000.0001) ctrl-wet 6: no recs for i =    16           0
(PID.TID 0000.0001) ctrl-wet 6: no recs for i =    17           0
(PID.TID 0000.0001) ctrl-wet 6: no recs for i =    18           0
(PID.TID 0000.0001) ctrl-wet 6: no recs for i =    19           0
(PID.TID 0000.0001) ctrl-wet 6: no recs for i =    20           0
(PID.TID 0000.0001) ctrl-wet 6: no recs for i =    21           0
(PID.TID 0000.0001) ctrl-wet 6: no recs for i =    22           0
(PID.TID 0000.0001) ctrl-wet 6: no recs for i =    23           0
(PID.TID 0000.0001) ctrl-wet 6: no recs for i =    24           0
(PID.TID 0000.0001) ctrl-wet 6: no recs for i =    25           0
(PID.TID 0000.0001) ctrl-wet 6: no recs for i =    26           0
(PID.TID 0000.0001) ctrl-wet 6: no recs for i =    27           0
(PID.TID 0000.0001) ctrl-wet 6: no recs for i =    28           0
(PID.TID 0000.0001) ctrl-wet 6: no recs for i =    29           0
(PID.TID 0000.0001) ctrl-wet 6: no recs for i =    30           0
(PID.TID 0000.0001) ctrl-wet 6: no recs for i =    31           0
(PID.TID 0000.0001) ctrl-wet 6: no recs for i =    32           0
(PID.TID 0000.0001) ctrl-wet 6: no recs for i =    33           0
(PID.TID 0000.0001) ctrl-wet 6: no recs for i =    34           0
(PID.TID 0000.0001) ctrl-wet 6: no recs for i =    35           0
(PID.TID 0000.0001) ctrl-wet 6: no recs for i =    36           0
(PID.TID 0000.0001) ctrl-wet 6: no recs for i =    37           0
(PID.TID 0000.0001) ctrl-wet 6: no recs for i =    38           0
(PID.TID 0000.0001) ctrl-wet 6: no recs for i =    39           0
(PID.TID 0000.0001) ctrl-wet 6: no recs for i =    40           0
(PID.TID 0000.0001) ctrl-wet 6: no recs for i =    41           0
(PID.TID 0000.0001) ctrl-wet 6: no recs for i =    42           0
(PID.TID 0000.0001) ctrl-wet 6: no recs for i =    43           0
(PID.TID 0000.0001) ctrl-wet 6: no recs for i =    44           0
(PID.TID 0000.0001) ctrl-wet 6: no recs for i =    45           0
(PID.TID 0000.0001) ctrl-wet 6: no recs for i =    46           0
(PID.TID 0000.0001) ctrl-wet 6: no recs for i =    47           0
(PID.TID 0000.0001) ctrl-wet 6: no recs for i =    48           0
(PID.TID 0000.0001) ctrl-wet 6: no recs for i =    49           0
(PID.TID 0000.0001) ctrl-wet 6: no recs for i =    50           0
(PID.TID 0000.0001) ctrl-wet 6: no recs for i =    51           0
(PID.TID 0000.0001) ctrl-wet 6: no recs for i =    52           0
(PID.TID 0000.0001) ctrl-wet 6: no recs for i =    53           0
(PID.TID 0000.0001) ctrl-wet 6: no recs for i =    54           0
(PID.TID 0000.0001) ctrl-wet 6: no recs for i =    55           0
(PID.TID 0000.0001) ctrl-wet 6: no recs for i =    56           0
(PID.TID 0000.0001) ctrl-wet 6: no recs for i =    57           0
(PID.TID 0000.0001) ctrl-wet 6: no recs for i =    58           0
(PID.TID 0000.0001) ctrl-wet 6: no recs for i =    59           0
(PID.TID 0000.0001) ctrl-wet 6: no recs for i =    60           0
(PID.TID 0000.0001) ctrl-wet 6: no recs for i =    61           0
(PID.TID 0000.0001) ctrl-wet 6: no recs for i =    62           0
(PID.TID 0000.0001) ctrl-wet 6: no recs for i =    63           0
(PID.TID 0000.0001) ctrl-wet 6: no recs for i =    64           0
(PID.TID 0000.0001) ctrl-wet 6: no recs for i =    65           0
(PID.TID 0000.0001) ctrl-wet 6: no recs for i =    66           0
(PID.TID 0000.0001) ctrl-wet 6: no recs for i =    67           0
(PID.TID 0000.0001) ctrl-wet 6: no recs for i =    68           0
(PID.TID 0000.0001) ctrl-wet 6: no recs for i =    69           0
(PID.TID 0000.0001) ctrl-wet 6: no recs for i =    70           0
(PID.TID 0000.0001) ctrl-wet 6: no recs for i =    71           0
(PID.TID 0000.0001) ctrl-wet 6: no recs for i =    72           0
(PID.TID 0000.0001) ctrl-wet 6: no recs for i =    73           0
(PID.TID 0000.0001) ctrl-wet 6: no recs for i =    74           0
(PID.TID 0000.0001) ctrl-wet 6: no recs for i =    75           0
(PID.TID 0000.0001) ctrl-wet 6: no recs for i =    76           0
(PID.TID 0000.0001) ctrl-wet 6: no recs for i =    77           0
(PID.TID 0000.0001) ctrl-wet 6: no recs for i =    78           0
(PID.TID 0000.0001) ctrl-wet 6: no recs for i =    79           0
(PID.TID 0000.0001) ctrl-wet 6: no recs for i =    80           0
(PID.TID 0000.0001) ctrl-wet 6: no recs for i =    81           0
(PID.TID 0000.0001) ctrl-wet 6: no recs for i =    82           0
(PID.TID 0000.0001) ctrl-wet 6: no recs for i =    83           0
(PID.TID 0000.0001) ctrl-wet 6: no recs for i =    84           0
(PID.TID 0000.0001) ctrl-wet 6: no recs for i =    85           0
(PID.TID 0000.0001) ctrl-wet 6: no recs for i =    86           0
(PID.TID 0000.0001) ctrl-wet 6: no recs for i =    87           0
(PID.TID 0000.0001) ctrl-wet 6: no recs for i =    88           0
(PID.TID 0000.0001) ctrl-wet 6: no recs for i =    89           0
(PID.TID 0000.0001) ctrl-wet 6: no recs for i =    90           0
(PID.TID 0000.0001) ctrl-wet 6: no recs for i =    91           0
(PID.TID 0000.0001) ctrl-wet 6: no recs for i =    92           0
(PID.TID 0000.0001) ctrl-wet 6: no recs for i =    93           0
(PID.TID 0000.0001) ctrl-wet 6: no recs for i =    94           0
(PID.TID 0000.0001) ctrl-wet 6: no recs for i =    95           0
(PID.TID 0000.0001) ctrl-wet 6: no recs for i =    96           0
(PID.TID 0000.0001) ctrl-wet 6: no recs for i =    97           0
(PID.TID 0000.0001) ctrl-wet 6: no recs for i =    98           0
(PID.TID 0000.0001) ctrl-wet 6: no recs for i =    99           0
(PID.TID 0000.0001) ctrl-wet 6: no recs for i =   100           0
(PID.TID 0000.0001) ctrl-wet 6: no recs for i =   101           1
(PID.TID 0000.0001) ctrl-wet 6: no recs for i =   102           0
(PID.TID 0000.0001) ctrl-wet 6: no recs for i =   103           0
(PID.TID 0000.0001) ctrl-wet 6: no recs for i =   104           0
(PID.TID 0000.0001) ctrl-wet 6: no recs for i =   105           0
(PID.TID 0000.0001) ctrl-wet 6: no recs for i =   106           0
(PID.TID 0000.0001) ctrl-wet 6: no recs for i =   107           0
(PID.TID 0000.0001) ctrl-wet 6: no recs for i =   108           0
(PID.TID 0000.0001) ctrl-wet 6: no recs for i =   109           0
(PID.TID 0000.0001) ctrl-wet 6: no recs for i =   110           0
(PID.TID 0000.0001) ctrl-wet 6: no recs for i =   111           0
(PID.TID 0000.0001) ctrl-wet 6: no recs for i =   112           0
(PID.TID 0000.0001) ctrl-wet 6: no recs for i =   113           0
(PID.TID 0000.0001) ctrl-wet 6: no recs for i =   114           0
(PID.TID 0000.0001) ctrl-wet 6: no recs for i =   115           0
(PID.TID 0000.0001) ctrl-wet 6: no recs for i =   116           0
(PID.TID 0000.0001) ctrl-wet 6: no recs for i =   117           0
(PID.TID 0000.0001) ctrl-wet 6: no recs for i =   118           0
(PID.TID 0000.0001) ctrl-wet 6: no recs for i =   119           0
(PID.TID 0000.0001) ctrl-wet 6: no recs for i =   120           0
(PID.TID 0000.0001) ctrl-wet 6: no recs for i =   121           0
(PID.TID 0000.0001) ctrl-wet 6: no recs for i =   122           0
(PID.TID 0000.0001) ctrl-wet 6: no recs for i =   123           0
(PID.TID 0000.0001) ctrl-wet 6: no recs for i =   124           0
(PID.TID 0000.0001) ctrl-wet 6: no recs for i =   125           0
(PID.TID 0000.0001) ctrl-wet 6: no recs for i =   126           0
(PID.TID 0000.0001) ctrl-wet 6: no recs for i =   127           0
(PID.TID 0000.0001) ctrl-wet 6: no recs for i =   128           0
(PID.TID 0000.0001) ctrl-wet 6: no recs for i =   129           0
(PID.TID 0000.0001) ctrl-wet 6: no recs for i =   130           0
(PID.TID 0000.0001) ctrl-wet 6: no recs for i =   131           0
(PID.TID 0000.0001) ctrl-wet 6: no recs for i =   132           0
(PID.TID 0000.0001) ctrl-wet 6: no recs for i =   133           0
(PID.TID 0000.0001) ctrl-wet 6: no recs for i =   134           0
(PID.TID 0000.0001) ctrl-wet 6: no recs for i =   135           0
(PID.TID 0000.0001) ctrl-wet 6: no recs for i =   136           0
(PID.TID 0000.0001) ctrl-wet 6: no recs for i =   137           0
(PID.TID 0000.0001) ctrl-wet 6: no recs for i =   138           0
(PID.TID 0000.0001) ctrl-wet 6: no recs for i =   139           0
(PID.TID 0000.0001) ctrl-wet 6: no recs for i =   140           0
(PID.TID 0000.0001) ctrl-wet 6: no recs for i =   141           0
(PID.TID 0000.0001) ctrl-wet 6: no recs for i =   142           0
(PID.TID 0000.0001) ctrl-wet 6: no recs for i =   143           0
(PID.TID 0000.0001) ctrl-wet 6: no recs for i =   144           0
(PID.TID 0000.0001) ctrl-wet 6: no recs for i =   145           0
(PID.TID 0000.0001) ctrl-wet 6: no recs for i =   146           0
(PID.TID 0000.0001) ctrl-wet 6: no recs for i =   147           0
(PID.TID 0000.0001) ctrl-wet 6: no recs for i =   148           0
(PID.TID 0000.0001) ctrl-wet 6: no recs for i =   149           0
(PID.TID 0000.0001) ctrl-wet 6: no recs for i =   150           0
(PID.TID 0000.0001) ctrl-wet 6: no recs for i =   151           0
(PID.TID 0000.0001) ctrl-wet 6: no recs for i =   152           0
(PID.TID 0000.0001) ctrl-wet 6: no recs for i =   153           0
(PID.TID 0000.0001) ctrl-wet 6: no recs for i =   154           0
(PID.TID 0000.0001) ctrl-wet 6: no recs for i =   155           0
(PID.TID 0000.0001) ctrl-wet 6: no recs for i =   156           0
(PID.TID 0000.0001) ctrl-wet 6: no recs for i =   157           0
(PID.TID 0000.0001) ctrl-wet 6: no recs for i =   158           0
(PID.TID 0000.0001) ctrl-wet 6: no recs for i =   159           0
(PID.TID 0000.0001) ctrl-wet 6: no recs for i =   160           0
(PID.TID 0000.0001) ctrl-wet 6: no recs for i =   161           0
(PID.TID 0000.0001) ctrl-wet 6: no recs for i =   162           0
(PID.TID 0000.0001) ctrl-wet 6: no recs for i =   163           0
(PID.TID 0000.0001) ctrl-wet 6: no recs for i =   164           0
(PID.TID 0000.0001) ctrl-wet 6: no recs for i =   165           0
(PID.TID 0000.0001) ctrl-wet 6: no recs for i =   166           0
(PID.TID 0000.0001) ctrl-wet 6: no recs for i =   167           0
(PID.TID 0000.0001) ctrl-wet 6: no recs for i =   168           0
(PID.TID 0000.0001) ctrl-wet 6: no recs for i =   169           0
(PID.TID 0000.0001) ctrl-wet 6: no recs for i =   170           0
(PID.TID 0000.0001) ctrl-wet 6: no recs for i =   171           0
(PID.TID 0000.0001) ctrl-wet 6: no recs for i =   172           0
(PID.TID 0000.0001) ctrl-wet 6: no recs for i =   173           0
(PID.TID 0000.0001) ctrl-wet 6: no recs for i =   174           0
(PID.TID 0000.0001) ctrl-wet 6: no recs for i =   175           0
(PID.TID 0000.0001) ctrl-wet 6: no recs for i =   176           0
(PID.TID 0000.0001) ctrl-wet 6: no recs for i =   177           0
(PID.TID 0000.0001) ctrl-wet 6: no recs for i =   178           0
(PID.TID 0000.0001) ctrl-wet 6: no recs for i =   179           0
(PID.TID 0000.0001) ctrl-wet 6: no recs for i =   180           0
(PID.TID 0000.0001) ctrl-wet 6: no recs for i =   181           0
(PID.TID 0000.0001) ctrl-wet 6: no recs for i =   182           0
(PID.TID 0000.0001) ctrl-wet 6: no recs for i =   183           0
(PID.TID 0000.0001) ctrl-wet 6: no recs for i =   184           0
(PID.TID 0000.0001) ctrl-wet 6: no recs for i =   185           0
(PID.TID 0000.0001) ctrl-wet 6: no recs for i =   186           0
(PID.TID 0000.0001) ctrl-wet 6: no recs for i =   187           0
(PID.TID 0000.0001) ctrl-wet 6: no recs for i =   188           0
(PID.TID 0000.0001) ctrl-wet 6: no recs for i =   189           0
(PID.TID 0000.0001) ctrl-wet 6: no recs for i =   190           0
(PID.TID 0000.0001) ctrl-wet 6: no recs for i =   191           0
(PID.TID 0000.0001) ctrl-wet 6: no recs for i =   192           0
(PID.TID 0000.0001) ctrl-wet 6: no recs for i =   193           0
(PID.TID 0000.0001) ctrl-wet 6: no recs for i =   194           0
(PID.TID 0000.0001) ctrl-wet 6: no recs for i =   195           0
(PID.TID 0000.0001) ctrl-wet 6: no recs for i =   196           0
(PID.TID 0000.0001) ctrl-wet 6: no recs for i =   197           0
(PID.TID 0000.0001) ctrl-wet 6: no recs for i =   198           0
(PID.TID 0000.0001) ctrl-wet 6: no recs for i =   199           0
(PID.TID 0000.0001) ctrl-wet 6: no recs for i =   200           0
(PID.TID 0000.0001) ctrl-wet 6: no recs for i =   201           1
(PID.TID 0000.0001) ctrl-wet 6: no recs for i =   202           1
(PID.TID 0000.0001) ctrl-wet 6: no recs for i =   203           1
(PID.TID 0000.0001) ctrl-wet 6: no recs for i =   204           1
(PID.TID 0000.0001) ctrl-wet 6: no recs for i =   205           1
(PID.TID 0000.0001) ctrl-wet 6: no recs for i =   206           1
(PID.TID 0000.0001) ctrl-wet 6: no recs for i =   207           1
(PID.TID 0000.0001) ctrl-wet 6: no recs for i =   208           0
(PID.TID 0000.0001) ctrl-wet 6: no recs for i =   209           0
(PID.TID 0000.0001) ctrl-wet 6: no recs for i =   210           0
(PID.TID 0000.0001) ctrl-wet 6: no recs for i =   211           0
(PID.TID 0000.0001) ctrl-wet 6: no recs for i =   212           0
(PID.TID 0000.0001) ctrl-wet 6: no recs for i =   213           0
(PID.TID 0000.0001) ctrl-wet 6: no recs for i =   214           0
(PID.TID 0000.0001) ctrl-wet 6: no recs for i =   215           0
(PID.TID 0000.0001) ctrl-wet 6: no recs for i =   216           0
(PID.TID 0000.0001) ctrl-wet 6: no recs for i =   217           0
(PID.TID 0000.0001) ctrl-wet 6: no recs for i =   218           0
(PID.TID 0000.0001) ctrl-wet 6: no recs for i =   219           0
(PID.TID 0000.0001) ctrl-wet 6: no recs for i =   220           0
(PID.TID 0000.0001) ctrl-wet 6: no recs for i =   221           0
(PID.TID 0000.0001) ctrl-wet 6: no recs for i =   222           0
(PID.TID 0000.0001) ctrl-wet 6: no recs for i =   223           0
(PID.TID 0000.0001) ctrl-wet 6: no recs for i =   224           0
(PID.TID 0000.0001) ctrl-wet 6: no recs for i =   225           0
(PID.TID 0000.0001) ctrl-wet 6: no recs for i =   226           0
(PID.TID 0000.0001) ctrl-wet 6: no recs for i =   227           0
(PID.TID 0000.0001) ctrl-wet 6: no recs for i =   228           0
(PID.TID 0000.0001) ctrl-wet 6: no recs for i =   229           0
(PID.TID 0000.0001) ctrl-wet 6: no recs for i =   230           0
(PID.TID 0000.0001) ctrl-wet 6: no recs for i =   231           0
(PID.TID 0000.0001) ctrl-wet 6: no recs for i =   232           0
(PID.TID 0000.0001) ctrl-wet 6: no recs for i =   233           0
(PID.TID 0000.0001) ctrl-wet 6: no recs for i =   234           0
(PID.TID 0000.0001) ctrl-wet 6: no recs for i =   235           0
(PID.TID 0000.0001) ctrl-wet 6: no recs for i =   236           0
(PID.TID 0000.0001) ctrl-wet 6: no recs for i =   237           0
(PID.TID 0000.0001) ctrl-wet 6: no recs for i =   238           0
(PID.TID 0000.0001) ctrl-wet 6: no recs for i =   239           0
(PID.TID 0000.0001) ctrl-wet 6: no recs for i =   240           0
(PID.TID 0000.0001) ctrl-wet 6: no recs for i =   241           0
(PID.TID 0000.0001) ctrl-wet 6: no recs for i =   242           0
(PID.TID 0000.0001) ctrl-wet 6: no recs for i =   243           0
(PID.TID 0000.0001) ctrl-wet 6: no recs for i =   244           0
(PID.TID 0000.0001) ctrl-wet 6: no recs for i =   245           0
(PID.TID 0000.0001) ctrl-wet 6: no recs for i =   246           0
(PID.TID 0000.0001) ctrl-wet 6: no recs for i =   247           0
(PID.TID 0000.0001) ctrl-wet 6: no recs for i =   248           0
(PID.TID 0000.0001) ctrl-wet 6: no recs for i =   249           0
(PID.TID 0000.0001) ctrl-wet 6: no recs for i =   250           0
(PID.TID 0000.0001) ctrl-wet 6: no recs for i =   251           0
(PID.TID 0000.0001) ctrl-wet 6: no recs for i =   252           0
(PID.TID 0000.0001) ctrl-wet 6: no recs for i =   253           0
(PID.TID 0000.0001) ctrl-wet 6: no recs for i =   254           0
(PID.TID 0000.0001) ctrl-wet 6: no recs for i =   255           0
(PID.TID 0000.0001) ctrl-wet 6: no recs for i =   256           0
(PID.TID 0000.0001) ctrl-wet 6: no recs for i =   257           0
(PID.TID 0000.0001) ctrl-wet 6: no recs for i =   258           0
(PID.TID 0000.0001) ctrl-wet 6: no recs for i =   259           0
(PID.TID 0000.0001) ctrl-wet 6: no recs for i =   260           0
(PID.TID 0000.0001) ctrl-wet 6: no recs for i =   261           0
(PID.TID 0000.0001) ctrl-wet 6: no recs for i =   262           0
(PID.TID 0000.0001) ctrl-wet 6: no recs for i =   263           0
(PID.TID 0000.0001) ctrl-wet 6: no recs for i =   264           0
(PID.TID 0000.0001) ctrl-wet 6: no recs for i =   265           0
(PID.TID 0000.0001) ctrl-wet 6: no recs for i =   266           0
(PID.TID 0000.0001) ctrl-wet 6: no recs for i =   267           0
(PID.TID 0000.0001) ctrl-wet 6: no recs for i =   268           0
(PID.TID 0000.0001) ctrl-wet 6: no recs for i =   269           0
(PID.TID 0000.0001) ctrl-wet 6: no recs for i =   270           0
(PID.TID 0000.0001) ctrl-wet 6: no recs for i =   271           0
(PID.TID 0000.0001) ctrl-wet 6: no recs for i =   272           0
(PID.TID 0000.0001) ctrl-wet 6: no recs for i =   273           0
(PID.TID 0000.0001) ctrl-wet 6: no recs for i =   274           0
(PID.TID 0000.0001) ctrl-wet 6: no recs for i =   275           0
(PID.TID 0000.0001) ctrl-wet 6: no recs for i =   276           0
(PID.TID 0000.0001) ctrl-wet 6: no recs for i =   277           0
(PID.TID 0000.0001) ctrl-wet 6: no recs for i =   278           0
(PID.TID 0000.0001) ctrl-wet 6: no recs for i =   279           0
(PID.TID 0000.0001) ctrl-wet 6: no recs for i =   280           0
(PID.TID 0000.0001) ctrl-wet 6: no recs for i =   281           0
(PID.TID 0000.0001) ctrl-wet 6: no recs for i =   282           0
(PID.TID 0000.0001) ctrl-wet 6: no recs for i =   283           0
(PID.TID 0000.0001) ctrl-wet 6: no recs for i =   284           0
(PID.TID 0000.0001) ctrl-wet 6: no recs for i =   285           0
(PID.TID 0000.0001) ctrl-wet 6: no recs for i =   286           0
(PID.TID 0000.0001) ctrl-wet 6: no recs for i =   287           0
(PID.TID 0000.0001) ctrl-wet 6: no recs for i =   288           0
(PID.TID 0000.0001) ctrl-wet 6: no recs for i =   289           0
(PID.TID 0000.0001) ctrl-wet 6: no recs for i =   290           0
(PID.TID 0000.0001) ctrl-wet 6: no recs for i =   291           0
(PID.TID 0000.0001) ctrl-wet 6: no recs for i =   292           0
(PID.TID 0000.0001) ctrl-wet 6: no recs for i =   293           0
(PID.TID 0000.0001) ctrl-wet 6: no recs for i =   294           0
(PID.TID 0000.0001) ctrl-wet 6: no recs for i =   295           0
(PID.TID 0000.0001) ctrl-wet 6: no recs for i =   296           0
(PID.TID 0000.0001) ctrl-wet 6: no recs for i =   297           0
(PID.TID 0000.0001) ctrl-wet 6: no recs for i =   298           0
(PID.TID 0000.0001) ctrl-wet 6: no recs for i =   299           0
(PID.TID 0000.0001) ctrl-wet 6: no recs for i =   300           0
(PID.TID 0000.0001) ctrl-wet 6: no recs for i =   301           0
(PID.TID 0000.0001) ctrl-wet 6: no recs for i =   302           0
(PID.TID 0000.0001) ctrl-wet 6: no recs for i =   303           0
(PID.TID 0000.0001) ctrl-wet 6: no recs for i =   304           0
(PID.TID 0000.0001) ctrl-wet 6: no recs for i =   305           0
(PID.TID 0000.0001) ctrl-wet 6: no recs for i =   306           0
(PID.TID 0000.0001) ctrl-wet 6: no recs for i =   307           0
(PID.TID 0000.0001) ctrl-wet 6: no recs for i =   308           0
(PID.TID 0000.0001) ctrl-wet 6: no recs for i =   309           0
(PID.TID 0000.0001) ctrl-wet 6: no recs for i =   310           0
(PID.TID 0000.0001) ctrl-wet 6: no recs for i =   311           0
(PID.TID 0000.0001) ctrl-wet 6: no recs for i =   312           0
(PID.TID 0000.0001) ctrl-wet 6: no recs for i =   313           0
(PID.TID 0000.0001) ctrl-wet 6: no recs for i =   314           0
(PID.TID 0000.0001) ctrl-wet 6: no recs for i =   315           0
(PID.TID 0000.0001) ctrl-wet 6: no recs for i =   316           0
(PID.TID 0000.0001) ctrl-wet 6: no recs for i =   317           0
(PID.TID 0000.0001) ctrl-wet 6: no recs for i =   318           0
(PID.TID 0000.0001) ctrl-wet 6: no recs for i =   319           0
(PID.TID 0000.0001) ctrl-wet 6: no recs for i =   320           0
(PID.TID 0000.0001) ctrl-wet 6: no recs for i =   321           0
(PID.TID 0000.0001) ctrl-wet 6: no recs for i =   322           0
(PID.TID 0000.0001) ctrl-wet 6: no recs for i =   323           0
(PID.TID 0000.0001) ctrl-wet 6: no recs for i =   324           0
(PID.TID 0000.0001) ctrl-wet 6: no recs for i =   325           0
(PID.TID 0000.0001) ctrl-wet 6: no recs for i =   326           0
(PID.TID 0000.0001) ctrl-wet 6: no recs for i =   327           0
(PID.TID 0000.0001) ctrl-wet 6: no recs for i =   328           0
(PID.TID 0000.0001) ctrl-wet 6: no recs for i =   329           0
(PID.TID 0000.0001) ctrl-wet 6: no recs for i =   330           0
(PID.TID 0000.0001) ctrl-wet 6: no recs for i =   331           0
(PID.TID 0000.0001) ctrl-wet 6: no recs for i =   332           0
(PID.TID 0000.0001) ctrl-wet 6: no recs for i =   333           0
(PID.TID 0000.0001) ctrl-wet 6: no recs for i =   334           0
(PID.TID 0000.0001) ctrl-wet 6: no recs for i =   335           0
(PID.TID 0000.0001) ctrl-wet 6: no recs for i =   336           0
(PID.TID 0000.0001) ctrl-wet 6: no recs for i =   337           0
(PID.TID 0000.0001) ctrl-wet 6: no recs for i =   338           0
(PID.TID 0000.0001) ctrl-wet 6: no recs for i =   339           0
(PID.TID 0000.0001) ctrl-wet 6: no recs for i =   340           0
(PID.TID 0000.0001) ctrl-wet 6: no recs for i =   341           0
(PID.TID 0000.0001) ctrl-wet 6: no recs for i =   342           0
(PID.TID 0000.0001) ctrl-wet 6: no recs for i =   343           0
(PID.TID 0000.0001) ctrl-wet 6: no recs for i =   344           0
(PID.TID 0000.0001) ctrl-wet 6: no recs for i =   345           0
(PID.TID 0000.0001) ctrl-wet 6: no recs for i =   346           0
(PID.TID 0000.0001) ctrl-wet 6: no recs for i =   347           0
(PID.TID 0000.0001) ctrl-wet 6: no recs for i =   348           0
(PID.TID 0000.0001) ctrl-wet 6: no recs for i =   349           0
(PID.TID 0000.0001) ctrl-wet 6: no recs for i =   350           0
(PID.TID 0000.0001) ctrl-wet 6: no recs for i =   351           0
(PID.TID 0000.0001) ctrl-wet 6: no recs for i =   352           0
(PID.TID 0000.0001) ctrl-wet 6: no recs for i =   353           0
(PID.TID 0000.0001) ctrl-wet 6: no recs for i =   354           0
(PID.TID 0000.0001) ctrl-wet 6: no recs for i =   355           0
(PID.TID 0000.0001) ctrl-wet 6: no recs for i =   356           0
(PID.TID 0000.0001) ctrl-wet 6: no recs for i =   357           0
(PID.TID 0000.0001) ctrl-wet 6: no recs for i =   358           0
(PID.TID 0000.0001) ctrl-wet 6: no recs for i =   359           0
(PID.TID 0000.0001) ctrl-wet 6: no recs for i =   360           0
(PID.TID 0000.0001) ctrl-wet 6: no recs for i =   361           0
(PID.TID 0000.0001) ctrl-wet 6: no recs for i =   362           0
(PID.TID 0000.0001) ctrl-wet 6: no recs for i =   363           0
(PID.TID 0000.0001) ctrl-wet 6: no recs for i =   364           0
(PID.TID 0000.0001) ctrl-wet 6: no recs for i =   365           0
(PID.TID 0000.0001) ctrl-wet 6: no recs for i =   366           0
(PID.TID 0000.0001) ctrl-wet 6: no recs for i =   367           0
(PID.TID 0000.0001) ctrl-wet 6: no recs for i =   368           0
(PID.TID 0000.0001) ctrl-wet 6: no recs for i =   369           0
(PID.TID 0000.0001) ctrl-wet 6: no recs for i =   370           0
(PID.TID 0000.0001) ctrl-wet 6: no recs for i =   371           0
(PID.TID 0000.0001) ctrl-wet 6: no recs for i =   372           0
(PID.TID 0000.0001) ctrl-wet 6: no recs for i =   373           0
(PID.TID 0000.0001) ctrl-wet 6: no recs for i =   374           0
(PID.TID 0000.0001) ctrl-wet 6: no recs for i =   375           0
(PID.TID 0000.0001) ctrl-wet 6: no recs for i =   376           0
(PID.TID 0000.0001) ctrl-wet 6: no recs for i =   377           0
(PID.TID 0000.0001) ctrl-wet 6: no recs for i =   378           0
(PID.TID 0000.0001) ctrl-wet 6: no recs for i =   379           0
(PID.TID 0000.0001) ctrl-wet 6: no recs for i =   380           0
(PID.TID 0000.0001) ctrl-wet 6: no recs for i =   381           0
(PID.TID 0000.0001) ctrl-wet 6: no recs for i =   382           0
(PID.TID 0000.0001) ctrl-wet 6: no recs for i =   383           0
(PID.TID 0000.0001) ctrl-wet 6: no recs for i =   384           0
(PID.TID 0000.0001) ctrl-wet 6: no recs for i =   385           0
(PID.TID 0000.0001) ctrl-wet 6: no recs for i =   386           0
(PID.TID 0000.0001) ctrl-wet 6: no recs for i =   387           0
(PID.TID 0000.0001) ctrl-wet 6: no recs for i =   388           0
(PID.TID 0000.0001) ctrl-wet 6: no recs for i =   389           0
(PID.TID 0000.0001) ctrl-wet 6: no recs for i =   390           0
(PID.TID 0000.0001) ctrl-wet 6: no recs for i =   391           0
(PID.TID 0000.0001) ctrl-wet 6: no recs for i =   392           0
(PID.TID 0000.0001) ctrl-wet 6: no recs for i =   393           0
(PID.TID 0000.0001) ctrl-wet 6: no recs for i =   394           0
(PID.TID 0000.0001) ctrl-wet 6: no recs for i =   395           0
(PID.TID 0000.0001) ctrl-wet 6: no recs for i =   396           0
(PID.TID 0000.0001) ctrl-wet 6: no recs for i =   397           0
(PID.TID 0000.0001) ctrl-wet 6: no recs for i =   398           0
(PID.TID 0000.0001) ctrl-wet 6: no recs for i =   399           0
(PID.TID 0000.0001) ctrl-wet 6: no recs for i =   400           0
(PID.TID 0000.0001) ctrl-wet 7: flux         17310
(PID.TID 0000.0001) ctrl-wet 8: atmos        17310
(PID.TID 0000.0001) ctrl-wet -------------------------------------------------
(PID.TID 0000.0001) ctrl-wet 13: global nvarlength for Nr =   50    16909590
(PID.TID 0000.0001) ctrl-wet -------------------------------------------------
(PID.TID 0000.0001) ctrl-wet 14: global nWet C/S/W/V k=    1       60646       59295       59493           0
(PID.TID 0000.0001) ctrl-wet 14: global nWet C/S/W/V k=    2       60646       59295       59493           0
(PID.TID 0000.0001) ctrl-wet 14: global nWet C/S/W/V k=    3       59874       58517       58725           0
(PID.TID 0000.0001) ctrl-wet 14: global nWet C/S/W/V k=    4       59387       58040       58258           0
(PID.TID 0000.0001) ctrl-wet 14: global nWet C/S/W/V k=    5       58882       57536       57754           0
(PID.TID 0000.0001) ctrl-wet 14: global nWet C/S/W/V k=    6       58399       57057       57276           0
(PID.TID 0000.0001) ctrl-wet 14: global nWet C/S/W/V k=    7       58052       56735       56936           0
(PID.TID 0000.0001) ctrl-wet 14: global nWet C/S/W/V k=    8       57781       56461       56669           0
(PID.TID 0000.0001) ctrl-wet 14: global nWet C/S/W/V k=    9       57530       56212       56416           0
(PID.TID 0000.0001) ctrl-wet 14: global nWet C/S/W/V k=   10       57283       55964       56154           0
(PID.TID 0000.0001) ctrl-wet 14: global nWet C/S/W/V k=   11       57022       55702       55883           0
(PID.TID 0000.0001) ctrl-wet 14: global nWet C/S/W/V k=   12       56818       55497       55681           0
(PID.TID 0000.0001) ctrl-wet 14: global nWet C/S/W/V k=   13       56634       55322       55509           0
(PID.TID 0000.0001) ctrl-wet 14: global nWet C/S/W/V k=   14       56430       55125       55312           0
(PID.TID 0000.0001) ctrl-wet 14: global nWet C/S/W/V k=   15       56238       54935       55117           0
(PID.TID 0000.0001) ctrl-wet 14: global nWet C/S/W/V k=   16       55975       54689       54858           0
(PID.TID 0000.0001) ctrl-wet 14: global nWet C/S/W/V k=   17       55703       54421       54600           0
(PID.TID 0000.0001) ctrl-wet 14: global nWet C/S/W/V k=   18       55358       54075       54251           0
(PID.TID 0000.0001) ctrl-wet 14: global nWet C/S/W/V k=   19       54964       53666       53853           0
(PID.TID 0000.0001) ctrl-wet 14: global nWet C/S/W/V k=   20       54471       53205       53372           0
(PID.TID 0000.0001) ctrl-wet 14: global nWet C/S/W/V k=   21       53952       52716       52877           0
(PID.TID 0000.0001) ctrl-wet 14: global nWet C/S/W/V k=   22       53489       52249       52409           0
(PID.TID 0000.0001) ctrl-wet 14: global nWet C/S/W/V k=   23       52892       51633       51797           0
(PID.TID 0000.0001) ctrl-wet 14: global nWet C/S/W/V k=   24       52223       50961       51129           0
(PID.TID 0000.0001) ctrl-wet 14: global nWet C/S/W/V k=   25       51696       50480       50635           0
(PID.TID 0000.0001) ctrl-wet 14: global nWet C/S/W/V k=   26       51259       50075       50241           0
(PID.TID 0000.0001) ctrl-wet 14: global nWet C/S/W/V k=   27       50929       49774       49935           0
(PID.TID 0000.0001) ctrl-wet 14: global nWet C/S/W/V k=   28       50664       49532       49678           0
(PID.TID 0000.0001) ctrl-wet 14: global nWet C/S/W/V k=   29       50438       49306       49450           0
(PID.TID 0000.0001) ctrl-wet 14: global nWet C/S/W/V k=   30       50187       49035       49179           0
(PID.TID 0000.0001) ctrl-wet 14: global nWet C/S/W/V k=   31       49964       48805       48937           0
(PID.TID 0000.0001) ctrl-wet 14: global nWet C/S/W/V k=   32       49700       48530       48662           0
(PID.TID 0000.0001) ctrl-wet 14: global nWet C/S/W/V k=   33       49431       48260       48383           0
(PID.TID 0000.0001) ctrl-wet 14: global nWet C/S/W/V k=   34       49176       47993       48108           0
(PID.TID 0000.0001) ctrl-wet 14: global nWet C/S/W/V k=   35       48854       47652       47764           0
(PID.TID 0000.0001) ctrl-wet 14: global nWet C/S/W/V k=   36       48501       47264       47375           0
(PID.TID 0000.0001) ctrl-wet 14: global nWet C/S/W/V k=   37       48098       46846       46951           0
(PID.TID 0000.0001) ctrl-wet 14: global nWet C/S/W/V k=   38       47523       46253       46362           0
(PID.TID 0000.0001) ctrl-wet 14: global nWet C/S/W/V k=   39       46849       45558       45657           0
(PID.TID 0000.0001) ctrl-wet 14: global nWet C/S/W/V k=   40       45984       44670       44751           0
(PID.TID 0000.0001) ctrl-wet 14: global nWet C/S/W/V k=   41       44793       43419       43459           0
(PID.TID 0000.0001) ctrl-wet 14: global nWet C/S/W/V k=   42       42984       41497       41533           0
(PID.TID 0000.0001) ctrl-wet 14: global nWet C/S/W/V k=   43       40302       38691       38718           0
(PID.TID 0000.0001) ctrl-wet 14: global nWet C/S/W/V k=   44       36689       35007       35032           0
(PID.TID 0000.0001) ctrl-wet 14: global nWet C/S/W/V k=   45       31681       30069       29999           0
(PID.TID 0000.0001) ctrl-wet 14: global nWet C/S/W/V k=   46       25595       24028       24031           0
(PID.TID 0000.0001) ctrl-wet 14: global nWet C/S/W/V k=   47       18224       16890       16872           0
(PID.TID 0000.0001) ctrl-wet 14: global nWet C/S/W/V k=   48       11407       10397       10351           0
(PID.TID 0000.0001) ctrl-wet 14: global nWet C/S/W/V k=   49        4597        3913        3912           0
(PID.TID 0000.0001) ctrl-wet 14: global nWet C/S/W/V k=   50         818         624         622           0
(PID.TID 0000.0001) ctrl-wet -------------------------------------------------
(PID.TID 0000.0001) ctrl-wet -------------------------------------------------
(PID.TID 0000.0001) ctrl-wet -------------------------------------------------
(PID.TID 0000.0001) ctrl_init: no. of control variables:            8
(PID.TID 0000.0001) ctrl_init: control vector length:        16909590
(PID.TID 0000.0001) 
(PID.TID 0000.0001) // =======================================================
(PID.TID 0000.0001) // control vector configuration  >>> START <<<
(PID.TID 0000.0001) // =======================================================
(PID.TID 0000.0001) 
(PID.TID 0000.0001)  Total number of ocean points per tile:
(PID.TID 0000.0001)  --------------------------------------
(PID.TID 0000.0001)  snx*sny*nr =    22500
(PID.TID 0000.0001) 
(PID.TID 0000.0001)  Number of ocean points per tile:
(PID.TID 0000.0001)  --------------------------------
(PID.TID 0000.0001)  bi,bj,#(c/s/w): 0001 0001 008655 007936 008585
(PID.TID 0000.0001) 
(PID.TID 0000.0001)  Settings of generic controls:
(PID.TID 0000.0001)  -----------------------------
(PID.TID 0000.0001) 
(PID.TID 0000.0001)  ctrlUseGen  =     T /* use generic controls */
(PID.TID 0000.0001)  -> 2D control, genarr2d no.  1 is in use
(PID.TID 0000.0001)       file       = xx_etan
(PID.TID 0000.0001)       weight     = SSH_weights_nonseasonal_rms_areascaled.bin
(PID.TID 0000.0001)  preprocess = WC01
(PID.TID 0000.0001)  -> 3d control, genarr3d no.  1 is in use
(PID.TID 0000.0001)       file       = xx_theta
(PID.TID 0000.0001)       weight     = Theta_weights_nonseasonal_rmsv2_areascaled.bin
(PID.TID 0000.0001)  preprocess = WC01
(PID.TID 0000.0001)  -> 3d control, genarr3d no.  2 is in use
(PID.TID 0000.0001)       file       = xx_salt
(PID.TID 0000.0001)       weight     = Salt_weights_nonseasonal_rmsv2_areascaled.bin
(PID.TID 0000.0001)  preprocess = WC01
(PID.TID 0000.0001)  -> 3d control, genarr3d no.  3 is in use
(PID.TID 0000.0001)       file       = xx_kapgm
(PID.TID 0000.0001)       weight     = r2.wkapgmFldv2.data
(PID.TID 0000.0001)  preprocess = WC01
(PID.TID 0000.0001)  -> 3d control, genarr3d no.  4 is in use
(PID.TID 0000.0001)       file       = xx_kapredi
(PID.TID 0000.0001)       weight     = r2.wkaprediFldv2.data
(PID.TID 0000.0001)  preprocess = WC01
(PID.TID 0000.0001)  -> 3d control, genarr3d no.  5 is in use
(PID.TID 0000.0001)       file       = xx_diffkr
(PID.TID 0000.0001)       weight     = r2.wdiffkrFldv2.data
(PID.TID 0000.0001)  preprocess = WC01
(PID.TID 0000.0001)  -> 3d control, genarr3d no.  6 is in use
(PID.TID 0000.0001)       file       = xx_uvel
(PID.TID 0000.0001)       weight     = Uvel_weights_nonseasonal_rmsv2_areascaled.bin
(PID.TID 0000.0001)  preprocess = WC01
(PID.TID 0000.0001)  -> 3d control, genarr3d no.  7 is in use
(PID.TID 0000.0001)       file       = xx_vvel
(PID.TID 0000.0001)       weight     = Vvel_weights_nonseasonal_rmsv2_areascaled.bin
(PID.TID 0000.0001)  preprocess = WC01
(PID.TID 0000.0001) 
(PID.TID 0000.0001) // =======================================================
(PID.TID 0000.0001) // control vector configuration  >>> END <<<
(PID.TID 0000.0001) // =======================================================
(PID.TID 0000.0001) 
(PID.TID 0000.0001) INI_GLOBAL_DOMAIN: Found   0 CS-corner Pts in the domain
(PID.TID 0000.0001) %MON fCori_max                    =   1.4584096177006E-04
(PID.TID 0000.0001) %MON fCori_min                    =  -1.4429171327635E-04
(PID.TID 0000.0001) %MON fCori_mean                   =  -1.9531894197174E-06
(PID.TID 0000.0001) %MON fCori_sd                     =   1.0434730642309E-04
(PID.TID 0000.0001) %MON fCoriG_max                   =   1.4584247033981E-04
(PID.TID 0000.0001) %MON fCoriG_min                   =  -1.4435339896041E-04
(PID.TID 0000.0001) %MON fCoriG_mean                  =  -1.9303770726087E-06
(PID.TID 0000.0001) %MON fCoriG_sd                    =   1.0435958182593E-04
(PID.TID 0000.0001) %MON fCoriCos_max                 =   1.4584158744890E-04
(PID.TID 0000.0001) %MON fCoriCos_min                 =   6.6334365221135E-07
(PID.TID 0000.0001) %MON fCoriCos_mean                =   9.3876998486639E-05
(PID.TID 0000.0001) %MON fCoriCos_sd                  =   3.9559575367967E-05
(PID.TID 0000.0001) INI_CG2D: CG2D normalisation factor =  7.1522409280111305E-05
(PID.TID 0000.0001) 
(PID.TID 0000.0001) // =======================================================
(PID.TID 0000.0001) // Model configuration
(PID.TID 0000.0001) // =======================================================
(PID.TID 0000.0001) //
(PID.TID 0000.0001) // "Physical" paramters ( PARM01 in namelist )
(PID.TID 0000.0001) //
(PID.TID 0000.0001) buoyancyRelation = /* Type of relation to get Buoyancy */
(PID.TID 0000.0001)               'OCEANIC'
(PID.TID 0000.0001)     ;
(PID.TID 0000.0001) fluidIsAir   =  /* fluid major constituent is Air */
(PID.TID 0000.0001)                   F
(PID.TID 0000.0001)     ;
(PID.TID 0000.0001) fluidIsWater =  /* fluid major constituent is Water */
(PID.TID 0000.0001)                   T
(PID.TID 0000.0001)     ;
(PID.TID 0000.0001) usingPCoords =  /* use p (or p*) vertical coordinate */
(PID.TID 0000.0001)                   F
(PID.TID 0000.0001)     ;
(PID.TID 0000.0001) usingZCoords =  /* use z (or z*) vertical coordinate */
(PID.TID 0000.0001)                   T
(PID.TID 0000.0001)     ;
(PID.TID 0000.0001) tRef =   /* Reference temperature profile ( oC or K ) */
(PID.TID 0000.0001)     3 @  2.300000000000000E+01,             /* K =  1:  3 */
(PID.TID 0000.0001)     3 @  2.200000000000000E+01,             /* K =  4:  6 */
(PID.TID 0000.0001)                 2.100000000000000E+01,      /* K =  7 */
(PID.TID 0000.0001)     2 @  2.000000000000000E+01,             /* K =  8:  9 */
(PID.TID 0000.0001)                 1.900000000000000E+01,      /* K = 10 */
(PID.TID 0000.0001)     2 @  1.800000000000000E+01,             /* K = 11: 12 */
(PID.TID 0000.0001)                 1.700000000000000E+01,      /* K = 13 */
(PID.TID 0000.0001)     2 @  1.600000000000000E+01,             /* K = 14: 15 */
(PID.TID 0000.0001)                 1.500000000000000E+01,      /* K = 16 */
(PID.TID 0000.0001)                 1.400000000000000E+01,      /* K = 17 */
(PID.TID 0000.0001)                 1.300000000000000E+01,      /* K = 18 */
(PID.TID 0000.0001)                 1.200000000000000E+01,      /* K = 19 */
(PID.TID 0000.0001)                 1.100000000000000E+01,      /* K = 20 */
(PID.TID 0000.0001)     2 @  9.000000000000000E+00,             /* K = 21: 22 */
(PID.TID 0000.0001)                 8.000000000000000E+00,      /* K = 23 */
(PID.TID 0000.0001)                 7.000000000000000E+00,      /* K = 24 */
(PID.TID 0000.0001)     2 @  6.000000000000000E+00,             /* K = 25: 26 */
(PID.TID 0000.0001)     2 @  5.000000000000000E+00,             /* K = 27: 28 */
(PID.TID 0000.0001)     3 @  4.000000000000000E+00,             /* K = 29: 31 */
(PID.TID 0000.0001)     3 @  3.000000000000000E+00,             /* K = 32: 34 */
(PID.TID 0000.0001)     4 @  2.000000000000000E+00,             /* K = 35: 38 */
(PID.TID 0000.0001)    12 @  1.000000000000000E+00              /* K = 39: 50 */
(PID.TID 0000.0001)     ;
(PID.TID 0000.0001) sRef =   /* Reference salinity profile ( psu ) */
(PID.TID 0000.0001)    50 @  3.450000000000000E+01              /* K =  1: 50 */
(PID.TID 0000.0001)     ;
(PID.TID 0000.0001) useStrainTensionVisc= /* Use StrainTension Form of Viscous Operator */
(PID.TID 0000.0001)                   F
(PID.TID 0000.0001)     ;
(PID.TID 0000.0001) useVariableVisc = /* Use variable horizontal viscosity */
(PID.TID 0000.0001)                   T
(PID.TID 0000.0001)     ;
(PID.TID 0000.0001) useHarmonicVisc = /* Use harmonic horizontal viscosity */
(PID.TID 0000.0001)                   T
(PID.TID 0000.0001)     ;
(PID.TID 0000.0001) useBiharmonicVisc= /* Use biharmonic horiz.  viscosity */
(PID.TID 0000.0001)                   T
(PID.TID 0000.0001)     ;
(PID.TID 0000.0001) useSmag3D = /* Use isotropic 3-D Smagorinsky viscosity */
(PID.TID 0000.0001)                   F
(PID.TID 0000.0001)     ;
(PID.TID 0000.0001) viscAh  =   /* Lateral harmonic viscosity ( m^2/s ) */
(PID.TID 0000.0001)                 1.000000000000000E+00
(PID.TID 0000.0001)     ;
(PID.TID 0000.0001) viscAhMax = /* Maximum lateral harmonic viscosity ( m^2/s ) */
(PID.TID 0000.0001)                 1.000000000000000E+21
(PID.TID 0000.0001)     ;
(PID.TID 0000.0001) viscAhGrid = /* Grid dependent lateral harmonic viscosity ( non-dim. ) */
(PID.TID 0000.0001)                 2.000000000000000E-02
(PID.TID 0000.0001)     ;
(PID.TID 0000.0001) useFullLeith = /* Use Full Form of Leith Viscosity on/off flag*/
(PID.TID 0000.0001)                   F
(PID.TID 0000.0001)     ;
(PID.TID 0000.0001) useAreaViscLength = /* Use area for visc length instead of geom. mean*/
(PID.TID 0000.0001)                   F
(PID.TID 0000.0001)     ;
(PID.TID 0000.0001) viscC2leith = /* Leith harmonic visc. factor (on grad(vort),non-dim.) */
(PID.TID 0000.0001)                 0.000000000000000E+00
(PID.TID 0000.0001)     ;
(PID.TID 0000.0001) viscC2leithD = /* Leith harmonic viscosity factor (on grad(div),non-dim.)*/
(PID.TID 0000.0001)                 0.000000000000000E+00
(PID.TID 0000.0001)     ;
(PID.TID 0000.0001) viscC2smag = /* Smagorinsky harmonic viscosity factor (non-dim.) */
(PID.TID 0000.0001)                 0.000000000000000E+00
(PID.TID 0000.0001)     ;
(PID.TID 0000.0001) viscA4  =   /* Lateral biharmonic viscosity ( m^4/s ) */
(PID.TID 0000.0001)                 0.000000000000000E+00
(PID.TID 0000.0001)     ;
(PID.TID 0000.0001) viscA4Max = /* Maximum biharmonic viscosity ( m^2/s ) */
(PID.TID 0000.0001)                 1.000000000000000E+21
(PID.TID 0000.0001)     ;
(PID.TID 0000.0001) viscA4Grid = /* Grid dependent biharmonic viscosity ( non-dim. ) */
(PID.TID 0000.0001)                 0.000000000000000E+00
(PID.TID 0000.0001)     ;
(PID.TID 0000.0001) viscC4leith = /* Leith biharm viscosity factor (on grad(vort), non-dim.)*/
(PID.TID 0000.0001)                 0.000000000000000E+00
(PID.TID 0000.0001)     ;
(PID.TID 0000.0001) viscC4leithD = /* Leith biharm viscosity factor (on grad(div), non-dim.) */
(PID.TID 0000.0001)                 0.000000000000000E+00
(PID.TID 0000.0001)     ;
(PID.TID 0000.0001) viscC4Smag = /* Smagorinsky biharm viscosity factor (non-dim) */
(PID.TID 0000.0001)                 0.000000000000000E+00
(PID.TID 0000.0001)     ;
(PID.TID 0000.0001) no_slip_sides =  /* Viscous BCs: No-slip sides */
(PID.TID 0000.0001)                   T
(PID.TID 0000.0001)     ;
(PID.TID 0000.0001) sideDragFactor = /* side-drag scaling factor (non-dim) */
(PID.TID 0000.0001)                 2.000000000000000E+00
(PID.TID 0000.0001)     ;
(PID.TID 0000.0001) viscArNr = /* vertical profile of vertical viscosity ( m^2/s )*/
(PID.TID 0000.0001)    50 @  5.000000000000000E-05              /* K =  1: 50 */
(PID.TID 0000.0001)     ;
(PID.TID 0000.0001) no_slip_bottom =  /* Viscous BCs: No-slip bottom */
(PID.TID 0000.0001)                   T
(PID.TID 0000.0001)     ;
(PID.TID 0000.0001) bottomVisc_pCell = /* Partial-cell in bottom Visc. BC */
(PID.TID 0000.0001)                   F
(PID.TID 0000.0001)     ;
(PID.TID 0000.0001) bottomDragLinear = /* linear bottom-drag coefficient ( m/s ) */
(PID.TID 0000.0001)                 0.000000000000000E+00
(PID.TID 0000.0001)     ;
(PID.TID 0000.0001) bottomDragQuadratic = /* quadratic bottom-drag coefficient (-) */
(PID.TID 0000.0001)                 1.000000000000000E-03
(PID.TID 0000.0001)     ;
(PID.TID 0000.0001) selectBotDragQuadr = /* select quadratic bottom drag options */
(PID.TID 0000.0001)                       0
(PID.TID 0000.0001)     ;
(PID.TID 0000.0001) diffKhT =   /* Laplacian diffusion of heat laterally ( m^2/s ) */
(PID.TID 0000.0001)                 1.000000000000000E+01
(PID.TID 0000.0001)     ;
(PID.TID 0000.0001) diffK4T =   /* Biharmonic diffusion of heat laterally ( m^4/s ) */
(PID.TID 0000.0001)                 0.000000000000000E+00
(PID.TID 0000.0001)     ;
(PID.TID 0000.0001) diffKhS =   /* Laplacian diffusion of salt laterally ( m^2/s ) */
(PID.TID 0000.0001)                 1.000000000000000E+01
(PID.TID 0000.0001)     ;
(PID.TID 0000.0001) diffK4S =   /* Biharmonic diffusion of salt laterally ( m^4/s ) */
(PID.TID 0000.0001)                 0.000000000000000E+00
(PID.TID 0000.0001)     ;
(PID.TID 0000.0001) diffKrNrT = /* vertical profile of vertical diffusion of Temp ( m^2/s )*/
(PID.TID 0000.0001)    50 @  1.000000000000000E-05              /* K =  1: 50 */
(PID.TID 0000.0001)     ;
(PID.TID 0000.0001) diffKrNrS = /* vertical profile of vertical diffusion of Salt ( m^2/s )*/
(PID.TID 0000.0001)    50 @  1.000000000000000E-05              /* K =  1: 50 */
(PID.TID 0000.0001)     ;
(PID.TID 0000.0001) diffKrBL79surf = /* Surface diffusion for Bryan and Lewis 79 ( m^2/s ) */
(PID.TID 0000.0001)                 0.000000000000000E+00
(PID.TID 0000.0001)     ;
(PID.TID 0000.0001) diffKrBL79deep = /* Deep diffusion for Bryan and Lewis 1979 ( m^2/s ) */
(PID.TID 0000.0001)                 0.000000000000000E+00
(PID.TID 0000.0001)     ;
(PID.TID 0000.0001) diffKrBL79scl = /* Depth scale for Bryan and Lewis 1979 ( m ) */
(PID.TID 0000.0001)                 2.000000000000000E+02
(PID.TID 0000.0001)     ;
(PID.TID 0000.0001) diffKrBL79Ho = /* Turning depth for Bryan and Lewis 1979 ( m ) */
(PID.TID 0000.0001)                -2.000000000000000E+03
(PID.TID 0000.0001)     ;
(PID.TID 0000.0001) ivdc_kappa = /* Implicit Vertical Diffusivity for Convection ( m^2/s) */
(PID.TID 0000.0001)                 1.000000000000000E+01
(PID.TID 0000.0001)     ;
(PID.TID 0000.0001) hMixCriteria=  /* Criteria for mixed-layer diagnostic */
(PID.TID 0000.0001)                -8.000000000000000E-01
(PID.TID 0000.0001)     ;
(PID.TID 0000.0001) dRhoSmall =  /* Parameter for mixed-layer diagnostic */
(PID.TID 0000.0001)                 1.000000000000000E-06
(PID.TID 0000.0001)     ;
(PID.TID 0000.0001) hMixSmooth=  /* Smoothing parameter for mixed-layer diagnostic */
(PID.TID 0000.0001)                 0.000000000000000E+00
(PID.TID 0000.0001)     ;
(PID.TID 0000.0001) eosType =  /* Type of Equation of State */
(PID.TID 0000.0001)               'JMD95Z'
(PID.TID 0000.0001)     ;
(PID.TID 0000.0001) selectP_inEOS_Zc = /* select pressure to use in EOS (0,1,2,3) */
(PID.TID 0000.0001)                       0
(PID.TID 0000.0001)     0= -g*rhoConst*z ; 1= pRef (from tRef,sRef); 2= Hyd P ; 3= Hyd+NH P
(PID.TID 0000.0001)     ;
(PID.TID 0000.0001) HeatCapacity_Cp =  /* Specific heat capacity ( J/kg/K ) */
(PID.TID 0000.0001)                 3.994000000000000E+03
(PID.TID 0000.0001)     ;
(PID.TID 0000.0001) celsius2K = /* 0 degree Celsius converted to Kelvin ( K ) */
(PID.TID 0000.0001)                 2.731500000000000E+02
(PID.TID 0000.0001)     ;
(PID.TID 0000.0001) rhoConst  = /* Reference density (Boussinesq)  ( kg/m^3 ) */
(PID.TID 0000.0001)                 1.029000000000000E+03
(PID.TID 0000.0001)     ;
(PID.TID 0000.0001) rhoFacC = /* normalized Reference density @ cell-Center (-) */
(PID.TID 0000.0001)    50 @  1.000000000000000E+00              /* K =  1: 50 */
(PID.TID 0000.0001)     ;
(PID.TID 0000.0001) rhoFacF = /* normalized Reference density @ W-Interface (-) */
(PID.TID 0000.0001)    51 @  1.000000000000000E+00              /* K =  1: 51 */
(PID.TID 0000.0001)     ;
(PID.TID 0000.0001) rhoConstFresh = /* Fresh-water reference density ( kg/m^3 ) */
(PID.TID 0000.0001)                 1.000000000000000E+03
(PID.TID 0000.0001)     ;
(PID.TID 0000.0001) gravity =   /* Gravitational acceleration ( m/s^2 ) */
(PID.TID 0000.0001)                 9.810000000000000E+00
(PID.TID 0000.0001)     ;
(PID.TID 0000.0001) gBaro =   /* Barotropic gravity ( m/s^2 ) */
(PID.TID 0000.0001)                 9.810000000000000E+00
(PID.TID 0000.0001)     ;
(PID.TID 0000.0001) gravFacC = /* gravity factor (vs surf.) @ cell-Center (-) */
(PID.TID 0000.0001)    50 @  1.000000000000000E+00              /* K =  1: 50 */
(PID.TID 0000.0001)     ;
(PID.TID 0000.0001) gravFacF = /* gravity factor (vs surf.) @ W-Interface (-) */
(PID.TID 0000.0001)    51 @  1.000000000000000E+00              /* K =  1: 51 */
(PID.TID 0000.0001)     ;
(PID.TID 0000.0001) rotationPeriod =   /* Rotation Period ( s ) */
(PID.TID 0000.0001)                 8.616400000000000E+04
(PID.TID 0000.0001)     ;
(PID.TID 0000.0001) omega =   /* Angular velocity ( rad/s ) */
(PID.TID 0000.0001)                 7.292123516990375E-05
(PID.TID 0000.0001)     ;
(PID.TID 0000.0001) f0 =   /* Reference coriolis parameter ( 1/s ) */
(PID.TID 0000.0001)                 1.000000000000000E-04
(PID.TID 0000.0001)     ;
(PID.TID 0000.0001) beta =   /* Beta ( 1/(m.s) ) */
(PID.TID 0000.0001)                 9.999999999999999E-12
(PID.TID 0000.0001)     ;
(PID.TID 0000.0001) fPrime =   /* Second coriolis parameter ( 1/s ) */
(PID.TID 0000.0001)                 0.000000000000000E+00
(PID.TID 0000.0001)     ;
(PID.TID 0000.0001) rigidLid =   /* Rigid lid on/off flag */
(PID.TID 0000.0001)                   F
(PID.TID 0000.0001)     ;
(PID.TID 0000.0001) implicitFreeSurface =   /* Implicit free surface on/off flag */
(PID.TID 0000.0001)                   T
(PID.TID 0000.0001)     ;
(PID.TID 0000.0001) freeSurfFac =   /* Implicit free surface factor */
(PID.TID 0000.0001)                 1.000000000000000E+00
(PID.TID 0000.0001)     ;
(PID.TID 0000.0001) implicSurfPress =  /* Surface Pressure implicit factor (0-1)*/
(PID.TID 0000.0001)                 1.000000000000000E+00
(PID.TID 0000.0001)     ;
(PID.TID 0000.0001) implicDiv2DFlow =  /* Barot. Flow Div. implicit factor (0-1)*/
(PID.TID 0000.0001)                 1.000000000000000E+00
(PID.TID 0000.0001)     ;
(PID.TID 0000.0001) uniformLin_PhiSurf = /* use uniform Bo_surf on/off flag*/
(PID.TID 0000.0001)                   T
(PID.TID 0000.0001)     ;
(PID.TID 0000.0001) uniformFreeSurfLev = /* free-surface level-index is uniform */
(PID.TID 0000.0001)                   T
(PID.TID 0000.0001)     ;
(PID.TID 0000.0001) hFacMin =   /* minimum partial cell factor (hFac) */
(PID.TID 0000.0001)                 2.000000000000000E-01
(PID.TID 0000.0001)     ;
(PID.TID 0000.0001) hFacMinDr = /* minimum partial cell thickness ( m) */
(PID.TID 0000.0001)                 5.000000000000000E+00
(PID.TID 0000.0001)     ;
(PID.TID 0000.0001) exactConserv =  /* Exact Volume Conservation on/off flag*/
(PID.TID 0000.0001)                   T
(PID.TID 0000.0001)     ;
(PID.TID 0000.0001) linFSConserveTr = /* Tracer correction for Lin Free Surface on/off flag*/
(PID.TID 0000.0001)                   F
(PID.TID 0000.0001)     ;
(PID.TID 0000.0001) nonlinFreeSurf = /* Non-linear Free Surf. options (-1,0,1,2,3)*/
(PID.TID 0000.0001)                       4
(PID.TID 0000.0001)      -1,0= Off ; 1,2,3= On, 2=+rescale gU,gV, 3=+update cg2d solv.
(PID.TID 0000.0001)     ;
(PID.TID 0000.0001) hFacInf =   /* lower threshold for hFac (nonlinFreeSurf only)*/
(PID.TID 0000.0001)                 2.000000000000000E-01
(PID.TID 0000.0001)     ;
(PID.TID 0000.0001) hFacSup =   /* upper threshold for hFac (nonlinFreeSurf only)*/
(PID.TID 0000.0001)                 2.000000000000000E+00
(PID.TID 0000.0001)     ;
(PID.TID 0000.0001) select_rStar = /* r* Vertical coord. options (=0 r coord.; >0 uses r*)*/
(PID.TID 0000.0001)                       2
(PID.TID 0000.0001)     ;
(PID.TID 0000.0001) useRealFreshWaterFlux = /* Real Fresh Water Flux on/off flag*/
(PID.TID 0000.0001)                   T
(PID.TID 0000.0001)     ;
(PID.TID 0000.0001) temp_EvPrRn = /* Temp. of Evap/Prec/R (UNSET=use local T)(oC)*/
(PID.TID 0000.0001)                 1.234567000000000E+05
(PID.TID 0000.0001)     ;
(PID.TID 0000.0001) salt_EvPrRn = /* Salin. of Evap/Prec/R (UNSET=use local S)(psu)*/
(PID.TID 0000.0001)                 0.000000000000000E+00
(PID.TID 0000.0001)     ;
(PID.TID 0000.0001) selectAddFluid = /* option for mass source/sink of fluid (=0: off) */
(PID.TID 0000.0001)                       0
(PID.TID 0000.0001)     ;
(PID.TID 0000.0001) temp_addMass = /* Temp. of addMass array (UNSET=use local T)(oC)*/
(PID.TID 0000.0001)                 1.234567000000000E+05
(PID.TID 0000.0001)     ;
(PID.TID 0000.0001) salt_addMass = /* Salin. of addMass array (UNSET=use local S)(psu)*/
(PID.TID 0000.0001)                 0.000000000000000E+00
(PID.TID 0000.0001)     ;
(PID.TID 0000.0001) use3Dsolver = /* use 3-D pressure solver on/off flag */
(PID.TID 0000.0001)                   F
(PID.TID 0000.0001)     ;
(PID.TID 0000.0001) nonHydrostatic =  /* Non-Hydrostatic on/off flag */
(PID.TID 0000.0001)                   F
(PID.TID 0000.0001)     ;
(PID.TID 0000.0001) nh_Am2 = /* Non-Hydrostatic terms scaling factor */
(PID.TID 0000.0001)                 1.000000000000000E+00
(PID.TID 0000.0001)     ;
(PID.TID 0000.0001) implicitNHPress = /* Non-Hyd Pressure implicit factor (0-1)*/
(PID.TID 0000.0001)                 1.000000000000000E+00
(PID.TID 0000.0001)     ;
(PID.TID 0000.0001) selectNHfreeSurf = /* Non-Hyd (free-)Surface option */
(PID.TID 0000.0001)                       0
(PID.TID 0000.0001)     ;
(PID.TID 0000.0001) quasiHydrostatic = /* Quasi-Hydrostatic on/off flag */
(PID.TID 0000.0001)                   F
(PID.TID 0000.0001)     ;
(PID.TID 0000.0001) calc_wVelocity = /* vertical velocity calculation on/off flag */
(PID.TID 0000.0001)                   T
(PID.TID 0000.0001)     ;
(PID.TID 0000.0001) momStepping =  /* Momentum equation on/off flag */
(PID.TID 0000.0001)                   T
(PID.TID 0000.0001)     ;
(PID.TID 0000.0001) vectorInvariantMomentum= /* Vector-Invariant Momentum on/off */
(PID.TID 0000.0001)                   T
(PID.TID 0000.0001)     ;
(PID.TID 0000.0001) momAdvection =  /* Momentum advection on/off flag */
(PID.TID 0000.0001)                   T
(PID.TID 0000.0001)     ;
(PID.TID 0000.0001) momViscosity =  /* Momentum viscosity on/off flag */
(PID.TID 0000.0001)                   T
(PID.TID 0000.0001)     ;
(PID.TID 0000.0001) momImplVertAdv= /* Momentum implicit vert. advection on/off*/
(PID.TID 0000.0001)                   F
(PID.TID 0000.0001)     ;
(PID.TID 0000.0001) implicitViscosity = /* Implicit viscosity on/off flag */
(PID.TID 0000.0001)                   T
(PID.TID 0000.0001)     ;
(PID.TID 0000.0001) selectImplicitDrag= /* Implicit bot Drag options (0,1,2)*/
(PID.TID 0000.0001)                       0
(PID.TID 0000.0001)     0= Expl. ; 1= Impl. on provis. Vel ; 2= Fully Impl (with surf.P)
(PID.TID 0000.0001)     ;
(PID.TID 0000.0001) metricTerms =  /* metric-Terms on/off flag */
(PID.TID 0000.0001)                   F
(PID.TID 0000.0001)     ;
(PID.TID 0000.0001) useNHMTerms = /* Non-Hydrostatic Metric-Terms on/off */
(PID.TID 0000.0001)                   F
(PID.TID 0000.0001)     ;
(PID.TID 0000.0001) selectCoriMap = /* Coriolis Map options (0,1,2,3)*/
(PID.TID 0000.0001)                       2
(PID.TID 0000.0001)     0= f-Plane ; 1= Beta-Plane ; 2= Spherical ; 3= read from file
(PID.TID 0000.0001)     ;
(PID.TID 0000.0001) use3dCoriolis = /* 3-D Coriolis on/off flag */
(PID.TID 0000.0001)                   F
(PID.TID 0000.0001)     ;
(PID.TID 0000.0001) useCoriolis =  /* Coriolis on/off flag */
(PID.TID 0000.0001)                   T
(PID.TID 0000.0001)     ;
(PID.TID 0000.0001) useCDscheme =  /* CD scheme on/off flag */
(PID.TID 0000.0001)                   F
(PID.TID 0000.0001)     ;
(PID.TID 0000.0001) useEnergyConservingCoriolis= /* Flx-Form Coriolis scheme flag */
(PID.TID 0000.0001)                   F
(PID.TID 0000.0001)     ;
(PID.TID 0000.0001) useJamartWetPoints= /* Coriolis WetPoints method flag */
(PID.TID 0000.0001)                   T
(PID.TID 0000.0001)     ;
(PID.TID 0000.0001) useJamartMomAdv= /* V.I Non-linear terms Jamart flag */
(PID.TID 0000.0001)                   F
(PID.TID 0000.0001)     ;
(PID.TID 0000.0001) useAbsVorticity= /* V.I Works with f+zeta in Coriolis */
(PID.TID 0000.0001)                   F
(PID.TID 0000.0001)     ;
(PID.TID 0000.0001) selectVortScheme= /* V.I Scheme selector for Vorticity-Term */
(PID.TID 0000.0001)                       1
(PID.TID 0000.0001)    = 0 : enstrophy (Shallow-Water Eq.) conserving scheme by Sadourny, JAS 75
(PID.TID 0000.0001)    = 1 : same as 0 with modified hFac
(PID.TID 0000.0001)    = 2 : energy conserving scheme (used by Sadourny in JAS 75 paper)
(PID.TID 0000.0001)    = 3 : energy (general) and enstrophy (2D, nonDiv.) conserving scheme
(PID.TID 0000.0001)          from Sadourny (Burridge & Haseler, ECMWF Rep.4, 1977)
(PID.TID 0000.0001)     ;
(PID.TID 0000.0001) upwindVorticity= /* V.I Upwind bias vorticity flag */
(PID.TID 0000.0001)                   F
(PID.TID 0000.0001)     ;
(PID.TID 0000.0001) highOrderVorticity= /* V.I High order vort. advect. flag */
(PID.TID 0000.0001)                   F
(PID.TID 0000.0001)     ;
(PID.TID 0000.0001) upwindShear= /* V.I Upwind vertical Shear advection flag */
(PID.TID 0000.0001)                   F
(PID.TID 0000.0001)     ;
(PID.TID 0000.0001) selectKEscheme= /* V.I Kinetic Energy scheme selector */
(PID.TID 0000.0001)                       0
(PID.TID 0000.0001)     ;
(PID.TID 0000.0001) momForcing =  /* Momentum forcing on/off flag */
(PID.TID 0000.0001)                   T
(PID.TID 0000.0001)     ;
(PID.TID 0000.0001) momPressureForcing =  /* Momentum pressure term on/off flag */
(PID.TID 0000.0001)                   T
(PID.TID 0000.0001)     ;
(PID.TID 0000.0001) implicitIntGravWave= /* Implicit Internal Gravity Wave flag */
(PID.TID 0000.0001)                   F
(PID.TID 0000.0001)     ;
(PID.TID 0000.0001) staggerTimeStep =    /* Stagger time stepping on/off flag */
(PID.TID 0000.0001)                   T
(PID.TID 0000.0001)     ;
(PID.TID 0000.0001) doResetHFactors = /* reset thickness factors @ each time-step */
(PID.TID 0000.0001)                   T
(PID.TID 0000.0001)     ;
(PID.TID 0000.0001) multiDimAdvection =  /* enable/disable Multi-Dim Advection */
(PID.TID 0000.0001)                   T
(PID.TID 0000.0001)     ;
(PID.TID 0000.0001) useMultiDimAdvec =   /* Multi-Dim Advection is/is-not used */
(PID.TID 0000.0001)                   T
(PID.TID 0000.0001)     ;
(PID.TID 0000.0001) implicitDiffusion = /* Implicit Diffusion on/off flag */
(PID.TID 0000.0001)                   T
(PID.TID 0000.0001)     ;
(PID.TID 0000.0001) tempStepping =  /* Temperature equation on/off flag */
(PID.TID 0000.0001)                   T
(PID.TID 0000.0001)     ;
(PID.TID 0000.0001) tempAdvection = /* Temperature advection on/off flag */
(PID.TID 0000.0001)                   T
(PID.TID 0000.0001)     ;
(PID.TID 0000.0001) tempImplVertAdv = /* Temp. implicit vert. advection on/off */
(PID.TID 0000.0001)                   T
(PID.TID 0000.0001)     ;
(PID.TID 0000.0001) tempForcing  =  /* Temperature forcing on/off flag */
(PID.TID 0000.0001)                   T
(PID.TID 0000.0001)     ;
(PID.TID 0000.0001) balanceQnet  =  /* balance net heat-flux on/off flag */
(PID.TID 0000.0001)                   F
(PID.TID 0000.0001)     ;
(PID.TID 0000.0001) doThetaClimRelax = /* apply SST relaxation on/off flag */
(PID.TID 0000.0001)                   F
(PID.TID 0000.0001)     ;
(PID.TID 0000.0001) balanceThetaClimRelax= /* balance SST relaxation on/off flag */
(PID.TID 0000.0001)                   F
(PID.TID 0000.0001)     ;
(PID.TID 0000.0001) tempIsActiveTr = /* Temp. is a dynamically Active Tracer */
(PID.TID 0000.0001)                   T
(PID.TID 0000.0001)     ;
(PID.TID 0000.0001) saltStepping =  /* Salinity equation on/off flag */
(PID.TID 0000.0001)                   T
(PID.TID 0000.0001)     ;
(PID.TID 0000.0001) saltAdvection = /* Salinity advection on/off flag */
(PID.TID 0000.0001)                   T
(PID.TID 0000.0001)     ;
(PID.TID 0000.0001) saltImplVertAdv = /* Sali. implicit vert. advection on/off */
(PID.TID 0000.0001)                   T
(PID.TID 0000.0001)     ;
(PID.TID 0000.0001) saltForcing  =  /* Salinity forcing on/off flag */
(PID.TID 0000.0001)                   T
(PID.TID 0000.0001)     ;
(PID.TID 0000.0001) balanceEmPmR =  /* balance net fresh-water flux on/off flag */
(PID.TID 0000.0001)                   F
(PID.TID 0000.0001)     ;
(PID.TID 0000.0001) doSaltClimRelax = /* apply SSS relaxation on/off flag */
(PID.TID 0000.0001)                   F
(PID.TID 0000.0001)     ;
(PID.TID 0000.0001) balanceSaltClimRelax= /* balance SSS relaxation on/off flag */
(PID.TID 0000.0001)                   T
(PID.TID 0000.0001)     ;
(PID.TID 0000.0001) saltIsActiveTr = /* Salt  is a dynamically Active Tracer */
(PID.TID 0000.0001)                   T
(PID.TID 0000.0001)     ;
(PID.TID 0000.0001)  readBinaryPrec = /* Precision used for reading binary files */
(PID.TID 0000.0001)                      32
(PID.TID 0000.0001)     ;
(PID.TID 0000.0001) writeBinaryPrec = /* Precision used for writing binary files */
(PID.TID 0000.0001)                      32
(PID.TID 0000.0001)     ;
(PID.TID 0000.0001)  rwSuffixType =   /* select format of mds file suffix */
(PID.TID 0000.0001)                       0
(PID.TID 0000.0001)    = 0 : myIter (I10.10) ;   = 1 : 100*myTime (100th sec) ;
(PID.TID 0000.0001)    = 2 : myTime (seconds);   = 3 : myTime/360 (10th of hr);
(PID.TID 0000.0001)    = 4 : myTime/3600 (hours)
(PID.TID 0000.0001)     ;
(PID.TID 0000.0001)  globalFiles = /* write "global" (=not per tile) files */
(PID.TID 0000.0001)                   F
(PID.TID 0000.0001)     ;
(PID.TID 0000.0001)  useSingleCpuIO = /* only master MPI process does I/O */
(PID.TID 0000.0001)                   T
(PID.TID 0000.0001)     ;
(PID.TID 0000.0001)  useSingleCpuInput = /* only master process reads input */
(PID.TID 0000.0001)                   T
(PID.TID 0000.0001)     ;
(PID.TID 0000.0001) /* debLev[*]  : level of debug & auxiliary message printing */
(PID.TID 0000.0001) debLevZero =  0 ; /* level of disabled aux. msg printing */
(PID.TID 0000.0001)    debLevA =  1 ; /* level of minimum  aux. msg printing */
(PID.TID 0000.0001)    debLevB =  2 ; /* level of low aux. print (report read-file opening)*/
(PID.TID 0000.0001)    debLevC =  3 ; /* level of moderate debug prt (most pkgs debug msg) */
(PID.TID 0000.0001)    debLevD =  4 ; /* level of enhanced debug prt (add DEBUG_STATS prt) */
(PID.TID 0000.0001)    debLevE =  5 ; /* level of extensive debug printing */
(PID.TID 0000.0001) debugLevel =  /* select debug printing level */
(PID.TID 0000.0001)                       1
(PID.TID 0000.0001)     ;
(PID.TID 0000.0001)  plotLevel =  /* select PLOT_FIELD printing level */
(PID.TID 0000.0001)                       1
(PID.TID 0000.0001)     ;
(PID.TID 0000.0001) //
(PID.TID 0000.0001) // Elliptic solver(s) paramters ( PARM02 in namelist )
(PID.TID 0000.0001) //
(PID.TID 0000.0001) cg2dMaxIters =   /* Upper limit on 2d con. grad iterations  */
(PID.TID 0000.0001)                     300
(PID.TID 0000.0001)     ;
(PID.TID 0000.0001) cg2dChkResFreq =   /* 2d con. grad convergence test frequency */
(PID.TID 0000.0001)                       1
(PID.TID 0000.0001)     ;
(PID.TID 0000.0001) cg2dUseMinResSol= /* use cg2d last-iter(=0) / min-resid.(=1) solution */
(PID.TID 0000.0001)                       0
(PID.TID 0000.0001)     ;
(PID.TID 0000.0001) cg2dTargetResidual =   /* 2d con. grad target residual  */
(PID.TID 0000.0001)                 1.000000000000000E-07
(PID.TID 0000.0001)     ;
(PID.TID 0000.0001) cg2dTargetResWunit =   /* CG2d target residual [W units] */
(PID.TID 0000.0001)                -1.000000000000000E+00
(PID.TID 0000.0001)     ;
(PID.TID 0000.0001) cg2dPreCondFreq =   /* Freq. for updating cg2d preconditioner */
(PID.TID 0000.0001)                       1
(PID.TID 0000.0001)     ;
(PID.TID 0000.0001) useSRCGSolver =  /* use single reduction CG solver(s) */
(PID.TID 0000.0001)                   F
(PID.TID 0000.0001)     ;
(PID.TID 0000.0001) printResidualFreq = /* Freq. for printing CG residual */
(PID.TID 0000.0001)                       0
(PID.TID 0000.0001)     ;
(PID.TID 0000.0001) //
(PID.TID 0000.0001) // Time stepping paramters ( PARM03 in namelist )
(PID.TID 0000.0001) //
(PID.TID 0000.0001) deltaTMom =   /* Momentum equation timestep ( s ) */
(PID.TID 0000.0001)                 3.600000000000000E+03
(PID.TID 0000.0001)     ;
(PID.TID 0000.0001) deltaTFreeSurf = /* FreeSurface equation timestep ( s ) */
(PID.TID 0000.0001)                 3.600000000000000E+03
(PID.TID 0000.0001)     ;
(PID.TID 0000.0001) dTtracerLev =  /* Tracer equation timestep ( s ) */
(PID.TID 0000.0001)    50 @  3.600000000000000E+03              /* K =  1: 50 */
(PID.TID 0000.0001)     ;
(PID.TID 0000.0001) deltaTClock  =   /* Model clock timestep ( s ) */
(PID.TID 0000.0001)                 3.600000000000000E+03
(PID.TID 0000.0001)     ;
(PID.TID 0000.0001) cAdjFreq =   /* Convective adjustment interval ( s ) */
(PID.TID 0000.0001)                 0.000000000000000E+00
(PID.TID 0000.0001)     ;
(PID.TID 0000.0001) momForcingOutAB = /* =1: take Momentum Forcing out of Adams-Bash. stepping */
(PID.TID 0000.0001)                       1
(PID.TID 0000.0001)     ;
(PID.TID 0000.0001) tracForcingOutAB = /* =1: take T,S,pTr Forcing out of Adams-Bash. stepping */
(PID.TID 0000.0001)                       1
(PID.TID 0000.0001)     ;
(PID.TID 0000.0001) momDissip_In_AB = /* put Dissipation Tendency in Adams-Bash. stepping */
(PID.TID 0000.0001)                   F
(PID.TID 0000.0001)     ;
(PID.TID 0000.0001) doAB_onGtGs = /* apply AB on Tendencies (rather than on T,S)*/
(PID.TID 0000.0001)                   F
(PID.TID 0000.0001)     ;
(PID.TID 0000.0001) abEps =   /* Adams-Bashforth-2 stabilizing weight */
(PID.TID 0000.0001)                 1.000000000000000E-02
(PID.TID 0000.0001)     ;
(PID.TID 0000.0001) alph_AB =   /* Adams-Bashforth-3 primary factor */
(PID.TID 0000.0001)                 5.000000000000000E-01
(PID.TID 0000.0001)     ;
(PID.TID 0000.0001) beta_AB =   /* Adams-Bashforth-3 secondary factor */
(PID.TID 0000.0001)                 2.811050000000000E-01
(PID.TID 0000.0001)     ;
(PID.TID 0000.0001) startFromPickupAB2= /* start from AB-2 pickup */
(PID.TID 0000.0001)                   F
(PID.TID 0000.0001)     ;
(PID.TID 0000.0001) applyExchUV_early = /* Apply EXCH to U,V earlier in time-step */
(PID.TID 0000.0001)                   F
(PID.TID 0000.0001)     ;
(PID.TID 0000.0001) pickupStrictlyMatch= /* stop if pickup do not strictly match */
(PID.TID 0000.0001)                   F
(PID.TID 0000.0001)     ;
(PID.TID 0000.0001) nIter0   =   /* Run starting timestep number */
(PID.TID 0000.0001)                       1
(PID.TID 0000.0001)     ;
(PID.TID 0000.0001) nTimeSteps = /* Number of timesteps */
(PID.TID 0000.0001)                   13110
(PID.TID 0000.0001)     ;
(PID.TID 0000.0001) nEndIter =   /* Run ending timestep number */
(PID.TID 0000.0001)                   13111
(PID.TID 0000.0001)     ;
(PID.TID 0000.0001) baseTime =   /* Model base time ( s ) */
(PID.TID 0000.0001)                 0.000000000000000E+00
(PID.TID 0000.0001)     ;
(PID.TID 0000.0001) startTime =  /* Run start time ( s ) */
(PID.TID 0000.0001)                 3.600000000000000E+03
(PID.TID 0000.0001)     ;
(PID.TID 0000.0001) endTime  =   /* Integration ending time ( s ) */
(PID.TID 0000.0001)                 4.719960000000000E+07
(PID.TID 0000.0001)     ;
(PID.TID 0000.0001) pChkPtFreq = /* Permanent restart/pickup file interval ( s ) */
(PID.TID 0000.0001)                 3.153600000000000E+07
(PID.TID 0000.0001)     ;
(PID.TID 0000.0001) chkPtFreq  = /* Rolling restart/pickup file interval ( s ) */
(PID.TID 0000.0001)                 3.153600000000000E+07
(PID.TID 0000.0001)     ;
(PID.TID 0000.0001) pickup_write_mdsio =   /* Model IO flag. */
(PID.TID 0000.0001)                   T
(PID.TID 0000.0001)     ;
(PID.TID 0000.0001) pickup_read_mdsio =   /* Model IO flag. */
(PID.TID 0000.0001)                   T
(PID.TID 0000.0001)     ;
(PID.TID 0000.0001) writePickupAtEnd =   /* Model IO flag. */
(PID.TID 0000.0001)                   T
(PID.TID 0000.0001)     ;
(PID.TID 0000.0001) dumpFreq =   /* Model state write out interval ( s ). */
(PID.TID 0000.0001)                 0.000000000000000E+00
(PID.TID 0000.0001)     ;
(PID.TID 0000.0001) dumpInitAndLast= /* write out Initial & Last iter. model state */
(PID.TID 0000.0001)                   T
(PID.TID 0000.0001)     ;
(PID.TID 0000.0001) snapshot_mdsio =   /* Model IO flag. */
(PID.TID 0000.0001)                   T
(PID.TID 0000.0001)     ;
(PID.TID 0000.0001) monitorFreq =   /* Monitor output interval ( s ). */
(PID.TID 0000.0001)                 6.307200000000000E+06
(PID.TID 0000.0001)     ;
(PID.TID 0000.0001) monitorSelect = /* select group of variables to monitor */
(PID.TID 0000.0001)                       3
(PID.TID 0000.0001)     ;
(PID.TID 0000.0001) monitor_stdio =   /* Model IO flag. */
(PID.TID 0000.0001)                   T
(PID.TID 0000.0001)     ;
(PID.TID 0000.0001) externForcingPeriod =   /* forcing period (s) */
(PID.TID 0000.0001)                 0.000000000000000E+00
(PID.TID 0000.0001)     ;
(PID.TID 0000.0001) externForcingCycle =   /* period of the cyle (s). */
(PID.TID 0000.0001)                 0.000000000000000E+00
(PID.TID 0000.0001)     ;
(PID.TID 0000.0001) tauThetaClimRelax =   /* relaxation time scale (s) */
(PID.TID 0000.0001)                 0.000000000000000E+00
(PID.TID 0000.0001)     ;
(PID.TID 0000.0001) tauSaltClimRelax =   /* relaxation time scale (s) */
(PID.TID 0000.0001)                 0.000000000000000E+00
(PID.TID 0000.0001)     ;
(PID.TID 0000.0001) latBandClimRelax =   /* max. Lat. where relaxation */
(PID.TID 0000.0001)                 1.800000000000000E+02
(PID.TID 0000.0001)     ;
(PID.TID 0000.0001) //
(PID.TID 0000.0001) // Gridding paramters ( PARM04 in namelist )
(PID.TID 0000.0001) //
(PID.TID 0000.0001) usingCartesianGrid = /* Cartesian coordinates flag ( True/False ) */
(PID.TID 0000.0001)                   F
(PID.TID 0000.0001)     ;
(PID.TID 0000.0001) usingCylindricalGrid = /* Cylindrical coordinates flag ( True/False ) */
(PID.TID 0000.0001)                   F
(PID.TID 0000.0001)     ;
(PID.TID 0000.0001) usingSphericalPolarGrid = /* Spherical coordinates flag ( True/False ) */
(PID.TID 0000.0001)                   F
(PID.TID 0000.0001)     ;
(PID.TID 0000.0001) usingCurvilinearGrid = /* Curvilinear coordinates flag ( True/False ) */
(PID.TID 0000.0001)                   T
(PID.TID 0000.0001)     ;
(PID.TID 0000.0001) selectSigmaCoord = /* Hybrid-Sigma Vert. Coordinate option */
(PID.TID 0000.0001)                       0
(PID.TID 0000.0001)     ;
(PID.TID 0000.0001) rSigmaBnd = /* r/sigma transition ( units of r ==  m ) */
(PID.TID 0000.0001)                 1.234567000000000E+05
(PID.TID 0000.0001)     ;
(PID.TID 0000.0001) rkSign =   /* index orientation relative to vertical coordinate */
(PID.TID 0000.0001)                -1.000000000000000E+00
(PID.TID 0000.0001)     ;
(PID.TID 0000.0001) gravitySign = /* gravity orientation relative to vertical coordinate */
(PID.TID 0000.0001)                -1.000000000000000E+00
(PID.TID 0000.0001)     ;
(PID.TID 0000.0001) seaLev_Z =  /* reference height of sea-level [m] */
(PID.TID 0000.0001)                 0.000000000000000E+00
(PID.TID 0000.0001)     ;
(PID.TID 0000.0001) top_Pres =  /* reference pressure at the top [Pa] */
(PID.TID 0000.0001)                 0.000000000000000E+00
(PID.TID 0000.0001)     ;
(PID.TID 0000.0001) mass2rUnit = /* convert mass per unit area [kg/m2] to r-units [m] */
(PID.TID 0000.0001)                 9.718172983479105E-04
(PID.TID 0000.0001)     ;
(PID.TID 0000.0001) rUnit2mass = /* convert r-units [m] to mass per unit area [kg/m2] */
(PID.TID 0000.0001)                 1.029000000000000E+03
(PID.TID 0000.0001)     ;
(PID.TID 0000.0001) drC =   /* C spacing ( units of r ) */
(PID.TID 0000.0001)                 5.000000000000000E+00,      /* K =  1 */
(PID.TID 0000.0001)     6 @  1.000000000000000E+01,             /* K =  2:  7 */
(PID.TID 0000.0001)                 1.000500000000000E+01,      /* K =  8 */
(PID.TID 0000.0001)                 1.002000000000000E+01,      /* K =  9 */
(PID.TID 0000.0001)                 1.007000000000000E+01,      /* K = 10 */
(PID.TID 0000.0001)                 1.021500000000000E+01,      /* K = 11 */
(PID.TID 0000.0001)                 1.056000000000000E+01,      /* K = 12 */
(PID.TID 0000.0001)                 1.128000000000000E+01,      /* K = 13 */
(PID.TID 0000.0001)                 1.259000000000000E+01,      /* K = 14 */
(PID.TID 0000.0001)                 1.473000000000000E+01,      /* K = 15 */
(PID.TID 0000.0001)                 1.793000000000000E+01,      /* K = 16 */
(PID.TID 0000.0001)                 2.233500000000000E+01,      /* K = 17 */
(PID.TID 0000.0001)                 2.797500000000000E+01,      /* K = 18 */
(PID.TID 0000.0001)                 3.476000000000001E+01,      /* K = 19 */
(PID.TID 0000.0001)                 4.246000000000000E+01,      /* K = 20 */
(PID.TID 0000.0001)                 5.075000000000000E+01,      /* K = 21 */
(PID.TID 0000.0001)                 5.925000000000000E+01,      /* K = 22 */
(PID.TID 0000.0001)                 6.753999999999999E+01,      /* K = 23 */
(PID.TID 0000.0001)                 7.524000000000001E+01,      /* K = 24 */
(PID.TID 0000.0001)                 8.202500000000001E+01,      /* K = 25 */
(PID.TID 0000.0001)                 8.766500000000001E+01,      /* K = 26 */
(PID.TID 0000.0001)                 9.206999999999999E+01,      /* K = 27 */
(PID.TID 0000.0001)                 9.527000000000000E+01,      /* K = 28 */
(PID.TID 0000.0001)                 9.741499999999999E+01,      /* K = 29 */
(PID.TID 0000.0001)                 9.875000000000000E+01,      /* K = 30 */
(PID.TID 0000.0001)                 9.963000000000000E+01,      /* K = 31 */
(PID.TID 0000.0001)                 1.006700000000000E+02,      /* K = 32 */
(PID.TID 0000.0001)                 1.029450000000000E+02,      /* K = 33 */
(PID.TID 0000.0001)                 1.079450000000000E+02,      /* K = 34 */
(PID.TID 0000.0001)                 1.170800000000000E+02,      /* K = 35 */
(PID.TID 0000.0001)                 1.309600000000000E+02,      /* K = 36 */
(PID.TID 0000.0001)                 1.490150000000000E+02,      /* K = 37 */
(PID.TID 0000.0001)                 1.698850000000000E+02,      /* K = 38 */
(PID.TID 0000.0001)                 1.921900000000000E+02,      /* K = 39 */
(PID.TID 0000.0001)                 2.150250000000000E+02,      /* K = 40 */
(PID.TID 0000.0001)                 2.380000000000000E+02,      /* K = 41 */
(PID.TID 0000.0001)                 2.610000000000000E+02,      /* K = 42 */
(PID.TID 0000.0001)                 2.840000000000000E+02,      /* K = 43 */
(PID.TID 0000.0001)                 3.070000000000000E+02,      /* K = 44 */
(PID.TID 0000.0001)                 3.300000000000000E+02,      /* K = 45 */
(PID.TID 0000.0001)                 3.530000000000000E+02,      /* K = 46 */
(PID.TID 0000.0001)                 3.760000000000000E+02,      /* K = 47 */
(PID.TID 0000.0001)                 3.990000000000000E+02,      /* K = 48 */
(PID.TID 0000.0001)                 4.220000000000000E+02,      /* K = 49 */
(PID.TID 0000.0001)                 4.450000000000000E+02,      /* K = 50 */
(PID.TID 0000.0001)                 2.282500000000000E+02       /* K = 51 */
(PID.TID 0000.0001)     ;
(PID.TID 0000.0001) drF =   /* W spacing ( units of r ) */
(PID.TID 0000.0001)     7 @  1.000000000000000E+01,             /* K =  1:  7 */
(PID.TID 0000.0001)                 1.001000000000000E+01,      /* K =  8 */
(PID.TID 0000.0001)                 1.003000000000000E+01,      /* K =  9 */
(PID.TID 0000.0001)                 1.011000000000000E+01,      /* K = 10 */
(PID.TID 0000.0001)                 1.032000000000000E+01,      /* K = 11 */
(PID.TID 0000.0001)                 1.080000000000000E+01,      /* K = 12 */
(PID.TID 0000.0001)                 1.176000000000000E+01,      /* K = 13 */
(PID.TID 0000.0001)                 1.342000000000000E+01,      /* K = 14 */
(PID.TID 0000.0001)                 1.604000000000000E+01,      /* K = 15 */
(PID.TID 0000.0001)                 1.982000000000000E+01,      /* K = 16 */
(PID.TID 0000.0001)                 2.485000000000000E+01,      /* K = 17 */
(PID.TID 0000.0001)                 3.110000000000000E+01,      /* K = 18 */
(PID.TID 0000.0001)                 3.842000000000000E+01,      /* K = 19 */
(PID.TID 0000.0001)                 4.650000000000000E+01,      /* K = 20 */
(PID.TID 0000.0001)                 5.500000000000000E+01,      /* K = 21 */
(PID.TID 0000.0001)                 6.350000000000000E+01,      /* K = 22 */
(PID.TID 0000.0001)                 7.158000000000000E+01,      /* K = 23 */
(PID.TID 0000.0001)                 7.890000000000001E+01,      /* K = 24 */
(PID.TID 0000.0001)                 8.515000000000001E+01,      /* K = 25 */
(PID.TID 0000.0001)                 9.018000000000001E+01,      /* K = 26 */
(PID.TID 0000.0001)                 9.395999999999999E+01,      /* K = 27 */
(PID.TID 0000.0001)                 9.658000000000000E+01,      /* K = 28 */
(PID.TID 0000.0001)                 9.825000000000000E+01,      /* K = 29 */
(PID.TID 0000.0001)                 9.925000000000000E+01,      /* K = 30 */
(PID.TID 0000.0001)                 1.000100000000000E+02,      /* K = 31 */
(PID.TID 0000.0001)                 1.013300000000000E+02,      /* K = 32 */
(PID.TID 0000.0001)                 1.045600000000000E+02,      /* K = 33 */
(PID.TID 0000.0001)                 1.113300000000000E+02,      /* K = 34 */
(PID.TID 0000.0001)                 1.228300000000000E+02,      /* K = 35 */
(PID.TID 0000.0001)                 1.390900000000000E+02,      /* K = 36 */
(PID.TID 0000.0001)                 1.589400000000000E+02,      /* K = 37 */
(PID.TID 0000.0001)                 1.808300000000000E+02,      /* K = 38 */
(PID.TID 0000.0001)                 2.035500000000000E+02,      /* K = 39 */
(PID.TID 0000.0001)                 2.265000000000000E+02,      /* K = 40 */
(PID.TID 0000.0001)                 2.495000000000000E+02,      /* K = 41 */
(PID.TID 0000.0001)                 2.725000000000000E+02,      /* K = 42 */
(PID.TID 0000.0001)                 2.955000000000000E+02,      /* K = 43 */
(PID.TID 0000.0001)                 3.185000000000000E+02,      /* K = 44 */
(PID.TID 0000.0001)                 3.415000000000000E+02,      /* K = 45 */
(PID.TID 0000.0001)                 3.645000000000000E+02,      /* K = 46 */
(PID.TID 0000.0001)                 3.875000000000000E+02,      /* K = 47 */
(PID.TID 0000.0001)                 4.105000000000000E+02,      /* K = 48 */
(PID.TID 0000.0001)                 4.335000000000000E+02,      /* K = 49 */
(PID.TID 0000.0001)                 4.565000000000000E+02       /* K = 50 */
(PID.TID 0000.0001)     ;
(PID.TID 0000.0001) radius_fromHorizGrid = /* sphere Radius of input horiz. grid */
(PID.TID 0000.0001)                 6.370000000000000E+06
(PID.TID 0000.0001)     ;
(PID.TID 0000.0001) rSphere =  /* Radius ( ignored - cartesian, m - spherical ) */
(PID.TID 0000.0001)                 6.370000000000000E+06
(PID.TID 0000.0001)     ;
(PID.TID 0000.0001) deepAtmosphere = /* Deep/Shallow Atmosphere flag (True/False) */
(PID.TID 0000.0001)                   F
(PID.TID 0000.0001)     ;
(PID.TID 0000.0001) xC =  /* xC(:,1,:,1) : P-point X coord ( deg. or m if cartesian) */
(PID.TID 0000.0001)                -4.081468768806280E+01,      /* I =  1 */
(PID.TID 0000.0001)                -3.957104986057077E+01,      /* I =  2 */
(PID.TID 0000.0001)                -3.832217028656162E+01,      /* I =  3 */
(PID.TID 0000.0001)                -3.706844413107324E+01,      /* I =  4 */
(PID.TID 0000.0001)                -3.581028225779612E+01,      /* I =  5 */
(PID.TID 0000.0001)                -3.454811012006861E+01,      /* I =  6 */
(PID.TID 0000.0001)                -3.328236654497336E+01,      /* I =  7 */
(PID.TID 0000.0001)                -3.201350241727823E+01,      /* I =  8 */
(PID.TID 0000.0001)                -3.074197927113779E+01,      /* I =  9 */
(PID.TID 0000.0001)                -2.946826779826338E+01,      /* I = 10 */
(PID.TID 0000.0001)                -2.819284628214859E+01,      /* I = 11 */
(PID.TID 0000.0001)                -2.691619896217756E+01,      /* I = 12 */
(PID.TID 0000.0001)                -2.563881425705264E+01,      /* I = 13 */
(PID.TID 0000.0001)                -2.436118574294736E+01,      /* I = 14 */
(PID.TID 0000.0001)                -2.308380103782244E+01       /* I = 15 */
(PID.TID 0000.0001)     ;
(PID.TID 0000.0001) yC =  /* yC(1,:,1,:) : P-point Y coord ( deg. or m if cartesian) */
(PID.TID 0000.0001)                -8.146222940368236E+01,      /* J =  1 */
(PID.TID 0000.0001)                -8.113083815286421E+01,      /* J =  2 */
(PID.TID 0000.0001)                -8.079504828233755E+01,      /* J =  3 */
(PID.TID 0000.0001)                -8.045491317322768E+01,      /* J =  4 */
(PID.TID 0000.0001)                -8.011048280590389E+01,      /* J =  5 */
(PID.TID 0000.0001)                -7.976180430515704E+01,      /* J =  6 */
(PID.TID 0000.0001)                -7.940892240526760E+01,      /* J =  7 */
(PID.TID 0000.0001)                -7.905187984845006E+01,      /* J =  8 */
(PID.TID 0000.0001)                -7.869071772754813E+01,      /* J =  9 */
(PID.TID 0000.0001)                -7.832547578199167E+01,      /* J = 10 */
(PID.TID 0000.0001)                -7.795619265432416E+01,      /* J = 11 */
(PID.TID 0000.0001)                -7.758290611340497E+01,      /* J = 12 */
(PID.TID 0000.0001)                -7.720565324926896E+01,      /* J = 13 */
(PID.TID 0000.0001)                -7.682447064385434E+01,      /* J = 14 */
(PID.TID 0000.0001)                -7.643939452107085E+01,      /* J = 15 */
(PID.TID 0000.0001)                -7.605046087901695E+01,      /* J = 16 */
(PID.TID 0000.0001)                -7.565770560699295E+01,      /* J = 17 */
(PID.TID 0000.0001)                -7.526116458910658E+01,      /* J = 18 */
(PID.TID 0000.0001)                -7.486087379640449E+01,      /* J = 19 */
(PID.TID 0000.0001)                -7.445686936886233E+01,      /* J = 20 */
(PID.TID 0000.0001)                -7.404918768854837E+01,      /* J = 21 */
(PID.TID 0000.0001)                -7.363786544493549E+01,      /* J = 22 */
(PID.TID 0000.0001)                -7.322293969328220E+01,      /* J = 23 */
(PID.TID 0000.0001)                -7.280444790682334E+01,      /* J = 24 */
(PID.TID 0000.0001)                -7.238242802328044E+01,      /* J = 25 */
(PID.TID 0000.0001)                -7.195691848614972E+01,      /* J = 26 */
(PID.TID 0000.0001)                -7.152795828082729E+01,      /* J = 27 */
(PID.TID 0000.0001)                -7.109558696482472E+01,      /* J = 28 */
(PID.TID 0000.0001)                -7.065984468855757E+01,      /* J = 29 */
(PID.TID 0000.0001)                -7.022077218177122E+01       /* J = 30 */
(PID.TID 0000.0001)     ;
(PID.TID 0000.0001) rcoord = /* P-point R coordinate (  units of r ) */
(PID.TID 0000.0001)                -5.000000000000000E+00,      /* K =  1 */
(PID.TID 0000.0001)                -1.500000000000000E+01,      /* K =  2 */
(PID.TID 0000.0001)                -2.500000000000000E+01,      /* K =  3 */
(PID.TID 0000.0001)                -3.500000000000000E+01,      /* K =  4 */
(PID.TID 0000.0001)                -4.500000000000000E+01,      /* K =  5 */
(PID.TID 0000.0001)                -5.500000000000000E+01,      /* K =  6 */
(PID.TID 0000.0001)                -6.500000000000000E+01,      /* K =  7 */
(PID.TID 0000.0001)                -7.500500000000000E+01,      /* K =  8 */
(PID.TID 0000.0001)                -8.502499999999999E+01,      /* K =  9 */
(PID.TID 0000.0001)                -9.509500000000000E+01,      /* K = 10 */
(PID.TID 0000.0001)                -1.053100000000000E+02,      /* K = 11 */
(PID.TID 0000.0001)                -1.158700000000000E+02,      /* K = 12 */
(PID.TID 0000.0001)                -1.271500000000000E+02,      /* K = 13 */
(PID.TID 0000.0001)                -1.397400000000000E+02,      /* K = 14 */
(PID.TID 0000.0001)                -1.544700000000000E+02,      /* K = 15 */
(PID.TID 0000.0001)                -1.724000000000000E+02,      /* K = 16 */
(PID.TID 0000.0001)                -1.947350000000000E+02,      /* K = 17 */
(PID.TID 0000.0001)                -2.227100000000000E+02,      /* K = 18 */
(PID.TID 0000.0001)                -2.574700000000000E+02,      /* K = 19 */
(PID.TID 0000.0001)                -2.999300000000000E+02,      /* K = 20 */
(PID.TID 0000.0001)                -3.506800000000000E+02,      /* K = 21 */
(PID.TID 0000.0001)                -4.099300000000000E+02,      /* K = 22 */
(PID.TID 0000.0001)                -4.774700000000000E+02,      /* K = 23 */
(PID.TID 0000.0001)                -5.527100000000000E+02,      /* K = 24 */
(PID.TID 0000.0001)                -6.347350000000000E+02,      /* K = 25 */
(PID.TID 0000.0001)                -7.224000000000000E+02,      /* K = 26 */
(PID.TID 0000.0001)                -8.144700000000000E+02,      /* K = 27 */
(PID.TID 0000.0001)                -9.097400000000000E+02,      /* K = 28 */
(PID.TID 0000.0001)                -1.007155000000000E+03,      /* K = 29 */
(PID.TID 0000.0001)                -1.105905000000000E+03,      /* K = 30 */
(PID.TID 0000.0001)                -1.205535000000000E+03,      /* K = 31 */
(PID.TID 0000.0001)                -1.306205000000000E+03,      /* K = 32 */
(PID.TID 0000.0001)                -1.409150000000000E+03,      /* K = 33 */
(PID.TID 0000.0001)                -1.517095000000000E+03,      /* K = 34 */
(PID.TID 0000.0001)                -1.634175000000000E+03,      /* K = 35 */
(PID.TID 0000.0001)                -1.765135000000000E+03,      /* K = 36 */
(PID.TID 0000.0001)                -1.914150000000000E+03,      /* K = 37 */
(PID.TID 0000.0001)                -2.084035000000000E+03,      /* K = 38 */
(PID.TID 0000.0001)                -2.276225000000000E+03,      /* K = 39 */
(PID.TID 0000.0001)                -2.491250000000000E+03,      /* K = 40 */
(PID.TID 0000.0001)                -2.729250000000000E+03,      /* K = 41 */
(PID.TID 0000.0001)                -2.990250000000000E+03,      /* K = 42 */
(PID.TID 0000.0001)                -3.274250000000000E+03,      /* K = 43 */
(PID.TID 0000.0001)                -3.581250000000000E+03,      /* K = 44 */
(PID.TID 0000.0001)                -3.911250000000000E+03,      /* K = 45 */
(PID.TID 0000.0001)                -4.264250000000000E+03,      /* K = 46 */
(PID.TID 0000.0001)                -4.640250000000000E+03,      /* K = 47 */
(PID.TID 0000.0001)                -5.039250000000000E+03,      /* K = 48 */
(PID.TID 0000.0001)                -5.461250000000000E+03,      /* K = 49 */
(PID.TID 0000.0001)                -5.906250000000000E+03       /* K = 50 */
(PID.TID 0000.0001)     ;
(PID.TID 0000.0001) rF =   /* W-Interf. R coordinate (  units of r ) */
(PID.TID 0000.0001)                 0.000000000000000E+00,      /* K =  1 */
(PID.TID 0000.0001)                -1.000000000000000E+01,      /* K =  2 */
(PID.TID 0000.0001)                -2.000000000000000E+01,      /* K =  3 */
(PID.TID 0000.0001)                -3.000000000000000E+01,      /* K =  4 */
(PID.TID 0000.0001)                -4.000000000000000E+01,      /* K =  5 */
(PID.TID 0000.0001)                -5.000000000000000E+01,      /* K =  6 */
(PID.TID 0000.0001)                -6.000000000000000E+01,      /* K =  7 */
(PID.TID 0000.0001)                -7.000000000000000E+01,      /* K =  8 */
(PID.TID 0000.0001)                -8.001000000000001E+01,      /* K =  9 */
(PID.TID 0000.0001)                -9.004000000000001E+01,      /* K = 10 */
(PID.TID 0000.0001)                -1.001500000000000E+02,      /* K = 11 */
(PID.TID 0000.0001)                -1.104700000000000E+02,      /* K = 12 */
(PID.TID 0000.0001)                -1.212700000000000E+02,      /* K = 13 */
(PID.TID 0000.0001)                -1.330300000000000E+02,      /* K = 14 */
(PID.TID 0000.0001)                -1.464500000000000E+02,      /* K = 15 */
(PID.TID 0000.0001)                -1.624900000000000E+02,      /* K = 16 */
(PID.TID 0000.0001)                -1.823100000000000E+02,      /* K = 17 */
(PID.TID 0000.0001)                -2.071600000000000E+02,      /* K = 18 */
(PID.TID 0000.0001)                -2.382600000000000E+02,      /* K = 19 */
(PID.TID 0000.0001)                -2.766799999999999E+02,      /* K = 20 */
(PID.TID 0000.0001)                -3.231799999999999E+02,      /* K = 21 */
(PID.TID 0000.0001)                -3.781799999999999E+02,      /* K = 22 */
(PID.TID 0000.0001)                -4.416799999999999E+02,      /* K = 23 */
(PID.TID 0000.0001)                -5.132600000000000E+02,      /* K = 24 */
(PID.TID 0000.0001)                -5.921600000000000E+02,      /* K = 25 */
(PID.TID 0000.0001)                -6.773099999999999E+02,      /* K = 26 */
(PID.TID 0000.0001)                -7.674900000000000E+02,      /* K = 27 */
(PID.TID 0000.0001)                -8.614500000000000E+02,      /* K = 28 */
(PID.TID 0000.0001)                -9.580300000000001E+02,      /* K = 29 */
(PID.TID 0000.0001)                -1.056280000000000E+03,      /* K = 30 */
(PID.TID 0000.0001)                -1.155530000000000E+03,      /* K = 31 */
(PID.TID 0000.0001)                -1.255540000000000E+03,      /* K = 32 */
(PID.TID 0000.0001)                -1.356870000000000E+03,      /* K = 33 */
(PID.TID 0000.0001)                -1.461430000000000E+03,      /* K = 34 */
(PID.TID 0000.0001)                -1.572760000000000E+03,      /* K = 35 */
(PID.TID 0000.0001)                -1.695590000000000E+03,      /* K = 36 */
(PID.TID 0000.0001)                -1.834680000000000E+03,      /* K = 37 */
(PID.TID 0000.0001)                -1.993620000000000E+03,      /* K = 38 */
(PID.TID 0000.0001)                -2.174450000000000E+03,      /* K = 39 */
(PID.TID 0000.0001)                -2.378000000000000E+03,      /* K = 40 */
(PID.TID 0000.0001)                -2.604500000000000E+03,      /* K = 41 */
(PID.TID 0000.0001)                -2.854000000000000E+03,      /* K = 42 */
(PID.TID 0000.0001)                -3.126500000000000E+03,      /* K = 43 */
(PID.TID 0000.0001)                -3.422000000000000E+03,      /* K = 44 */
(PID.TID 0000.0001)                -3.740500000000000E+03,      /* K = 45 */
(PID.TID 0000.0001)                -4.082000000000000E+03,      /* K = 46 */
(PID.TID 0000.0001)                -4.446500000000000E+03,      /* K = 47 */
(PID.TID 0000.0001)                -4.834000000000000E+03,      /* K = 48 */
(PID.TID 0000.0001)                -5.244500000000000E+03,      /* K = 49 */
(PID.TID 0000.0001)                -5.678000000000000E+03,      /* K = 50 */
(PID.TID 0000.0001)                -6.134500000000000E+03       /* K = 51 */
(PID.TID 0000.0001)     ;
(PID.TID 0000.0001) deepFacC = /* deep-model grid factor @ cell-Center (-) */
(PID.TID 0000.0001)    50 @  1.000000000000000E+00              /* K =  1: 50 */
(PID.TID 0000.0001)     ;
(PID.TID 0000.0001) deepFacF = /* deep-model grid factor @ W-Interface (-) */
(PID.TID 0000.0001)    51 @  1.000000000000000E+00              /* K =  1: 51 */
(PID.TID 0000.0001)     ;
(PID.TID 0000.0001) rVel2wUnit = /* convert units: rVel -> wSpeed (=1 if z-coord)*/
(PID.TID 0000.0001)    51 @  1.000000000000000E+00              /* K =  1: 51 */
(PID.TID 0000.0001)     ;
(PID.TID 0000.0001) wUnit2rVel = /* convert units: wSpeed -> rVel (=1 if z-coord)*/
(PID.TID 0000.0001)    51 @  1.000000000000000E+00              /* K =  1: 51 */
(PID.TID 0000.0001)     ;
(PID.TID 0000.0001) dBdrRef = /* Vertical grad. of reference buoyancy [(m/s/r)^2] */
(PID.TID 0000.0001)     3 @  0.000000000000000E+00,             /* K =  1:  3 */
(PID.TID 0000.0001)                 2.706065538651213E-04,      /* K =  4 */
(PID.TID 0000.0001)     2 @  0.000000000000000E+00,             /* K =  5:  6 */
(PID.TID 0000.0001)                 2.632794562663490E-04,      /* K =  7 */
(PID.TID 0000.0001)                 2.554318021231947E-04,      /* K =  8 */
(PID.TID 0000.0001)                 0.000000000000000E+00,      /* K =  9 */
(PID.TID 0000.0001)                 2.461524232360562E-04,      /* K = 10 */
(PID.TID 0000.0001)                 2.348694431245364E-04,      /* K = 11 */
(PID.TID 0000.0001)                 0.000000000000000E+00,      /* K = 12 */
(PID.TID 0000.0001)                 2.056847859884567E-04,      /* K = 13 */
(PID.TID 0000.0001)                 1.777764506003336E-04,      /* K = 14 */
(PID.TID 0000.0001)                 0.000000000000000E+00,      /* K = 15 */
(PID.TID 0000.0001)                 1.203533867077665E-04,      /* K = 16 */
(PID.TID 0000.0001)                 9.288540355629585E-05,      /* K = 17 */
(PID.TID 0000.0001)                 7.115862770365155E-05,      /* K = 18 */
(PID.TID 0000.0001)                 5.484365820540037E-05,      /* K = 19 */
(PID.TID 0000.0001)                 4.290935507108109E-05,      /* K = 20 */
(PID.TID 0000.0001)                 6.658747741708151E-05,      /* K = 21 */
(PID.TID 0000.0001)                 0.000000000000000E+00,      /* K = 22 */
(PID.TID 0000.0001)                 2.323718420338827E-05,      /* K = 23 */
(PID.TID 0000.0001)                 1.974682037962757E-05,      /* K = 24 */
(PID.TID 0000.0001)                 1.709468932536602E-05,      /* K = 25 */
(PID.TID 0000.0001)                 0.000000000000000E+00,      /* K = 26 */
(PID.TID 0000.0001)                 1.455436545977052E-05,      /* K = 27 */
(PID.TID 0000.0001)                 0.000000000000000E+00,      /* K = 28 */
(PID.TID 0000.0001)                 1.315287111980149E-05,      /* K = 29 */
(PID.TID 0000.0001)     2 @  0.000000000000000E+00,             /* K = 30: 31 */
(PID.TID 0000.0001)                 1.240968507885233E-05,      /* K = 32 */
(PID.TID 0000.0001)     2 @  0.000000000000000E+00,             /* K = 33: 34 */
(PID.TID 0000.0001)                 1.045141607962718E-05,      /* K = 35 */
(PID.TID 0000.0001)     3 @  0.000000000000000E+00,             /* K = 36: 38 */
(PID.TID 0000.0001)                 6.628797113720784E-06,      /* K = 39 */
(PID.TID 0000.0001)    11 @  0.000000000000000E+00              /* K = 40: 50 */
(PID.TID 0000.0001)     ;
(PID.TID 0000.0001) rotateGrid = /* use rotated grid ( True/False ) */
(PID.TID 0000.0001)                   F
(PID.TID 0000.0001)     ;
(PID.TID 0000.0001) phiEuler = /* Euler angle, rotation about original z-coordinate [rad] */
(PID.TID 0000.0001)                 0.000000000000000E+00
(PID.TID 0000.0001)     ;
(PID.TID 0000.0001) thetaEuler = /* Euler angle, rotation about new x-coordinate [rad] */
(PID.TID 0000.0001)                 0.000000000000000E+00
(PID.TID 0000.0001)     ;
(PID.TID 0000.0001) psiEuler = /* Euler angle, rotation about new z-coordinate [rad] */
(PID.TID 0000.0001)                 0.000000000000000E+00
(PID.TID 0000.0001)     ;
(PID.TID 0000.0001) dxF =  /* dxF(:,1,:,1) ( units: m ) */
(PID.TID 0000.0001)                 2.071152825743187E+04,      /* I =  1 */
(PID.TID 0000.0001)                 2.070365142756831E+04,      /* I =  2 */
(PID.TID 0000.0001)                 2.069635296570141E+04,      /* I =  3 */
(PID.TID 0000.0001)                 2.068965358413176E+04,      /* I =  4 */
(PID.TID 0000.0001)                 2.068357195583360E+04,      /* I =  5 */
(PID.TID 0000.0001)                 2.067812475356784E+04,      /* I =  6 */
(PID.TID 0000.0001)                 2.067332670125947E+04,      /* I =  7 */
(PID.TID 0000.0001)                 2.066919060389092E+04,      /* I =  8 */
(PID.TID 0000.0001)                 2.066572738985245E+04,      /* I =  9 */
(PID.TID 0000.0001)                 2.066294615597989E+04,      /* I = 10 */
(PID.TID 0000.0001)                 2.066085425372315E+04,      /* I = 11 */
(PID.TID 0000.0001)                 2.065945771525925E+04,      /* I = 12 */
(PID.TID 0000.0001)                 2.065874381268158E+04,      /* I = 13 */
(PID.TID 0000.0001)                 2.065874381268158E+04,      /* I = 14 */
(PID.TID 0000.0001)                 2.065945771525925E+04       /* I = 15 */
(PID.TID 0000.0001)     ;
(PID.TID 0000.0001) dxF =  /* dxF(1,:,1,:) ( units: m ) */
(PID.TID 0000.0001)                 2.071152825743187E+04,      /* J =  1 */
(PID.TID 0000.0001)                 2.109117491456033E+04,      /* J =  2 */
(PID.TID 0000.0001)                 2.148525648961724E+04,      /* J =  3 */
(PID.TID 0000.0001)                 2.189377348588603E+04,      /* J =  4 */
(PID.TID 0000.0001)                 2.231672440915243E+04,      /* J =  5 */
(PID.TID 0000.0001)                 2.275410689480659E+04,      /* J =  6 */
(PID.TID 0000.0001)                 2.320591873318126E+04,      /* J =  7 */
(PID.TID 0000.0001)                 2.367215879054831E+04,      /* J =  8 */
(PID.TID 0000.0001)                 2.415282782538908E+04,      /* J =  9 */
(PID.TID 0000.0001)                 2.464792920101809E+04,      /* J = 10 */
(PID.TID 0000.0001)                 2.515746949702995E+04,      /* J = 11 */
(PID.TID 0000.0001)                 2.568145902315334E+04,      /* J = 12 */
(PID.TID 0000.0001)                 2.621991223981432E+04,      /* J = 13 */
(PID.TID 0000.0001)                 2.677284809033052E+04,      /* J = 14 */
(PID.TID 0000.0001)                 2.734029025013979E+04,      /* J = 15 */
(PID.TID 0000.0001)                 2.792226729855568E+04,      /* J = 16 */
(PID.TID 0000.0001)                 2.851881281852892E+04,      /* J = 17 */
(PID.TID 0000.0001)                 2.912996543046302E+04,      /* J = 18 */
(PID.TID 0000.0001)                 2.975576876502299E+04,      /* J = 19 */
(PID.TID 0000.0001)                 3.039627138062681E+04,      /* J = 20 */
(PID.TID 0000.0001)                 3.105152663065675E+04,      /* J = 21 */
(PID.TID 0000.0001)                 3.172159248542454E+04,      /* J = 22 */
(PID.TID 0000.0001)                 3.240653131349731E+04,      /* J = 23 */
(PID.TID 0000.0001)                 3.310640962675057E+04,      /* J = 24 */
(PID.TID 0000.0001)                 3.382129779388320E+04,      /* J = 25 */
(PID.TID 0000.0001)                 3.455126972555294E+04,      /* J = 26 */
(PID.TID 0000.0001)                 3.529640253603521E+04,      /* J = 27 */
(PID.TID 0000.0001)                 3.605677618612848E+04,      /* J = 28 */
(PID.TID 0000.0001)                 3.683247311866502E+04,      /* J = 29 */
(PID.TID 0000.0001)                 3.762357793548112E+04       /* J = 30 */
(PID.TID 0000.0001)     ;
(PID.TID 0000.0001) dyF =  /* dyF(:,1,:,1) ( units: m ) */
(PID.TID 0000.0001)                 3.700742300337598E+04,      /* I =  1 */
(PID.TID 0000.0001)                 3.707905556394973E+04,      /* I =  2 */
(PID.TID 0000.0001)                 3.714471828319018E+04,      /* I =  3 */
(PID.TID 0000.0001)                 3.720441078960103E+04,      /* I =  4 */
(PID.TID 0000.0001)                 3.725813297080282E+04,      /* I =  5 */
(PID.TID 0000.0001)                 3.730588490725751E+04,      /* I =  6 */
(PID.TID 0000.0001)                 3.734766681359038E+04,      /* I =  7 */
(PID.TID 0000.0001)                 3.738347898712025E+04,      /* I =  8 */
(PID.TID 0000.0001)                 3.741332176340629E+04,      /* I =  9 */
(PID.TID 0000.0001)                 3.743719547859261E+04,      /* I = 10 */
(PID.TID 0000.0001)                 3.745510043824806E+04,      /* I = 11 */
(PID.TID 0000.0001)                 3.746703689267323E+04,      /* I = 12 */
(PID.TID 0000.0001)     2 @  3.747300501832417E+04,             /* I = 13: 14 */
(PID.TID 0000.0001)                 3.746703689267323E+04       /* I = 15 */
(PID.TID 0000.0001)     ;
(PID.TID 0000.0001) dyF =  /* dyF(1,:,1,:) ( units: m ) */
(PID.TID 0000.0001)                 3.700742300337598E+04,      /* J =  1 */
(PID.TID 0000.0001)                 3.745555642044499E+04,      /* J =  2 */
(PID.TID 0000.0001)                 3.790206217653974E+04,      /* J =  3 */
(PID.TID 0000.0001)                 3.834684105117956E+04,      /* J =  4 */
(PID.TID 0000.0001)                 3.878979459357282E+04,      /* J =  5 */
(PID.TID 0000.0001)                 3.923082521328924E+04,      /* J =  6 */
(PID.TID 0000.0001)                 3.966983623246408E+04,      /* J =  7 */
(PID.TID 0000.0001)                 4.010673190475840E+04,      /* J =  8 */
(PID.TID 0000.0001)                 4.054141740950450E+04,      /* J =  9 */
(PID.TID 0000.0001)                 4.097379882434454E+04,      /* J = 10 */
(PID.TID 0000.0001)                 4.140378308084428E+04,      /* J = 11 */
(PID.TID 0000.0001)                 4.183127790875583E+04,      /* J = 12 */
(PID.TID 0000.0001)                 4.225619177206317E+04,      /* J = 13 */
(PID.TID 0000.0001)                 4.267843379867976E+04,      /* J = 14 */
(PID.TID 0000.0001)                 4.309791371221616E+04,      /* J = 15 */
(PID.TID 0000.0001)                 4.351454176087940E+04,      /* J = 16 */
(PID.TID 0000.0001)                 4.392822864881465E+04,      /* J = 17 */
(PID.TID 0000.0001)                 4.433888547805120E+04,      /* J = 18 */
(PID.TID 0000.0001)                 4.474642369096899E+04,      /* J = 19 */
(PID.TID 0000.0001)                 4.515075502217317E+04,      /* J = 20 */
(PID.TID 0000.0001)                 4.555179145554101E+04,      /* J = 21 */
(PID.TID 0000.0001)                 4.594944520275577E+04,      /* J = 22 */
(PID.TID 0000.0001)                 4.634362867401398E+04,      /* J = 23 */
(PID.TID 0000.0001)                 4.673425447947427E+04,      /* J = 24 */
(PID.TID 0000.0001)                 4.712123544873745E+04,      /* J = 25 */
(PID.TID 0000.0001)                 4.750448467975499E+04,      /* J = 26 */
(PID.TID 0000.0001)                 4.788391567392174E+04,      /* J = 27 */
(PID.TID 0000.0001)                 4.825944271092693E+04,      /* J = 28 */
(PID.TID 0000.0001)                 4.863098220111143E+04,      /* J = 29 */
(PID.TID 0000.0001)                 4.899845499569884E+04       /* J = 30 */
(PID.TID 0000.0001)     ;
(PID.TID 0000.0001) dxG =  /* dxG(:,1,:,1) ( units: m ) */
(PID.TID 0000.0001)                 2.052711702021451E+04,      /* I =  1 */
(PID.TID 0000.0001)                 2.051953983526162E+04,      /* I =  2 */
(PID.TID 0000.0001)                 2.051251425926268E+04,      /* I =  3 */
(PID.TID 0000.0001)                 2.050606148013825E+04,      /* I =  4 */
(PID.TID 0000.0001)                 2.050020059906299E+04,      /* I =  5 */
(PID.TID 0000.0001)                 2.049494867086169E+04,      /* I =  6 */
(PID.TID 0000.0001)                 2.049032075633103E+04,      /* I =  7 */
(PID.TID 0000.0001)                 2.048632995314923E+04,      /* I =  8 */
(PID.TID 0000.0001)                 2.048298743895549E+04,      /* I =  9 */
(PID.TID 0000.0001)                 2.048030251694177E+04,      /* I = 10 */
(PID.TID 0000.0001)                 2.047828270203973E+04,      /* I = 11 */
(PID.TID 0000.0001)                 2.047693414389448E+04,      /* I = 12 */
(PID.TID 0000.0001)     2 @  2.047624433858785E+04,             /* I = 13: 14 */
(PID.TID 0000.0001)                 2.047693414389443E+04       /* I = 15 */
(PID.TID 0000.0001)     ;
(PID.TID 0000.0001) dxG =  /* dxG(1,:,1,:) ( units: m ) */
(PID.TID 0000.0001)                 2.052711702021451E+04,      /* J =  1 */
(PID.TID 0000.0001)                 2.089954736357391E+04,      /* J =  2 */
(PID.TID 0000.0001)                 2.128641124518697E+04,      /* J =  3 */
(PID.TID 0000.0001)                 2.168771062037700E+04,      /* J =  4 */
(PID.TID 0000.0001)                 2.210344484655194E+04,      /* J =  5 */
(PID.TID 0000.0001)                 2.253361185972884E+04,      /* J =  6 */
(PID.TID 0000.0001)                 2.297820925105574E+04,      /* J =  7 */
(PID.TID 0000.0001)                 2.343723524028478E+04,      /* J =  8 */
(PID.TID 0000.0001)                 2.391068954427550E+04,      /* J =  9 */
(PID.TID 0000.0001)                 2.439857414125275E+04,      /* J = 10 */
(PID.TID 0000.0001)                 2.490089393241153E+04,      /* J = 11 */
(PID.TID 0000.0001)                 2.541765730414359E+04,      /* J = 12 */
(PID.TID 0000.0001)                 2.594887659459613E+04,      /* J = 13 */
(PID.TID 0000.0001)                 2.649456846940333E+04,      /* J = 14 */
(PID.TID 0000.0001)                 2.705475421181358E+04,      /* J = 15 */
(PID.TID 0000.0001)                 2.762945993231310E+04,      /* J = 16 */
(PID.TID 0000.0001)                 2.821871670385097E+04,      /* J = 17 */
(PID.TID 0000.0001)                 2.882256062780631E+04,      /* J = 18 */
(PID.TID 0000.0001)                 2.944103283669238E+04,      /* J = 19 */
(PID.TID 0000.0001)                 3.007417943861200E+04,      /* J = 20 */
(PID.TID 0000.0001)                 3.072205140902393E+04,      /* J = 21 */
(PID.TID 0000.0001)                 3.138470443467240E+04,      /* J = 22 */
(PID.TID 0000.0001)                 3.206219871470027E+04,      /* J = 23 */
(PID.TID 0000.0001)                 3.275459872326910E+04,      /* J = 24 */
(PID.TID 0000.0001)                 3.346197293831744E+04,      /* J = 25 */
(PID.TID 0000.0001)                 3.418439354048331E+04,      /* J = 26 */
(PID.TID 0000.0001)                 3.492193608585089E+04,      /* J = 27 */
(PID.TID 0000.0001)                 3.567467915738818E+04,      /* J = 28 */
(PID.TID 0000.0001)                 3.644270400216877E+04,      /* J = 29 */
(PID.TID 0000.0001)                 3.722609417427087E+04       /* J = 30 */
(PID.TID 0000.0001)     ;
(PID.TID 0000.0001) dyG =  /* dyG(:,1,:,1) ( units: m ) */
(PID.TID 0000.0001)                 3.696936823759973E+04,      /* I =  1 */
(PID.TID 0000.0001)                 3.704398547852144E+04,      /* I =  2 */
(PID.TID 0000.0001)                 3.711263318385338E+04,      /* I =  3 */
(PID.TID 0000.0001)                 3.717531082528212E+04,      /* I =  4 */
(PID.TID 0000.0001)                 3.723201816961422E+04,      /* I =  5 */
(PID.TID 0000.0001)                 3.728275520872145E+04,      /* I =  6 */
(PID.TID 0000.0001)                 3.732752209699158E+04,      /* I =  7 */
(PID.TID 0000.0001)                 3.736631909640826E+04,      /* I =  8 */
(PID.TID 0000.0001)                 3.739914652852553E+04,      /* I =  9 */
(PID.TID 0000.0001)                 3.742600473350589E+04,      /* I = 10 */
(PID.TID 0000.0001)                 3.744689403567852E+04,      /* I = 11 */
(PID.TID 0000.0001)                 3.746181471567877E+04,      /* I = 12 */
(PID.TID 0000.0001)                 3.747076698884368E+04,      /* I = 13 */
(PID.TID 0000.0001)                 3.747376174977726E+04,      /* I = 14 */
(PID.TID 0000.0001)                 3.747076698884368E+04       /* I = 15 */
(PID.TID 0000.0001)     ;
(PID.TID 0000.0001) dyG =  /* dyG(1,:,1,:) ( units: m ) */
(PID.TID 0000.0001)                 3.696936823759973E+04,      /* J =  1 */
(PID.TID 0000.0001)                 3.741746190559281E+04,      /* J =  2 */
(PID.TID 0000.0001)                 3.786390067184393E+04,      /* J =  3 */
(PID.TID 0000.0001)                 3.830858172733455E+04,      /* J =  4 */
(PID.TID 0000.0001)                 3.875140319955796E+04,      /* J =  5 */
(PID.TID 0000.0001)                 3.919226424948571E+04,      /* J =  6 */
(PID.TID 0000.0001)                 3.963106512715793E+04,      /* J =  7 */
(PID.TID 0000.0001)                 4.006770719102380E+04,      /* J =  8 */
(PID.TID 0000.0001)                 4.050209290047463E+04,      /* J =  9 */
(PID.TID 0000.0001)                 4.093412578484027E+04,      /* J = 10 */
(PID.TID 0000.0001)                 4.136371039407872E+04,      /* J = 11 */
(PID.TID 0000.0001)                 4.179075223673176E+04,      /* J = 12 */
(PID.TID 0000.0001)                 4.221515770920290E+04,      /* J = 13 */
(PID.TID 0000.0001)                 4.263683401805614E+04,      /* J = 14 */
(PID.TID 0000.0001)                 4.305568910412182E+04,      /* J = 15 */
(PID.TID 0000.0001)                 4.347163156363047E+04,      /* J = 16 */
(PID.TID 0000.0001)                 4.388457057225752E+04,      /* J = 17 */
(PID.TID 0000.0001)                 4.429441581934092E+04,      /* J = 18 */
(PID.TID 0000.0001)                 4.470107744374240E+04,      /* J = 19 */
(PID.TID 0000.0001)                 4.510446597891348E+04,      /* J = 20 */
(PID.TID 0000.0001)                 4.550449230395439E+04,      /* J = 21 */
(PID.TID 0000.0001)                 4.590106761654920E+04,      /* J = 22 */
(PID.TID 0000.0001)                 4.629410339849156E+04,      /* J = 23 */
(PID.TID 0000.0001)                 4.668351141269982E+04,      /* J = 24 */
(PID.TID 0000.0001)                 4.706920371856177E+04,      /* J = 25 */
(PID.TID 0000.0001)                 4.745109271730031E+04,      /* J = 26 */
(PID.TID 0000.0001)                 4.782909128417812E+04,      /* J = 27 */
(PID.TID 0000.0001)                 4.820311314005602E+04,      /* J = 28 */
(PID.TID 0000.0001)                 4.857307420014453E+04,      /* J = 29 */
(PID.TID 0000.0001)                 4.893889490827491E+04       /* J = 30 */
(PID.TID 0000.0001)     ;
(PID.TID 0000.0001) dxC =  /* dxC(:,1,:,1) ( units: m ) */
(PID.TID 0000.0001)                 2.071567651695695E+04,      /* I =  1 */
(PID.TID 0000.0001)                 2.070751892245589E+04,      /* I =  2 */
(PID.TID 0000.0001)                 2.069992855779408E+04,      /* I =  3 */
(PID.TID 0000.0001)                 2.069292717562287E+04,      /* I =  4 */
(PID.TID 0000.0001)                 2.068653446229046E+04,      /* I =  5 */
(PID.TID 0000.0001)                 2.068076808552306E+04,      /* I =  6 */
(PID.TID 0000.0001)                 2.067564373903614E+04,      /* I =  7 */
(PID.TID 0000.0001)                 2.067117518190149E+04,      /* I =  8 */
(PID.TID 0000.0001)                 2.066737427558298E+04,      /* I =  9 */
(PID.TID 0000.0001)                 2.066425102685107E+04,      /* I = 10 */
(PID.TID 0000.0001)                 2.066181364132844E+04,      /* I = 11 */
(PID.TID 0000.0001)                 2.066006869803818E+04,      /* I = 12 */
(PID.TID 0000.0001)                 2.065902266229015E+04,      /* I = 13 */
(PID.TID 0000.0001)                 2.065863826775786E+04,      /* I = 14 */
(PID.TID 0000.0001)                 2.065902266229016E+04       /* I = 15 */
(PID.TID 0000.0001)     ;
(PID.TID 0000.0001) dxC =  /* dxC(1,:,1,:) ( units: m ) */
(PID.TID 0000.0001)                 2.071567651695695E+04,      /* J =  1 */
(PID.TID 0000.0001)                 2.109563672137949E+04,      /* J =  2 */
(PID.TID 0000.0001)                 2.149002149497106E+04,      /* J =  3 */
(PID.TID 0000.0001)                 2.189882927482529E+04,      /* J =  4 */
(PID.TID 0000.0001)                 2.232205646389843E+04,      /* J =  5 */
(PID.TID 0000.0001)                 2.275969855854128E+04,      /* J =  6 */
(PID.TID 0000.0001)                 2.321175117362029E+04,      /* J =  7 */
(PID.TID 0000.0001)                 2.367821096276529E+04,      /* J =  8 */
(PID.TID 0000.0001)                 2.415907643347346E+04,      /* J =  9 */
(PID.TID 0000.0001)                 2.465434865814045E+04,      /* J = 10 */
(PID.TID 0000.0001)                 2.516403188365780E+04,      /* J = 11 */
(PID.TID 0000.0001)                 2.568813404310613E+04,      /* J = 12 */
(PID.TID 0000.0001)                 2.622666717399572E+04,      /* J = 13 */
(PID.TID 0000.0001)                 2.677964774799169E+04,      /* J = 14 */
(PID.TID 0000.0001)                 2.734709691757753E+04,      /* J = 15 */
(PID.TID 0000.0001)                 2.792904068517491E+04,      /* J = 16 */
(PID.TID 0000.0001)                 2.852551000032625E+04,      /* J = 17 */
(PID.TID 0000.0001)                 2.913654079081990E+04,      /* J = 18 */
(PID.TID 0000.0001)                 2.976217393306023E+04,      /* J = 19 */
(PID.TID 0000.0001)                 3.040245516699173E+04,      /* J = 20 */
(PID.TID 0000.0001)                 3.105743496108396E+04,      /* J = 21 */
(PID.TID 0000.0001)                 3.172716833208323E+04,      /* J = 22 */
(PID.TID 0000.0001)                 3.241171462422546E+04,      /* J = 23 */
(PID.TID 0000.0001)                 3.311113725244482E+04,      /* J = 24 */
(PID.TID 0000.0001)                 3.382550341391024E+04,      /* J = 25 */
(PID.TID 0000.0001)                 3.455488377140061E+04,      /* J = 26 */
(PID.TID 0000.0001)                 3.529935211332738E+04,      /* J = 27 */
(PID.TID 0000.0001)                 3.605898499520765E+04,      /* J = 28 */
(PID.TID 0000.0001)                 3.683386137397906E+04,      /* J = 29 */
(PID.TID 0000.0001)                 3.762406228407349E+04       /* J = 30 */
(PID.TID 0000.0001)     ;
(PID.TID 0000.0001) dyC =  /* dyC(:,1,:,1) ( units: m ) */
(PID.TID 0000.0001)                 3.678277710845771E+04,      /* I =  1 */
(PID.TID 0000.0001)                 3.685438685866048E+04,      /* I =  2 */
(PID.TID 0000.0001)                 3.692002588020908E+04,      /* I =  3 */
(PID.TID 0000.0001)                 3.697969453541307E+04,      /* I =  4 */
(PID.TID 0000.0001)                 3.703339337607873E+04,      /* I =  5 */
(PID.TID 0000.0001)                 3.708112307814123E+04,      /* I =  6 */
(PID.TID 0000.0001)                 3.712288438364359E+04,      /* I =  7 */
(PID.TID 0000.0001)                 3.715867804995441E+04,      /* I =  8 */
(PID.TID 0000.0001)                 3.718850480589901E+04,      /* I =  9 */
(PID.TID 0000.0001)                 3.721236531452968E+04,      /* I = 10 */
(PID.TID 0000.0001)                 3.723026014246432E+04,      /* I = 11 */
(PID.TID 0000.0001)                 3.724218973548726E+04,      /* I = 12 */
(PID.TID 0000.0001)     2 @  3.724815440020872E+04,             /* I = 13: 14 */
(PID.TID 0000.0001)                 3.724218973548726E+04       /* I = 15 */
(PID.TID 0000.0001)     ;
(PID.TID 0000.0001) dyC =  /* dyC(1,:,1,:) ( units: m ) */
(PID.TID 0000.0001)                 3.678277710845771E+04,      /* J =  1 */
(PID.TID 0000.0001)                 3.723168694115569E+04,      /* J =  2 */
(PID.TID 0000.0001)                 3.767901897410101E+04,      /* J =  3 */
(PID.TID 0000.0001)                 3.812467364657602E+04,      /* J =  4 */
(PID.TID 0000.0001)                 3.856855210935249E+04,      /* J =  5 */
(PID.TID 0000.0001)                 3.901055633269680E+04,      /* J =  6 */
(PID.TID 0000.0001)                 3.945058917911859E+04,      /* J =  7 */
(PID.TID 0000.0001)                 3.988855443472220E+04,      /* J =  8 */
(PID.TID 0000.0001)                 4.032435681898361E+04,      /* J =  9 */
(PID.TID 0000.0001)                 4.075790196435841E+04,      /* J = 10 */
(PID.TID 0000.0001)                 4.118909638222960E+04,      /* J = 11 */
(PID.TID 0000.0001)                 4.161784741043697E+04,      /* J = 12 */
(PID.TID 0000.0001)                 4.204406315499045E+04,      /* J = 13 */
(PID.TID 0000.0001)                 4.246765242091182E+04,      /* J = 14 */
(PID.TID 0000.0001)                 4.288852464034393E+04,      /* J = 15 */
(PID.TID 0000.0001)                 4.330658981118225E+04,      /* J = 16 */
(PID.TID 0000.0001)                 4.372175841431943E+04,      /* J = 17 */
(PID.TID 0000.0001)                 4.413394136293020E+04,      /* J = 18 */
(PID.TID 0000.0001)                 4.454304993440304E+04,      /* J = 19 */
(PID.TID 0000.0001)                 4.494899572325061E+04,      /* J = 20 */
(PID.TID 0000.0001)                 4.535169059286820E+04,      /* J = 21 */
(PID.TID 0000.0001)                 4.575104664412256E+04,      /* J = 22 */
(PID.TID 0000.0001)                 4.614697618947234E+04,      /* J = 23 */
(PID.TID 0000.0001)                 4.653939173844085E+04,      /* J = 24 */
(PID.TID 0000.0001)                 4.692820600744408E+04,      /* J = 25 */
(PID.TID 0000.0001)                 4.731333194957835E+04,      /* J = 26 */
(PID.TID 0000.0001)                 4.769468283927006E+04,      /* J = 27 */
(PID.TID 0000.0001)                 4.807217249390641E+04,      /* J = 28 */
(PID.TID 0000.0001)                 4.844571593362943E+04,      /* J = 29 */
(PID.TID 0000.0001)                 4.881523285497380E+04       /* J = 30 */
(PID.TID 0000.0001)     ;
(PID.TID 0000.0001) dxV =  /* dxV(:,1,:,1) ( units: m ) */
(PID.TID 0000.0001)                 2.053110526075532E+04,      /* I =  1 */
(PID.TID 0000.0001)                 2.052326088418283E+04,      /* I =  2 */
(PID.TID 0000.0001)                 2.051595672244828E+04,      /* I =  3 */
(PID.TID 0000.0001)                 2.050921502797681E+04,      /* I =  4 */
(PID.TID 0000.0001)                 2.050305593886370E+04,      /* I =  5 */
(PID.TID 0000.0001)                 2.049749752783181E+04,      /* I =  6 */
(PID.TID 0000.0001)                 2.049255584793284E+04,      /* I =  7 */
(PID.TID 0000.0001)                 2.048824497292525E+04,      /* I =  8 */
(PID.TID 0000.0001)                 2.048457703515834E+04,      /* I =  9 */
(PID.TID 0000.0001)                 2.048156226915133E+04,      /* I = 10 */
(PID.TID 0000.0001)                 2.047920906551970E+04,      /* I = 11 */
(PID.TID 0000.0001)                 2.047752414469434E+04,      /* I = 12 */
(PID.TID 0000.0001)                 2.047651405696554E+04,      /* I = 13 */
(PID.TID 0000.0001)                 2.047614194664622E+04,      /* I = 14 */
(PID.TID 0000.0001)                 2.047651405696559E+04       /* I = 15 */
(PID.TID 0000.0001)     ;
(PID.TID 0000.0001) dxV =  /* dxV(1,:,1,:) ( units: m ) */
(PID.TID 0000.0001)                 2.053110526075532E+04,      /* J =  1 */
(PID.TID 0000.0001)                 2.090385356266093E+04,      /* J =  2 */
(PID.TID 0000.0001)                 2.129102607314009E+04,      /* J =  3 */
(PID.TID 0000.0001)                 2.169262269996662E+04,      /* J =  4 */
(PID.TID 0000.0001)                 2.210864071595607E+04,      /* J =  5 */
(PID.TID 0000.0001)                 2.253907593617405E+04,      /* J =  6 */
(PID.TID 0000.0001)                 2.298392379458377E+04,      /* J =  7 */
(PID.TID 0000.0001)                 2.344318031700113E+04,      /* J =  8 */
(PID.TID 0000.0001)                 2.391684298864163E+04,      /* J =  9 */
(PID.TID 0000.0001)                 2.440491151699962E+04,      /* J = 10 */
(PID.TID 0000.0001)                 2.490738849171163E+04,      /* J = 11 */
(PID.TID 0000.0001)                 2.542427994477456E+04,      /* J = 12 */
(PID.TID 0000.0001)                 2.595559581485789E+04,      /* J = 13 */
(PID.TID 0000.0001)                 2.650135032062733E+04,      /* J = 14 */
(PID.TID 0000.0001)                 2.706156224833991E+04,      /* J = 15 */
(PID.TID 0000.0001)                 2.763625515890197E+04,      /* J = 16 */
(PID.TID 0000.0001)                 2.822545752042790E+04,      /* J = 17 */
(PID.TID 0000.0001)                 2.882920277162976E+04,      /* J = 18 */
(PID.TID 0000.0001)                 2.944752932187136E+04,      /* J = 19 */
(PID.TID 0000.0001)                 3.008048049319959E+04,      /* J = 20 */
(PID.TID 0000.0001)                 3.072810440966728E+04,      /* J = 21 */
(PID.TID 0000.0001)                 3.139045383903842E+04,      /* J = 22 */
(PID.TID 0000.0001)                 3.206758599174654E+04,      /* J = 23 */
(PID.TID 0000.0001)                 3.275956228156967E+04,      /* J = 24 */
(PID.TID 0000.0001)                 3.346644805244220E+04,      /* J = 25 */
(PID.TID 0000.0001)                 3.418831227550044E+04,      /* J = 26 */
(PID.TID 0000.0001)                 3.492522722017510E+04,      /* J = 27 */
(PID.TID 0000.0001)                 3.567726810399632E+04,      /* J = 28 */
(PID.TID 0000.0001)                 3.644451272859776E+04,      /* J = 29 */
(PID.TID 0000.0001)                 3.722704112152557E+04       /* J = 30 */
(PID.TID 0000.0001)     ;
(PID.TID 0000.0001) dyU =  /* dyU(:,1,:,1) ( units: m ) */
(PID.TID 0000.0001)                 3.674473316658630E+04,      /* I =  1 */
(PID.TID 0000.0001)                 3.681932833792822E+04,      /* I =  2 */
(PID.TID 0000.0001)                 3.688795269313092E+04,      /* I =  3 */
(PID.TID 0000.0001)                 3.695060647275718E+04,      /* I =  4 */
(PID.TID 0000.0001)                 3.700729014250917E+04,      /* I =  5 */
(PID.TID 0000.0001)                 3.705800432398131E+04,      /* I =  6 */
(PID.TID 0000.0001)                 3.710274973294064E+04,      /* I =  7 */
(PID.TID 0000.0001)                 3.714152712500728E+04,      /* I =  8 */
(PID.TID 0000.0001)                 3.717433724834998E+04,      /* I =  9 */
(PID.TID 0000.0001)                 3.720118080314009E+04,      /* I = 10 */
(PID.TID 0000.0001)                 3.722205840764935E+04,      /* I = 11 */
(PID.TID 0000.0001)                 3.723697057073888E+04,      /* I = 12 */
(PID.TID 0000.0001)                 3.724591767054543E+04,      /* I = 13 */
(PID.TID 0000.0001)                 3.724891083990022E+04,      /* I = 14 */
(PID.TID 0000.0001)                 3.724591767054542E+04       /* I = 15 */
(PID.TID 0000.0001)     ;
(PID.TID 0000.0001) dyU =  /* dyU(1,:,1,:) ( units: m ) */
(PID.TID 0000.0001)                 3.674473316658630E+04,      /* J =  1 */
(PID.TID 0000.0001)                 3.719361547538896E+04,      /* J =  2 */
(PID.TID 0000.0001)                 3.764089459751266E+04,      /* J =  3 */
(PID.TID 0000.0001)                 3.808646730382765E+04,      /* J =  4 */
(PID.TID 0000.0001)                 3.853023123895088E+04,      /* J =  5 */
(PID.TID 0000.0001)                 3.897208503739593E+04,      /* J =  6 */
(PID.TID 0000.0001)                 3.941192840112046E+04,      /* J =  7 */
(PID.TID 0000.0001)                 3.984966213263487E+04,      /* J =  8 */
(PID.TID 0000.0001)                 4.028518814419441E+04,      /* J =  9 */
(PID.TID 0000.0001)                 4.071840943468107E+04,      /* J = 10 */
(PID.TID 0000.0001)                 4.114923005120406E+04,      /* J = 11 */
(PID.TID 0000.0001)                 4.157755503103340E+04,      /* J = 12 */
(PID.TID 0000.0001)                 4.200329033666767E+04,      /* J = 13 */
(PID.TID 0000.0001)                 4.242634277960793E+04,      /* J = 14 */
(PID.TID 0000.0001)                 4.284661994092684E+04,      /* J = 15 */
(PID.TID 0000.0001)                 4.326403010205203E+04,      /* J = 16 */
(PID.TID 0000.0001)                 4.367848215462093E+04,      /* J = 17 */
(PID.TID 0000.0001)                 4.408988554208750E+04,      /* J = 18 */
(PID.TID 0000.0001)                 4.449815018464295E+04,      /* J = 19 */
(PID.TID 0000.0001)                 4.490318642518511E+04,      /* J = 20 */
(PID.TID 0000.0001)                 4.530490497491705E+04,      /* J = 21 */
(PID.TID 0000.0001)                 4.570321687598708E+04,      /* J = 22 */
(PID.TID 0000.0001)                 4.609803347024994E+04,      /* J = 23 */
(PID.TID 0000.0001)                 4.648926637992392E+04,      /* J = 24 */
(PID.TID 0000.0001)                 4.687682751321772E+04,      /* J = 25 */
(PID.TID 0000.0001)                 4.726062909013533E+04,      /* J = 26 */
(PID.TID 0000.0001)                 4.764058372401170E+04,      /* J = 27 */
(PID.TID 0000.0001)                 4.801660464021451E+04,      /* J = 28 */
(PID.TID 0000.0001)                 4.838860633247659E+04,      /* J = 29 */
(PID.TID 0000.0001)                 4.875650803021456E+04       /* J = 30 */
(PID.TID 0000.0001)     ;
(PID.TID 0000.0001) rA  =  /* rA (:,1,:,1) ( units: m^2 ) */
(PID.TID 0000.0001)                 7.665113621396177E+08,      /* I =  1 */
(PID.TID 0000.0001)                 7.677029697239892E+08,      /* I =  2 */
(PID.TID 0000.0001)                 7.687913877455838E+08,      /* I =  3 */
(PID.TID 0000.0001)                 7.697775979751738E+08,      /* I =  4 */
(PID.TID 0000.0001)                 7.706625466485583E+08,      /* I =  5 */
(PID.TID 0000.0001)                 7.714470546020026E+08,      /* I =  6 */
(PID.TID 0000.0001)                 7.721318586456149E+08,      /* I =  7 */
(PID.TID 0000.0001)                 7.727176271684608E+08,      /* I =  8 */
(PID.TID 0000.0001)                 7.732049082776864E+08,      /* I =  9 */
(PID.TID 0000.0001)                 7.735941717305043E+08,      /* I = 10 */
(PID.TID 0000.0001)                 7.738858051500469E+08,      /* I = 11 */
(PID.TID 0000.0001)                 7.740801100790358E+08,      /* I = 12 */
(PID.TID 0000.0001)                 7.741766386182301E+08,      /* I = 13 */
(PID.TID 0000.0001)                 7.741766369784317E+08,      /* I = 14 */
(PID.TID 0000.0001)                 7.740801094843833E+08       /* I = 15 */
(PID.TID 0000.0001)     ;
(PID.TID 0000.0001) rA  =  /* rA (1,:,1,:) ( units: m^2 ) */
(PID.TID 0000.0001)                 7.665113621396177E+08,      /* J =  1 */
(PID.TID 0000.0001)                 7.900134359449342E+08,      /* J =  2 */
(PID.TID 0000.0001)                 8.143679155417176E+08,      /* J =  3 */
(PID.TID 0000.0001)                 8.395900636155584E+08,      /* J =  4 */
(PID.TID 0000.0001)                 8.656947784023314E+08,      /* J =  5 */
(PID.TID 0000.0001)                 8.926966010402582E+08,      /* J =  6 */
(PID.TID 0000.0001)                 9.206097737377057E+08,      /* J =  7 */
(PID.TID 0000.0001)                 9.494482582794807E+08,      /* J =  8 */
(PID.TID 0000.0001)                 9.792257431806778E+08,      /* J =  9 */
(PID.TID 0000.0001)                 1.009955679131553E+09,      /* J = 10 */
(PID.TID 0000.0001)                 1.041651296044221E+09,      /* J = 11 */
(PID.TID 0000.0001)                 1.074325614369065E+09,      /* J = 12 */
(PID.TID 0000.0001)                 1.107991467925779E+09,      /* J = 13 */
(PID.TID 0000.0001)                 1.142661498173082E+09,      /* J = 14 */
(PID.TID 0000.0001)                 1.178348167164929E+09,      /* J = 15 */
(PID.TID 0000.0001)                 1.215063762235644E+09,      /* J = 16 */
(PID.TID 0000.0001)                 1.252820414073754E+09,      /* J = 17 */
(PID.TID 0000.0001)                 1.291630043617734E+09,      /* J = 18 */
(PID.TID 0000.0001)                 1.331504416619858E+09,      /* J = 19 */
(PID.TID 0000.0001)                 1.372455096362339E+09,      /* J = 20 */
(PID.TID 0000.0001)                 1.414493440828222E+09,      /* J = 21 */
(PID.TID 0000.0001)                 1.457630613639386E+09,      /* J = 22 */
(PID.TID 0000.0001)                 1.501877517761831E+09,      /* J = 23 */
(PID.TID 0000.0001)                 1.547244834049951E+09,      /* J = 24 */
(PID.TID 0000.0001)                 1.593742963439136E+09,      /* J = 25 */
(PID.TID 0000.0001)                 1.641382020566774E+09,      /* J = 26 */
(PID.TID 0000.0001)                 1.690171807481416E+09,      /* J = 27 */
(PID.TID 0000.0001)                 1.740121820832662E+09,      /* J = 28 */
(PID.TID 0000.0001)                 1.791241246411172E+09,      /* J = 29 */
(PID.TID 0000.0001)                 1.843539059771026E+09       /* J = 30 */
(PID.TID 0000.0001)     ;
(PID.TID 0000.0001) rAw =  /* rAw(:,1,:,1) ( units: m^2 ) */
(PID.TID 0000.0001)                 7.658765213139513E+08,      /* I =  1 */
(PID.TID 0000.0001)                 7.671201328724998E+08,      /* I =  2 */
(PID.TID 0000.0001)                 7.682600121490355E+08,      /* I =  3 */
(PID.TID 0000.0001)                 7.692972101823016E+08,      /* I =  4 */
(PID.TID 0000.0001)                 7.702326756407654E+08,      /* I =  5 */
(PID.TID 0000.0001)                 7.710673044850856E+08,      /* I =  6 */
(PID.TID 0000.0001)                 7.718018764844863E+08,      /* I =  7 */
(PID.TID 0000.0001)                 7.724370884091616E+08,      /* I =  8 */
(PID.TID 0000.0001)                 7.729735468223690E+08,      /* I =  9 */
(PID.TID 0000.0001)                 7.734117650170708E+08,      /* I = 10 */
(PID.TID 0000.0001)                 7.737521718456172E+08,      /* I = 11 */
(PID.TID 0000.0001)                 7.739951054308500E+08,      /* I = 12 */
(PID.TID 0000.0001)                 7.741408739107244E+08,      /* I = 13 */
(PID.TID 0000.0001)                 7.741880730050739E+08,      /* I = 14 */
(PID.TID 0000.0001)                 7.741408710636016E+08       /* I = 15 */
(PID.TID 0000.0001)     ;
(PID.TID 0000.0001) rAw =  /* rAw(1,:,1,:) ( units: m^2 ) */
(PID.TID 0000.0001)                 7.658765213139513E+08,      /* J =  1 */
(PID.TID 0000.0001)                 7.893768970448780E+08,      /* J =  2 */
(PID.TID 0000.0001)                 8.137283914516071E+08,      /* J =  3 */
(PID.TID 0000.0001)                 8.389460603348250E+08,      /* J =  4 */
(PID.TID 0000.0001)                 8.650445848102766E+08,      /* J =  5 */
(PID.TID 0000.0001)                 8.920382782103341E+08,      /* J =  6 */
(PID.TID 0000.0001)                 9.199411445401106E+08,      /* J =  7 */
(PID.TID 0000.0001)                 9.487668893433769E+08,      /* J =  8 */
(PID.TID 0000.0001)                 9.785289545527842E+08,      /* J =  9 */
(PID.TID 0000.0001)                 1.009240515336406E+09,      /* J = 10 */
(PID.TID 0000.0001)                 1.040914522930714E+09,      /* J = 11 */
(PID.TID 0000.0001)                 1.073563715488477E+09,      /* J = 12 */
(PID.TID 0000.0001)                 1.107200612276400E+09,      /* J = 13 */
(PID.TID 0000.0001)                 1.141837554111466E+09,      /* J = 14 */
(PID.TID 0000.0001)                 1.177486672294872E+09,      /* J = 15 */
(PID.TID 0000.0001)                 1.214159933192917E+09,      /* J = 16 */
(PID.TID 0000.0001)                 1.251869095602249E+09,      /* J = 17 */
(PID.TID 0000.0001)                 1.290625742284441E+09,      /* J = 18 */
(PID.TID 0000.0001)                 1.330441258846839E+09,      /* J = 19 */
(PID.TID 0000.0001)                 1.371326820624166E+09,      /* J = 20 */
(PID.TID 0000.0001)                 1.413293399742275E+09,      /* J = 21 */
(PID.TID 0000.0001)                 1.456351737475827E+09,      /* J = 22 */
(PID.TID 0000.0001)                 1.500512320083793E+09,      /* J = 23 */
(PID.TID 0000.0001)                 1.545785394792978E+09,      /* J = 24 */
(PID.TID 0000.0001)                 1.592180902277974E+09,      /* J = 25 */
(PID.TID 0000.0001)                 1.639708504465653E+09,      /* J = 26 */
(PID.TID 0000.0001)                 1.688377519501836E+09,      /* J = 27 */
(PID.TID 0000.0001)                 1.738196956421325E+09,      /* J = 28 */
(PID.TID 0000.0001)                 1.789175499722981E+09,      /* J = 29 */
(PID.TID 0000.0001)                 1.841321602441802E+09       /* J = 30 */
(PID.TID 0000.0001)     ;
(PID.TID 0000.0001) rAs =  /* rAs(:,1,:,1) ( units: m^2 ) */
(PID.TID 0000.0001)                 7.550751050606852E+08,      /* I =  1 */
(PID.TID 0000.0001)                 7.562658447772087E+08,      /* I =  2 */
(PID.TID 0000.0001)                 7.573533970032284E+08,      /* I =  3 */
(PID.TID 0000.0001)                 7.583387692957978E+08,      /* I =  4 */
(PID.TID 0000.0001)                 7.592229121974397E+08,      /* I =  5 */
(PID.TID 0000.0001)                 7.600066705467438E+08,      /* I =  6 */
(PID.TID 0000.0001)                 7.606907923080522E+08,      /* I =  7 */
(PID.TID 0000.0001)                 7.612759532224941E+08,      /* I =  8 */
(PID.TID 0000.0001)                 7.617627129118443E+08,      /* I =  9 */
(PID.TID 0000.0001)                 7.621515550445726E+08,      /* I = 10 */
(PID.TID 0000.0001)                 7.624428588466020E+08,      /* I = 11 */
(PID.TID 0000.0001)                 7.626369483673384E+08,      /* I = 12 */
(PID.TID 0000.0001)                 7.627333738515058E+08,      /* I = 13 */
(PID.TID 0000.0001)                 7.627333728604188E+08,      /* I = 14 */
(PID.TID 0000.0001)                 7.626369508901051E+08       /* I = 15 */
(PID.TID 0000.0001)     ;
(PID.TID 0000.0001) rAs =  /* rAs(1,:,1,:) ( units: m^2 ) */
(PID.TID 0000.0001)                 7.550751050606852E+08,      /* J =  1 */
(PID.TID 0000.0001)                 7.781568160584769E+08,      /* J =  2 */
(PID.TID 0000.0001)                 8.020831616625657E+08,      /* J =  3 */
(PID.TID 0000.0001)                 8.268695937660589E+08,      /* J =  4 */
(PID.TID 0000.0001)                 8.525311818286231E+08,      /* J =  5 */
(PID.TID 0000.0001)                 8.790826547724357E+08,      /* J =  6 */
(PID.TID 0000.0001)                 9.065383887828039E+08,      /* J =  7 */
(PID.TID 0000.0001)                 9.349124897125442E+08,      /* J =  8 */
(PID.TID 0000.0001)                 9.642187819277472E+08,      /* J =  9 */
(PID.TID 0000.0001)                 9.944708240750725E+08,      /* J = 10 */
(PID.TID 0000.0001)                 1.025681954725808E+09,      /* J = 11 */
(PID.TID 0000.0001)                 1.057865313008499E+09,      /* J = 12 */
(PID.TID 0000.0001)                 1.091033805921100E+09,      /* J = 13 */
(PID.TID 0000.0001)                 1.125200178247652E+09,      /* J = 14 */
(PID.TID 0000.0001)                 1.160376979600140E+09,      /* J = 15 */
(PID.TID 0000.0001)                 1.196576586510721E+09,      /* J = 16 */
(PID.TID 0000.0001)                 1.233811208089928E+09,      /* J = 17 */
(PID.TID 0000.0001)                 1.272092866313053E+09,      /* J = 18 */
(PID.TID 0000.0001)                 1.311433405822894E+09,      /* J = 19 */
(PID.TID 0000.0001)                 1.351844507714875E+09,      /* J = 20 */
(PID.TID 0000.0001)                 1.393337606051485E+09,      /* J = 21 */
(PID.TID 0000.0001)                 1.435923987908001E+09,      /* J = 22 */
(PID.TID 0000.0001)                 1.479614675036705E+09,      /* J = 23 */
(PID.TID 0000.0001)                 1.524420466465598E+09,      /* J = 24 */
(PID.TID 0000.0001)                 1.570351910729954E+09,      /* J = 25 */
(PID.TID 0000.0001)                 1.617419255741331E+09,      /* J = 26 */
(PID.TID 0000.0001)                 1.665632470339211E+09,      /* J = 27 */
(PID.TID 0000.0001)                 1.715001205152071E+09,      /* J = 28 */
(PID.TID 0000.0001)                 1.765534790867491E+09,      /* J = 29 */
(PID.TID 0000.0001)                 1.817242347954489E+09       /* J = 30 */
(PID.TID 0000.0001)     ;
(PID.TID 0000.0001) globalArea = /* Integrated horizontal Area (m^2) */
(PID.TID 0000.0001)                 3.580138611494434E+14
(PID.TID 0000.0001)     ;
(PID.TID 0000.0001) hasWetCSCorners = /* Domain contains CS corners (True/False) */
(PID.TID 0000.0001)                   F
(PID.TID 0000.0001)     ;
(PID.TID 0000.0001) // =======================================================
(PID.TID 0000.0001) // End of Model config. summary
(PID.TID 0000.0001) // =======================================================
(PID.TID 0000.0001) 
(PID.TID 0000.0001) == Packages configuration : Check & print summary ==
(PID.TID 0000.0001) 
(PID.TID 0000.0001) GGL90_CHECK: #define ALLOW_GGL90
(PID.TID 0000.0001) GGL90_CHECK: Some form of convection has been enabled
(PID.TID 0000.0001) GMREDI_CHECK: #define GMREDI
(PID.TID 0000.0001) GM_AdvForm =     /* if FALSE => use SkewFlux Form */
(PID.TID 0000.0001)                   T
(PID.TID 0000.0001)     ;
(PID.TID 0000.0001) GM_InMomAsStress = /* if TRUE => apply as Eddy Stress */
(PID.TID 0000.0001)                   F
(PID.TID 0000.0001)     ;
(PID.TID 0000.0001) GM_AdvSeparate = /* Calc Bolus & Euler Adv. separately */
(PID.TID 0000.0001)                   F
(PID.TID 0000.0001)     ;
(PID.TID 0000.0001) GM_ExtraDiag =   /* Tensor Extra Diag (line 1&2) non 0 */
(PID.TID 0000.0001)                   T
(PID.TID 0000.0001)     ;
(PID.TID 0000.0001) GM_isopycK =    /* Background Isopyc. Diffusivity [m^2/s] */
(PID.TID 0000.0001)                 1.000000000000000E+03
(PID.TID 0000.0001)     ;
(PID.TID 0000.0001) GM_skewflx*K =  /* Background GM_SkewFlx Diffusivity [m^2/s] */
(PID.TID 0000.0001)                 0.000000000000000E+00
(PID.TID 0000.0001)     ;
(PID.TID 0000.0001) GM_advec*K =    /* Backg. GM-Advec(=Bolus) Diffusivity [m^2/s]*/
(PID.TID 0000.0001)                 1.000000000000000E+03
(PID.TID 0000.0001)     ;
(PID.TID 0000.0001) GM_Kmin_horiz = /* Minimum Horizontal Diffusivity [m^2/s] */
(PID.TID 0000.0001)                 1.000000000000000E+02
(PID.TID 0000.0001)     ;
(PID.TID 0000.0001) GM_Visbeck_alpha = /* Visbeck alpha coeff. [-] */
(PID.TID 0000.0001)                 0.000000000000000E+00
(PID.TID 0000.0001)     ;
(PID.TID 0000.0001) GM_Small_Number =  /* epsilon used in slope calc */
(PID.TID 0000.0001)                 9.999999999999999E-21
(PID.TID 0000.0001)     ;
(PID.TID 0000.0001) GM_slopeSqCutoff = /* Slope^2 cut-off value */
(PID.TID 0000.0001)                 1.000000000000000E+08
(PID.TID 0000.0001)     ;
(PID.TID 0000.0001) GM_taper_scheme =  /* Type of Tapering/Clipping scheme */
(PID.TID 0000.0001)               'stableGmAdjTap                          '
(PID.TID 0000.0001)     ;
(PID.TID 0000.0001) GM_maxSlope =  /* Maximum Slope (Tapering/Clipping) */
(PID.TID 0000.0001)                 4.000000000000000E-03
(PID.TID 0000.0001)     ;
(PID.TID 0000.0001) GM_facTrL2dz = /* Minimum Trans.Layer Thick. (factor of dz) */
(PID.TID 0000.0001)                 1.000000000000000E+00
(PID.TID 0000.0001)     ;
(PID.TID 0000.0001) GM_facTrL2ML = /* Max.Trans.Layer Thick. (factor of MxL Depth)*/
(PID.TID 0000.0001)                 5.000000000000000E+00
(PID.TID 0000.0001)     ;
(PID.TID 0000.0001) GM_maxTransLay = /* Maximum Transition Layer Thickness [m] */
(PID.TID 0000.0001)                 5.000000000000000E+02
(PID.TID 0000.0001)     ;
(PID.TID 0000.0001) GM_UseBVP = /* if TRUE => use bvp a la Ferrari et al. (2010) */
(PID.TID 0000.0001)                   F
(PID.TID 0000.0001)     ;
(PID.TID 0000.0001) GM_BVP_ModeNumber = /* Vertical mode number for BVP wave speed */
(PID.TID 0000.0001)                       1
(PID.TID 0000.0001)     ;
(PID.TID 0000.0001) GM_BVP_cMin = /* Minimum wave speed for BVP [m/s] */
(PID.TID 0000.0001)                 1.000000000000000E-01
(PID.TID 0000.0001)     ;
(PID.TID 0000.0001) GM_useSubMeso = /* if TRUE => use Sub-Meso param. (B.Fox-Kemper) */
(PID.TID 0000.0001)                   F
(PID.TID 0000.0001)     ;
(PID.TID 0000.0001) subMeso_Ceff = /* efficiency coeff. of Mixed-Layer Eddies [-] */
(PID.TID 0000.0001)                 7.000000000000001E-02
(PID.TID 0000.0001)     ;
(PID.TID 0000.0001) subMeso_invTau = /* inverse of Sub-Meso mixing time-scale [/s] */
(PID.TID 0000.0001)                 2.000000000000000E-06
(PID.TID 0000.0001)     ;
(PID.TID 0000.0001) subMeso_LfMin = /* minimum length-scale "Lf" [m] */
(PID.TID 0000.0001)                 1.000000000000000E+03
(PID.TID 0000.0001)     ;
(PID.TID 0000.0001) subMeso_Lmax = /* maximum grid-scale length [m] */
(PID.TID 0000.0001)                 1.100000000000000E+05
(PID.TID 0000.0001)     ;
(PID.TID 0000.0001) EXF_CHECK: #define ALLOW_EXF
(PID.TID 0000.0001) SEAICE_CHECK: #define ALLOW_SEAICE
(PID.TID 0000.0001) SALT_PLUME_CHECK: #define SALT_PLUME
(PID.TID 0000.0001) CTRL_CHECK: #define ALLOW_CTRL
(PID.TID 0000.0001) COST_CHECK: #define ALLOW_COST
(PID.TID 0000.0001) SBO_CHECK: #define ALLOW_SBO
(PID.TID 0000.0001) etaday defined by gencost  28
(PID.TID 0000.0001) GAD_CHECK: #define ALLOW_GENERIC_ADVDIFF
(PID.TID 0000.0001) // =======================================================
(PID.TID 0000.0001) // Check Model config. (CONFIG_CHECK):
(PID.TID 0000.0001) // CONFIG_CHECK : Normal End
(PID.TID 0000.0001) // =======================================================
(PID.TID 0000.0001) 
(PID.TID 0000.0001)  nRecords = 403 ; filePrec =  64 ; fileIter =    192840
(PID.TID 0000.0001)     nDims =   2 , dims:
(PID.TID 0000.0001)    1:  90   1  90
(PID.TID 0000.0001)    2:1170   11170
(PID.TID 0000.0001)     nFlds =  11 , nFl3D =   8 , fields:
(PID.TID 0000.0001)  >Uvel    < >Vvel    < >Theta   < >Salt    < >GuNm1   < >GuNm2   < >GvNm1   < >GvNm2   < >EtaN    < >dEtaHdt < >EtaH    <
(PID.TID 0000.0001) missingVal=  1.00000000000000E+00 ; nTimRec =   1 , timeList:
(PID.TID 0000.0001)   6.942240000000E+08
(PID.TID 0000.0001) READ_MFLDS_3D_RL: read field: "Uvel    ", #   1 in fldList, rec=   1
(PID.TID 0000.0001) READ_MFLDS_3D_RL: read field: "Vvel    ", #   2 in fldList, rec=   2
(PID.TID 0000.0001) READ_MFLDS_3D_RL: read field: "Theta   ", #   3 in fldList, rec=   3
(PID.TID 0000.0001) READ_MFLDS_3D_RL: read field: "Salt    ", #   4 in fldList, rec=   4
(PID.TID 0000.0001) READ_MFLDS_3D_RL: read field: "GuNm1   ", #   5 in fldList, rec=   5
(PID.TID 0000.0001) READ_MFLDS_3D_RL: read field: "GuNm2   ", #   6 in fldList, rec=   6
(PID.TID 0000.0001) READ_MFLDS_3D_RL: read field: "GvNm1   ", #   7 in fldList, rec=   7
(PID.TID 0000.0001) READ_MFLDS_3D_RL: read field: "GvNm2   ", #   8 in fldList, rec=   8
(PID.TID 0000.0001) READ_MFLDS_3D_RL: read field: "EtaN    ", #   9 in fldList, rec= 401
(PID.TID 0000.0001) READ_MFLDS_3D_RL: read field: "dEtaHdt ", #  10 in fldList, rec= 402
(PID.TID 0000.0001) READ_MFLDS_3D_RL: read field: "EtaH    ", #  11 in fldList, rec= 403
(PID.TID 0000.0001) READ_MFLDS_CHECK: - normal end ; reset MFLDS file-name: pickup.0000000001
(PID.TID 0000.0001)  nRecords =   6 ; filePrec =  64 ; fileIter =    192840
(PID.TID 0000.0001)     nDims =   2 , dims:
(PID.TID 0000.0001)    1:  90   1  90
(PID.TID 0000.0001)    2:1170   11170
(PID.TID 0000.0001)     nFlds =   6 , nFl3D =   0 , fields:
(PID.TID 0000.0001)  >siTICE  < >siAREA  < >siHEFF  < >siHSNOW < >siUICE  < >siVICE  <
(PID.TID 0000.0001) missingVal=  1.00000000000000E+00 ; nTimRec =   1 , timeList:
(PID.TID 0000.0001)   6.942240000000E+08
(PID.TID 0000.0001) READ_MFLDS_LEV_RL: read field: "siTICE  ", #   1 in fldList, rec=   1
(PID.TID 0000.0001) READ_MFLDS_3D_RL: read field: "siAREA  ", #   2 in fldList, rec=   2
(PID.TID 0000.0001) READ_MFLDS_3D_RL: read field: "siHEFF  ", #   3 in fldList, rec=   3
(PID.TID 0000.0001) READ_MFLDS_3D_RL: read field: "siHSNOW ", #   4 in fldList, rec=   4
(PID.TID 0000.0001) READ_MFLDS_3D_RL: read field: "siUICE  ", #   5 in fldList, rec=   5
(PID.TID 0000.0001) READ_MFLDS_3D_RL: read field: "siVICE  ", #   6 in fldList, rec=   6
(PID.TID 0000.0001) READ_MFLDS_CHECK: - normal end ; reset MFLDS file-name: pickup_seaice.0000000001
(PID.TID 0000.0001)  ploadbar=  0.00000000000000E+00
(PID.TID 0000.0001) // =======================================================
(PID.TID 0000.0001) // Model current state
(PID.TID 0000.0001) // =======================================================
(PID.TID 0000.0001) 
(PID.TID 0000.0001) %SBO sbo_mass                     =   1.3737561289741E+21
(PID.TID 0000.0001) %SBO sbo_mass_fw                  =   4.3313603608215E+16
(PID.TID 0000.0001) %SBO sbo_zoamc                    =   1.1712417272784E+25
(PID.TID 0000.0001) %SBO sbo_zoamp                    =   2.9265929806492E+30
(PID.TID 0000.0001) whio : create lev 3 rec 221
(PID.TID 0000.0001) whio : create lev 2 rec 221
(PID.TID 0000.0001) SOLVE_FOR_PRESSURE: putPmEinXvector =    F
 cg2d: Sum(rhs),rhsMax =  -6.36393927173574E+01  2.27123055630609E+00
(PID.TID 0000.0001)  ploadbar=  1.01009886745450E+05
 cg2d: Sum(rhs),rhsMax =  -6.34974931123382E+01  2.27499183955364E+00
(PID.TID 0000.0001)  ploadbar=  1.01010710563278E+05
 cg2d: Sum(rhs),rhsMax =  -6.36224314946159E+01  2.26919831371915E+00
(PID.TID 0000.0001)  ploadbar=  1.01011534381107E+05
 cg2d: Sum(rhs),rhsMax =  -6.39407683631721E+01  2.25670151520702E+00
(PID.TID 0000.0001)  ploadbar=  1.01012424565966E+05
 cg2d: Sum(rhs),rhsMax =  -6.44769957225768E+01  2.23680163848260E+00
(PID.TID 0000.0001)  ploadbar=  1.01013314750826E+05
 cg2d: Sum(rhs),rhsMax =  -6.52215586496998E+01  2.21018609796099E+00
(PID.TID 0000.0001)  ploadbar=  1.01014204935685E+05
 cg2d: Sum(rhs),rhsMax =  -6.61118780664991E+01  2.17938329945241E+00
(PID.TID 0000.0001)  ploadbar=  1.01015095120545E+05
 cg2d: Sum(rhs),rhsMax =  -6.70571005653099E+01  2.14765907568981E+00
(PID.TID 0000.0001)  ploadbar=  1.01015985305405E+05
 cg2d: Sum(rhs),rhsMax =  -6.79571992026918E+01  2.11824054177170E+00
(PID.TID 0000.0001)  ploadbar=  1.01016875490264E+05
 cg2d: Sum(rhs),rhsMax =  -6.87474335263709E+01  2.09288027153954E+00
(PID.TID 0000.0001)  ploadbar=  1.01017559921981E+05
 cg2d: Sum(rhs),rhsMax =  -6.94178632565216E+01  2.07160024698854E+00
(PID.TID 0000.0001)  ploadbar=  1.01018244353699E+05
 cg2d: Sum(rhs),rhsMax =  -6.99911268218956E+01  2.05350170802632E+00
(PID.TID 0000.0001)  ploadbar=  1.01018928785416E+05
 cg2d: Sum(rhs),rhsMax =  -7.05708865959382E+01  2.03543330215702E+00
(PID.TID 0000.0001)  ploadbar=  1.01019613217133E+05
 cg2d: Sum(rhs),rhsMax =  -7.12132673093528E+01  2.01580719424193E+00
(PID.TID 0000.0001)  ploadbar=  1.01020297648851E+05
 cg2d: Sum(rhs),rhsMax =  -7.15902558425448E+01  2.00385143380180E+00
(PID.TID 0000.0001)  ploadbar=  1.01020982080568E+05
 cg2d: Sum(rhs),rhsMax =  -7.17232145467371E+01  1.99889087749592E+00
(PID.TID 0000.0001)  ploadbar=  1.01020515482134E+05
 cg2d: Sum(rhs),rhsMax =  -7.18256015938845E+01  1.99488405967802E+00
(PID.TID 0000.0001)  ploadbar=  1.01020048883700E+05
 cg2d: Sum(rhs),rhsMax =  -7.21113499696184E+01  1.98591089205371E+00
(PID.TID 0000.0001)  ploadbar=  1.01019582285266E+05
 cg2d: Sum(rhs),rhsMax =  -7.25634675693097E+01  1.97255420975101E+00
(PID.TID 0000.0001)  ploadbar=  1.01019115686832E+05
 cg2d: Sum(rhs),rhsMax =  -7.31267072140979E+01  1.95645745670807E+00
(PID.TID 0000.0001)  ploadbar=  1.01018649088398E+05
 cg2d: Sum(rhs),rhsMax =  -7.37244483545766E+01  1.93976065898035E+00
(PID.TID 0000.0001)  ploadbar=  1.01018182489963E+05
 cg2d: Sum(rhs),rhsMax =  -7.42148199593831E+01  1.92612260482021E+00
(PID.TID 0000.0001)  ploadbar=  1.01017897262275E+05
 cg2d: Sum(rhs),rhsMax =  -7.48450317767507E+01  1.90908729033604E+00
(PID.TID 0000.0001)  ploadbar=  1.01017612034587E+05
 cg2d: Sum(rhs),rhsMax =  -7.53652247176639E+01  1.89509310688922E+00
(PID.TID 0000.0001)  ploadbar=  1.01017326806899E+05
 cg2d: Sum(rhs),rhsMax =  -7.57972572616481E+01  1.88347619691050E+00
(PID.TID 0000.0001)  ploadbar=  1.01017041579210E+05
 cg2d: Sum(rhs),rhsMax =  -7.62665674684759E+01  1.87108741975558E+00
(PID.TID 0000.0001)  ploadbar=  1.01016756351522E+05
 cg2d: Sum(rhs),rhsMax =  -7.68323008002302E+01  1.85653057640377E+00
(PID.TID 0000.0001)  ploadbar=  1.01016471123834E+05
 cg2d: Sum(rhs),rhsMax =  -7.74927188937193E+01  1.83998164162067E+00
(PID.TID 0000.0001)  ploadbar=  1.01015226684405E+05
 cg2d: Sum(rhs),rhsMax =  -7.82297603935704E+01  1.82195491882122E+00
(PID.TID 0000.0001)  ploadbar=  1.01013982244976E+05
 cg2d: Sum(rhs),rhsMax =  -7.90202457643945E+01  1.80306916131272E+00
(PID.TID 0000.0001)  ploadbar=  1.01012737805547E+05
 cg2d: Sum(rhs),rhsMax =  -7.98369133374019E+01  1.78399527387403E+00
(PID.TID 0000.0001)  ploadbar=  1.01011493366117E+05
 cg2d: Sum(rhs),rhsMax =  -8.06429235044649E+01  1.76556506141380E+00
(PID.TID 0000.0001)  ploadbar=  1.01010248926688E+05
 cg2d: Sum(rhs),rhsMax =  -8.14141660540009E+01  1.74827128954975E+00
(PID.TID 0000.0001)  ploadbar=  1.01009004487259E+05
 cg2d: Sum(rhs),rhsMax =  -8.21238608697846E+01  1.73257489344963E+00
(PID.TID 0000.0001)  ploadbar=  1.01008451653189E+05
 cg2d: Sum(rhs),rhsMax =  -8.22952549339283E+01  1.72834608026517E+00
(PID.TID 0000.0001)  ploadbar=  1.01007898819118E+05
 cg2d: Sum(rhs),rhsMax =  -8.22526261498028E+01  1.72858319757782E+00
(PID.TID 0000.0001)  ploadbar=  1.01007345985047E+05
 cg2d: Sum(rhs),rhsMax =  -8.22034646186826E+01  1.72891779414837E+00
(PID.TID 0000.0001)  ploadbar=  1.01006793150977E+05
 cg2d: Sum(rhs),rhsMax =  -8.21414153781594E+01  1.72948075701064E+00
(PID.TID 0000.0001)  ploadbar=  1.01006240316906E+05
 cg2d: Sum(rhs),rhsMax =  -8.20591363798685E+01  1.73042390246078E+00
(PID.TID 0000.0001)  ploadbar=  1.01005687482836E+05
 cg2d: Sum(rhs),rhsMax =  -8.19193595506991E+01  1.73263825985517E+00
(PID.TID 0000.0001)  ploadbar=  1.01003949274458E+05
 cg2d: Sum(rhs),rhsMax =  -8.17485229457498E+01  1.73556749528786E+00
(PID.TID 0000.0001)  ploadbar=  1.01002211066080E+05
 cg2d: Sum(rhs),rhsMax =  -8.15571430595926E+01  1.73899216095847E+00
(PID.TID 0000.0001)  ploadbar=  1.01000472857703E+05
 cg2d: Sum(rhs),rhsMax =  -8.13686906907853E+01  1.74241062689173E+00
(PID.TID 0000.0001)  ploadbar=  1.00998734649325E+05
 cg2d: Sum(rhs),rhsMax =  -8.12141016488792E+01  1.74515825951732E+00
(PID.TID 0000.0001)  ploadbar=  1.00996996440947E+05
 cg2d: Sum(rhs),rhsMax =  -8.11302848781441E+01  1.74642504146750E+00
(PID.TID 0000.0001)  ploadbar=  1.00995258232570E+05
 cg2d: Sum(rhs),rhsMax =  -8.11112323703044E+01  1.74631097820790E+00
(PID.TID 0000.0001)  ploadbar=  1.00995220295049E+05
 cg2d: Sum(rhs),rhsMax =  -8.11446233465558E+01  1.74507023974903E+00
(PID.TID 0000.0001)  ploadbar=  1.00995182357528E+05
 cg2d: Sum(rhs),rhsMax =  -8.12137515865500E+01  1.74306308652801E+00
(PID.TID 0000.0001)  ploadbar=  1.00995144420007E+05
 cg2d: Sum(rhs),rhsMax =  -8.13046161920280E+01  1.74059355767259E+00
(PID.TID 0000.0001)  ploadbar=  1.00995106482486E+05
 cg2d: Sum(rhs),rhsMax =  -8.14145757953888E+01  1.73772223769261E+00
(PID.TID 0000.0001)  ploadbar=  1.00995068544965E+05
 cg2d: Sum(rhs),rhsMax =  -8.15568293502674E+01  1.73417440277190E+00
(PID.TID 0000.0001)  ploadbar=  1.00995030607444E+05
 cg2d: Sum(rhs),rhsMax =  -8.16947562333457E+01  1.73074422063728E+00
(PID.TID 0000.0001)  ploadbar=  1.00995217602907E+05
 cg2d: Sum(rhs),rhsMax =  -8.18126142211088E+01  1.72775184013784E+00
(PID.TID 0000.0001)  ploadbar=  1.00995404598371E+05
 cg2d: Sum(rhs),rhsMax =  -8.18984733378167E+01  1.72544043760028E+00
(PID.TID 0000.0001)  ploadbar=  1.00995591593835E+05
 cg2d: Sum(rhs),rhsMax =  -8.19691581045028E+01  1.72345015203756E+00
(PID.TID 0000.0001)  ploadbar=  1.00995778589299E+05
 cg2d: Sum(rhs),rhsMax =  -8.20386078805897E+01  1.72148772947842E+00
(PID.TID 0000.0001)  ploadbar=  1.00995965584763E+05
 cg2d: Sum(rhs),rhsMax =  -8.21171750589796E+01  1.71933640594892E+00
(PID.TID 0000.0001)  ploadbar=  1.00996152580227E+05
 cg2d: Sum(rhs),rhsMax =  -8.21718005008366E+01  1.71765766952175E+00
(PID.TID 0000.0001)  ploadbar=  1.00996796836576E+05
 cg2d: Sum(rhs),rhsMax =  -8.19472729965902E+01  1.72178843893542E+00
(PID.TID 0000.0001)  ploadbar=  1.00997441092926E+05
 cg2d: Sum(rhs),rhsMax =  -8.17221320941661E+01  1.72591188048983E+00
(PID.TID 0000.0001)  ploadbar=  1.00998085349276E+05
 cg2d: Sum(rhs),rhsMax =  -8.15493488788995E+01  1.72890391466005E+00
(PID.TID 0000.0001)  ploadbar=  1.00998729605625E+05
 cg2d: Sum(rhs),rhsMax =  -8.14313266966755E+01  1.73070107734858E+00
(PID.TID 0000.0001)  ploadbar=  1.00999373861975E+05
 cg2d: Sum(rhs),rhsMax =  -8.13576958132870E+01  1.73151062955409E+00
(PID.TID 0000.0001)  ploadbar=  1.01000018118325E+05
 cg2d: Sum(rhs),rhsMax =  -8.12601496521578E+01  1.73286010413149E+00
(PID.TID 0000.0001)  ploadbar=  1.01000113562829E+05
 cg2d: Sum(rhs),rhsMax =  -8.11738312997731E+01  1.73399587736160E+00
(PID.TID 0000.0001)  ploadbar=  1.01000209007332E+05
 cg2d: Sum(rhs),rhsMax =  -8.10897962058511E+01  1.73510540737113E+00
(PID.TID 0000.0001)  ploadbar=  1.01000304451836E+05
 cg2d: Sum(rhs),rhsMax =  -8.10031882781790E+01  1.73628962753832E+00
(PID.TID 0000.0001)  ploadbar=  1.01000399896340E+05
 cg2d: Sum(rhs),rhsMax =  -8.09130853255380E+01  1.73756886010503E+00
(PID.TID 0000.0001)  ploadbar=  1.01000495340844E+05
 cg2d: Sum(rhs),rhsMax =  -8.08244476445627E+01  1.73882708660392E+00
(PID.TID 0000.0001)  ploadbar=  1.01000590785348E+05
 cg2d: Sum(rhs),rhsMax =  -8.07329664477439E+01  1.74018328443456E+00
(PID.TID 0000.0001)  ploadbar=  1.01001617682849E+05
 cg2d: Sum(rhs),rhsMax =  -8.04333251140483E+01  1.74607932928035E+00
(PID.TID 0000.0001)  ploadbar=  1.01002644580350E+05
 cg2d: Sum(rhs),rhsMax =  -8.00977546451871E+01  1.75283313756930E+00
(PID.TID 0000.0001)  ploadbar=  1.01003671477851E+05
 cg2d: Sum(rhs),rhsMax =  -7.97768221054405E+01  1.75934711992875E+00
(PID.TID 0000.0001)  ploadbar=  1.01004698375351E+05
 cg2d: Sum(rhs),rhsMax =  -7.94727636630730E+01  1.76556028492460E+00
(PID.TID 0000.0001)  ploadbar=  1.01005725272852E+05
 cg2d: Sum(rhs),rhsMax =  -7.91876665638698E+01  1.77141668984140E+00
(PID.TID 0000.0001)  ploadbar=  1.01006752170353E+05
 cg2d: Sum(rhs),rhsMax =  -7.89670237020516E+01  1.77589739376813E+00
(PID.TID 0000.0001)  ploadbar=  1.01007648246474E+05
 cg2d: Sum(rhs),rhsMax =  -7.89901179033422E+01  1.77492962064463E+00
(PID.TID 0000.0001)  ploadbar=  1.01008544322596E+05
 cg2d: Sum(rhs),rhsMax =  -7.90514475651844E+01  1.77312495849062E+00
(PID.TID 0000.0001)  ploadbar=  1.01009440398718E+05
 cg2d: Sum(rhs),rhsMax =  -7.91443785914176E+01  1.77063412345312E+00
(PID.TID 0000.0001)  ploadbar=  1.01010336474839E+05
 cg2d: Sum(rhs),rhsMax =  -7.92717958789729E+01  1.76739703250985E+00
(PID.TID 0000.0001)  ploadbar=  1.01011232550961E+05
 cg2d: Sum(rhs),rhsMax =  -7.91539203478427E+01  1.76965441861330E+00
(PID.TID 0000.0001)  ploadbar=  1.01012128627083E+05
 cg2d: Sum(rhs),rhsMax =  -7.88605625639065E+01  1.77579947584532E+00
(PID.TID 0000.0001)  ploadbar=  1.01012584927308E+05
 cg2d: Sum(rhs),rhsMax =  -7.85841347558613E+01  1.78153584444721E+00
(PID.TID 0000.0001)  ploadbar=  1.01013041227533E+05
 cg2d: Sum(rhs),rhsMax =  -7.83608612831001E+01  1.78602680128354E+00
(PID.TID 0000.0001)  ploadbar=  1.01013497527758E+05
 cg2d: Sum(rhs),rhsMax =  -7.81927848210088E+01  1.78920850870069E+00
(PID.TID 0000.0001)  ploadbar=  1.01013953827983E+05
 cg2d: Sum(rhs),rhsMax =  -7.80820421771132E+01  1.79101963753792E+00
(PID.TID 0000.0001)  ploadbar=  1.01014410128208E+05
 cg2d: Sum(rhs),rhsMax =  -7.75027823099106E+01  1.80360023052733E+00
(PID.TID 0000.0001)  ploadbar=  1.01014866428433E+05
 cg2d: Sum(rhs),rhsMax =  -7.63966337533419E+01  1.82894432057207E+00
(PID.TID 0000.0001)  ploadbar=  1.01015381708840E+05
 cg2d: Sum(rhs),rhsMax =  -7.53704207021072E+01  1.85310677152550E+00
(PID.TID 0000.0001)  ploadbar=  1.01015896989247E+05
 cg2d: Sum(rhs),rhsMax =  -7.44036180981013E+01  1.87647659473105E+00
(PID.TID 0000.0001)  ploadbar=  1.01016412269654E+05
 cg2d: Sum(rhs),rhsMax =  -7.34623373946018E+01  1.89984253416351E+00
(PID.TID 0000.0001)  ploadbar=  1.01016927550062E+05
 cg2d: Sum(rhs),rhsMax =  -7.25000501840634E+01  1.92441497860857E+00
(PID.TID 0000.0001)  ploadbar=  1.01017442830469E+05
 cg2d: Sum(rhs),rhsMax =  -7.15240706437966E+01  1.95005949036866E+00
(PID.TID 0000.0001)  ploadbar=  1.01017958110876E+05
 cg2d: Sum(rhs),rhsMax =  -7.05728463732858E+01  1.97573457636344E+00
(PID.TID 0000.0001)  ploadbar=  1.01017973438592E+05
 cg2d: Sum(rhs),rhsMax =  -6.96620163910683E+01  2.00095979641041E+00
(PID.TID 0000.0001)  ploadbar=  1.01017988766307E+05
 cg2d: Sum(rhs),rhsMax =  -6.88118270867708E+01  2.02507436092554E+00
(PID.TID 0000.0001)  ploadbar=  1.01018004094023E+05
 cg2d: Sum(rhs),rhsMax =  -6.80459389658439E+01  2.04725744745904E+00
(PID.TID 0000.0001)  ploadbar=  1.01018019421738E+05
 cg2d: Sum(rhs),rhsMax =  -6.74005764304640E+01  2.06624768406216E+00
(PID.TID 0000.0001)  ploadbar=  1.01018034749454E+05
 cg2d: Sum(rhs),rhsMax =  -6.69006064457969E+01  2.08107234098972E+00
(PID.TID 0000.0001)  ploadbar=  1.01018050077169E+05
 cg2d: Sum(rhs),rhsMax =  -6.65864467609886E+01  2.09030325271258E+00
(PID.TID 0000.0001)  ploadbar=  1.01018983920961E+05
 cg2d: Sum(rhs),rhsMax =  -6.64809150427445E+01  2.09305787321883E+00
(PID.TID 0000.0001)  ploadbar=  1.01019917764753E+05
 cg2d: Sum(rhs),rhsMax =  -6.65862474512234E+01  2.08920611248268E+00
(PID.TID 0000.0001)  ploadbar=  1.01020851608545E+05
 cg2d: Sum(rhs),rhsMax =  -6.68821830616890E+01  2.07944439758474E+00
(PID.TID 0000.0001)  ploadbar=  1.01021785452337E+05
 cg2d: Sum(rhs),rhsMax =  -6.73232531012288E+01  2.06532781539835E+00
(PID.TID 0000.0001)  ploadbar=  1.01022719296128E+05
 cg2d: Sum(rhs),rhsMax =  -6.78496004774561E+01  2.04883954349158E+00
(PID.TID 0000.0001)  ploadbar=  1.01023653139920E+05
 cg2d: Sum(rhs),rhsMax =  -6.84266609161729E+01  2.03107572320181E+00
(PID.TID 0000.0001)  ploadbar=  1.01025076405128E+05
 cg2d: Sum(rhs),rhsMax =  -6.90650548052604E+01  2.01178795881841E+00
(PID.TID 0000.0001)  ploadbar=  1.01026499670335E+05
 cg2d: Sum(rhs),rhsMax =  -6.97873539935744E+01  1.99041973761419E+00
(PID.TID 0000.0001)  ploadbar=  1.01027922935542E+05
 cg2d: Sum(rhs),rhsMax =  -7.05989159341043E+01  1.96696169811553E+00
(PID.TID 0000.0001)  ploadbar=  1.01029346200750E+05
 cg2d: Sum(rhs),rhsMax =  -7.14814402735491E+01  1.94206848549921E+00
(PID.TID 0000.0001)  ploadbar=  1.01030769465957E+05
 cg2d: Sum(rhs),rhsMax =  -7.23879810803803E+01  1.91710519880139E+00
(PID.TID 0000.0001)  ploadbar=  1.01032192731164E+05
 cg2d: Sum(rhs),rhsMax =  -7.32876431931283E+01  1.89296612119841E+00
(PID.TID 0000.0001)  ploadbar=  1.01033636514029E+05
 cg2d: Sum(rhs),rhsMax =  -7.41852005867501E+01  1.86949057888352E+00
(PID.TID 0000.0001)  ploadbar=  1.01035080296894E+05
 cg2d: Sum(rhs),rhsMax =  -7.50892932551686E+01  1.84643671137514E+00
(PID.TID 0000.0001)  ploadbar=  1.01036524079758E+05
 cg2d: Sum(rhs),rhsMax =  -7.60071105985184E+01  1.82362230988538E+00
(PID.TID 0000.0001)  ploadbar=  1.01037967862623E+05
 cg2d: Sum(rhs),rhsMax =  -7.69383588820369E+01  1.80105642478189E+00
(PID.TID 0000.0001)  ploadbar=  1.01039411645488E+05
 cg2d: Sum(rhs),rhsMax =  -7.78913651310367E+01  1.77853924490846E+00
(PID.TID 0000.0001)  ploadbar=  1.01040855428352E+05
 cg2d: Sum(rhs),rhsMax =  -7.88675627948259E+01  1.75601973147770E+00
(PID.TID 0000.0001)  ploadbar=  1.01041991999889E+05
 cg2d: Sum(rhs),rhsMax =  -7.98796108279311E+01  1.73323926435206E+00
(PID.TID 0000.0001)  ploadbar=  1.01043128571425E+05
 cg2d: Sum(rhs),rhsMax =  -8.09302215124120E+01  1.71017833464314E+00
(PID.TID 0000.0001)  ploadbar=  1.01044265142961E+05
 cg2d: Sum(rhs),rhsMax =  -8.20149221032977E+01  1.68697095354083E+00
(PID.TID 0000.0001)  ploadbar=  1.01045401714497E+05
 cg2d: Sum(rhs),rhsMax =  -8.28410323745580E+01  1.66952715491673E+00
(PID.TID 0000.0001)  ploadbar=  1.01046538286033E+05
 cg2d: Sum(rhs),rhsMax =  -8.29071552882855E+01  1.66753486488614E+00
(PID.TID 0000.0001)  ploadbar=  1.01047674857569E+05
 cg2d: Sum(rhs),rhsMax =  -8.29524091161541E+01  1.66597843870649E+00
(PID.TID 0000.0001)  ploadbar=  1.01048912970943E+05
 cg2d: Sum(rhs),rhsMax =  -8.29700396956031E+01  1.66498147875782E+00
(PID.TID 0000.0001)  ploadbar=  1.01050151084317E+05
 cg2d: Sum(rhs),rhsMax =  -8.29432894852659E+01  1.66487681947287E+00
(PID.TID 0000.0001)  ploadbar=  1.01051389197691E+05
 cg2d: Sum(rhs),rhsMax =  -8.28632364762844E+01  1.66584094600017E+00
(PID.TID 0000.0001)  ploadbar=  1.01052627311065E+05
 cg2d: Sum(rhs),rhsMax =  -8.27329195670666E+01  1.66781560582156E+00
(PID.TID 0000.0001)  ploadbar=  1.01053865424439E+05
 cg2d: Sum(rhs),rhsMax =  -8.25605736708881E+01  1.67064067498521E+00
(PID.TID 0000.0001)  ploadbar=  1.01055103537814E+05
 cg2d: Sum(rhs),rhsMax =  -8.23586517070082E+01  1.67405321105652E+00
(PID.TID 0000.0001)  ploadbar=  1.01056222874109E+05
 cg2d: Sum(rhs),rhsMax =  -8.21206503346277E+01  1.67819077750820E+00
(PID.TID 0000.0001)  ploadbar=  1.01057342210404E+05
 cg2d: Sum(rhs),rhsMax =  -8.18554459548595E+01  1.68287817225654E+00
(PID.TID 0000.0001)  ploadbar=  1.01058461546699E+05
 cg2d: Sum(rhs),rhsMax =  -8.15759214655057E+01  1.68785851001724E+00
(PID.TID 0000.0001)  ploadbar=  1.01059580882994E+05
 cg2d: Sum(rhs),rhsMax =  -8.12878869752343E+01  1.69301626034164E+00
(PID.TID 0000.0001)  ploadbar=  1.01060700219288E+05
 cg2d: Sum(rhs),rhsMax =  -8.09918731312814E+01  1.69834003321845E+00
(PID.TID 0000.0001)  ploadbar=  1.01061819555583E+05
 cg2d: Sum(rhs),rhsMax =  -8.07584765138119E+01  1.70241684032704E+00
(PID.TID 0000.0001)  ploadbar=  1.01061930850003E+05
 cg2d: Sum(rhs),rhsMax =  -8.04646620951897E+01  1.70783008604433E+00
(PID.TID 0000.0001)  ploadbar=  1.01062042144422E+05
 cg2d: Sum(rhs),rhsMax =  -8.01331506375937E+01  1.71411950069200E+00
(PID.TID 0000.0001)  ploadbar=  1.01062153438841E+05
 cg2d: Sum(rhs),rhsMax =  -7.97741191133970E+01  1.72108595249970E+00
(PID.TID 0000.0001)  ploadbar=  1.01062264733261E+05
 cg2d: Sum(rhs),rhsMax =  -7.94070870263346E+01  1.72831581531576E+00
(PID.TID 0000.0001)  ploadbar=  1.01062376027680E+05
 cg2d: Sum(rhs),rhsMax =  -7.90549694065378E+01  1.73530207702894E+00
(PID.TID 0000.0001)  ploadbar=  1.01062487322100E+05
 cg2d: Sum(rhs),rhsMax =  -7.86970403148967E+01  1.74247507846537E+00
(PID.TID 0000.0001)  ploadbar=  1.01062159977140E+05
 cg2d: Sum(rhs),rhsMax =  -7.83692508337971E+01  1.74903433851616E+00
(PID.TID 0000.0001)  ploadbar=  1.01061832632180E+05
 cg2d: Sum(rhs),rhsMax =  -7.80794356227104E+01  1.75479033844574E+00
(PID.TID 0000.0001)  ploadbar=  1.01061505287220E+05
 cg2d: Sum(rhs),rhsMax =  -7.78025972352150E+01  1.76028785725574E+00
(PID.TID 0000.0001)  ploadbar=  1.01061177942260E+05
 cg2d: Sum(rhs),rhsMax =  -7.75455363118283E+01  1.76536326911618E+00
(PID.TID 0000.0001)  ploadbar=  1.01060850597300E+05
 cg2d: Sum(rhs),rhsMax =  -7.73113653689258E+01  1.76993557057036E+00
(PID.TID 0000.0001)  ploadbar=  1.01060523252340E+05
 cg2d: Sum(rhs),rhsMax =  -7.64280272477277E+01  1.78963414034718E+00
(PID.TID 0000.0001)  ploadbar=  1.01060507317938E+05
 cg2d: Sum(rhs),rhsMax =  -7.53983578998459E+01  1.81332239950083E+00
(PID.TID 0000.0001)  ploadbar=  1.01060491383536E+05
 cg2d: Sum(rhs),rhsMax =  -7.43309025291654E+01  1.83861484615189E+00
(PID.TID 0000.0001)  ploadbar=  1.01060475449135E+05
 cg2d: Sum(rhs),rhsMax =  -7.32551464160884E+01  1.86486725685186E+00
(PID.TID 0000.0001)  ploadbar=  1.01060459514733E+05
 cg2d: Sum(rhs),rhsMax =  -7.21659923410041E+01  1.89226277982943E+00
(PID.TID 0000.0001)  ploadbar=  1.01060443580331E+05
 cg2d: Sum(rhs),rhsMax =  -7.10774750443522E+01  1.92048815565621E+00
(PID.TID 0000.0001)  ploadbar=  1.01060427645930E+05
 cg2d: Sum(rhs),rhsMax =  -6.99802405578770E+01  1.94981827121466E+00
(PID.TID 0000.0001)  ploadbar=  1.01060225530149E+05
 cg2d: Sum(rhs),rhsMax =  -6.88639005267761E+01  1.98061363968478E+00
(PID.TID 0000.0001)  ploadbar=  1.01060023414368E+05
 cg2d: Sum(rhs),rhsMax =  -6.77408728186106E+01  2.01260261564403E+00
(PID.TID 0000.0001)  ploadbar=  1.01059821298588E+05
 cg2d: Sum(rhs),rhsMax =  -6.66289120294042E+01  2.04531221159671E+00
(PID.TID 0000.0001)  ploadbar=  1.01059619182807E+05
 cg2d: Sum(rhs),rhsMax =  -6.55758989124578E+01  2.07724226102947E+00
(PID.TID 0000.0001)  ploadbar=  1.01059417067026E+05
 cg2d: Sum(rhs),rhsMax =  -6.46256118873652E+01  2.10682680285690E+00
(PID.TID 0000.0001)  ploadbar=  1.01059214951246E+05
 cg2d: Sum(rhs),rhsMax =  -6.37918248718556E+01  2.13346522349170E+00
(PID.TID 0000.0001)  ploadbar=  1.01059225595712E+05
 cg2d: Sum(rhs),rhsMax =  -6.30820285301594E+01  2.15663078116922E+00
(PID.TID 0000.0001)  ploadbar=  1.01059236240179E+05
 cg2d: Sum(rhs),rhsMax =  -6.24884277260719E+01  2.17633294014203E+00
(PID.TID 0000.0001)  ploadbar=  1.01059246884646E+05
 cg2d: Sum(rhs),rhsMax =  -6.19854137908199E+01  2.19326565371181E+00
(PID.TID 0000.0001)  ploadbar=  1.01059257529112E+05
 cg2d: Sum(rhs),rhsMax =  -6.15377069334046E+01  2.20854187990292E+00
(PID.TID 0000.0001)  ploadbar=  1.01059268173579E+05
 cg2d: Sum(rhs),rhsMax =  -6.11128119088673E+01  2.22325539738794E+00
(PID.TID 0000.0001)  ploadbar=  1.01059278818046E+05
 cg2d: Sum(rhs),rhsMax =  -6.07082200901831E+01  2.23737977682646E+00
(PID.TID 0000.0001)  ploadbar=  1.01059579434945E+05
 cg2d: Sum(rhs),rhsMax =  -6.03286917638875E+01  2.25070489484263E+00
(PID.TID 0000.0001)  ploadbar=  1.01059880051844E+05
 cg2d: Sum(rhs),rhsMax =  -5.99761042275561E+01  2.26313513841814E+00
(PID.TID 0000.0001)  ploadbar=  1.01060180668743E+05
 cg2d: Sum(rhs),rhsMax =  -5.96623229885088E+01  2.27418582026630E+00
(PID.TID 0000.0001)  ploadbar=  1.01060481285643E+05
 cg2d: Sum(rhs),rhsMax =  -5.93899048236478E+01  2.28370720121664E+00
(PID.TID 0000.0001)  ploadbar=  1.01060781902542E+05
 cg2d: Sum(rhs),rhsMax =  -5.91635789593593E+01  2.29147074616903E+00
(PID.TID 0000.0001)  ploadbar=  1.01061082519441E+05
 cg2d: Sum(rhs),rhsMax =  -5.89895448581484E+01  2.29729858074563E+00
(PID.TID 0000.0001)  ploadbar=  1.01060440369864E+05
 cg2d: Sum(rhs),rhsMax =  -5.88651335220785E+01  2.30125032703391E+00
(PID.TID 0000.0001)  ploadbar=  1.01059798220287E+05
 cg2d: Sum(rhs),rhsMax =  -5.87836240028709E+01  2.30356294600839E+00
(PID.TID 0000.0001)  ploadbar=  1.01059156070709E+05
 cg2d: Sum(rhs),rhsMax =  -5.87318906858992E+01  2.30473310070737E+00
(PID.TID 0000.0001)  ploadbar=  1.01058513921132E+05
 cg2d: Sum(rhs),rhsMax =  -5.87053922418691E+01  2.30493119459534E+00
(PID.TID 0000.0001)  ploadbar=  1.01057871771555E+05
 cg2d: Sum(rhs),rhsMax =  -5.86980095490753E+01  2.30439323854365E+00
(PID.TID 0000.0001)  ploadbar=  1.01057229621978E+05
 cg2d: Sum(rhs),rhsMax =  -5.86925720046043E+01  2.30374362568573E+00
(PID.TID 0000.0001)  ploadbar=  1.01058152794450E+05
 cg2d: Sum(rhs),rhsMax =  -5.86846264534773E+01  2.30315045450892E+00
(PID.TID 0000.0001)  ploadbar=  1.01059075966923E+05
 cg2d: Sum(rhs),rhsMax =  -5.86730314353658E+01  2.30265479383504E+00
(PID.TID 0000.0001)  ploadbar=  1.01059999139395E+05
 cg2d: Sum(rhs),rhsMax =  -5.86606915852083E+01  2.30213879752622E+00
(PID.TID 0000.0001)  ploadbar=  1.01060922311867E+05
 cg2d: Sum(rhs),rhsMax =  -5.86553025823279E+01  2.30129423940037E+00
(PID.TID 0000.0001)  ploadbar=  1.01061845484340E+05
 cg2d: Sum(rhs),rhsMax =  -5.86667811424495E+01  2.29972325252872E+00
(PID.TID 0000.0001)  ploadbar=  1.01062768656812E+05
 cg2d: Sum(rhs),rhsMax =  -5.86981633327250E+01  2.29743419738753E+00
(PID.TID 0000.0001)  ploadbar=  1.01063531774286E+05
 cg2d: Sum(rhs),rhsMax =  -5.87546645037733E+01  2.29422053692039E+00
(PID.TID 0000.0001)  ploadbar=  1.01064294891760E+05
 cg2d: Sum(rhs),rhsMax =  -5.88412660212798E+01  2.28988898364024E+00
(PID.TID 0000.0001)  ploadbar=  1.01065058009234E+05
 cg2d: Sum(rhs),rhsMax =  -5.89601254488347E+01  2.28436056125392E+00
(PID.TID 0000.0001)  ploadbar=  1.01065821126709E+05
 cg2d: Sum(rhs),rhsMax =  -5.91082862771393E+01  2.27775740208897E+00
(PID.TID 0000.0001)  ploadbar=  1.01066584244183E+05
 cg2d: Sum(rhs),rhsMax =  -5.92884669185057E+01  2.26998693958728E+00
(PID.TID 0000.0001)  ploadbar=  1.01067347361657E+05
 cg2d: Sum(rhs),rhsMax =  -5.94992687230744E+01  2.26111171062064E+00
(PID.TID 0000.0001)  ploadbar=  1.01067469434675E+05
 cg2d: Sum(rhs),rhsMax =  -5.97346992822103E+01  2.25137305433236E+00
(PID.TID 0000.0001)  ploadbar=  1.01067591507692E+05
 cg2d: Sum(rhs),rhsMax =  -5.99934426368290E+01  2.24084092909051E+00
(PID.TID 0000.0001)  ploadbar=  1.01067713580709E+05
 cg2d: Sum(rhs),rhsMax =  -6.02766062169525E+01  2.22950163127915E+00
(PID.TID 0000.0001)  ploadbar=  1.01067835653727E+05
 cg2d: Sum(rhs),rhsMax =  -6.05863154993303E+01  2.21730586523892E+00
(PID.TID 0000.0001)  ploadbar=  1.01067957726744E+05
 cg2d: Sum(rhs),rhsMax =  -6.09252050605827E+01  2.20418161644677E+00
(PID.TID 0000.0001)  ploadbar=  1.01068079799762E+05
 cg2d: Sum(rhs),rhsMax =  -6.12933736429979E+01  2.19019665451905E+00
(PID.TID 0000.0001)  ploadbar=  1.01068888736797E+05
 cg2d: Sum(rhs),rhsMax =  -6.16849044572751E+01  2.17558849258062E+00
(PID.TID 0000.0001)  ploadbar=  1.01069697673832E+05
 cg2d: Sum(rhs),rhsMax =  -6.20937706204587E+01  2.16059060039514E+00
(PID.TID 0000.0001)  ploadbar=  1.01070506610867E+05
 cg2d: Sum(rhs),rhsMax =  -6.25125809337824E+01  2.14547100256040E+00
(PID.TID 0000.0001)  ploadbar=  1.01071315547902E+05
 cg2d: Sum(rhs),rhsMax =  -6.29342698888708E+01  2.13047509946623E+00
(PID.TID 0000.0001)  ploadbar=  1.01072124484937E+05
 cg2d: Sum(rhs),rhsMax =  -6.33545294933804E+01  2.11574522396402E+00
(PID.TID 0000.0001)  ploadbar=  1.01072933421972E+05
 cg2d: Sum(rhs),rhsMax =  -6.37759330279487E+01  2.10113472128737E+00
(PID.TID 0000.0001)  ploadbar=  1.01072560508577E+05
 cg2d: Sum(rhs),rhsMax =  -6.41984899064482E+01  2.08663943182690E+00
(PID.TID 0000.0001)  ploadbar=  1.01072187595181E+05
 cg2d: Sum(rhs),rhsMax =  -6.46238533312293E+01  2.07220240686141E+00
(PID.TID 0000.0001)  ploadbar=  1.01071814681786E+05
 cg2d: Sum(rhs),rhsMax =  -6.50545286360735E+01  2.05774441996230E+00
(PID.TID 0000.0001)  ploadbar=  1.01071441768391E+05
 cg2d: Sum(rhs),rhsMax =  -6.54898839965165E+01  2.04328939816086E+00
(PID.TID 0000.0001)  ploadbar=  1.01071068854995E+05
 cg2d: Sum(rhs),rhsMax =  -6.59283598832985E+01  2.02888412485841E+00
(PID.TID 0000.0001)  ploadbar=  1.01070695941600E+05
 cg2d: Sum(rhs),rhsMax =  -6.63626807137041E+01  2.01483939942782E+00
(PID.TID 0000.0001)  ploadbar=  1.01069761110068E+05
 cg2d: Sum(rhs),rhsMax =  -6.67910901089281E+01  2.00119514231281E+00
(PID.TID 0000.0001)  ploadbar=  1.01068826278536E+05
 cg2d: Sum(rhs),rhsMax =  -6.72200791330691E+01  1.98774466695755E+00
(PID.TID 0000.0001)  ploadbar=  1.01067891447004E+05
 cg2d: Sum(rhs),rhsMax =  -6.76494584641395E+01  1.97448852366463E+00
(PID.TID 0000.0001)  ploadbar=  1.01066956615473E+05
 cg2d: Sum(rhs),rhsMax =  -6.80798096628117E+01  1.96140407459707E+00
(PID.TID 0000.0001)  ploadbar=  1.01066021783941E+05
 cg2d: Sum(rhs),rhsMax =  -6.85118970792666E+01  1.94846057522507E+00
(PID.TID 0000.0001)  ploadbar=  1.01065086952409E+05
 cg2d: Sum(rhs),rhsMax =  -6.89451491375911E+01  1.93564208959308E+00
(PID.TID 0000.0001)  ploadbar=  1.01064411192842E+05
 cg2d: Sum(rhs),rhsMax =  -6.93798758714489E+01  1.92293244876811E+00
(PID.TID 0000.0001)  ploadbar=  1.01063735433275E+05
 cg2d: Sum(rhs),rhsMax =  -6.98153809355075E+01  1.91034790576176E+00
(PID.TID 0000.0001)  ploadbar=  1.01063059673708E+05
 cg2d: Sum(rhs),rhsMax =  -7.02505941721402E+01  1.89791302531875E+00
(PID.TID 0000.0001)  ploadbar=  1.01062383914141E+05
 cg2d: Sum(rhs),rhsMax =  -7.06845755192113E+01  1.88565050095549E+00
(PID.TID 0000.0001)  ploadbar=  1.01061708154574E+05
 cg2d: Sum(rhs),rhsMax =  -7.11020160118783E+01  1.87395866279389E+00
(PID.TID 0000.0001)  ploadbar=  1.01061032395007E+05
 cg2d: Sum(rhs),rhsMax =  -7.15228644276484E+01  1.86235229361974E+00
(PID.TID 0000.0001)  ploadbar=  1.01059208684305E+05
 cg2d: Sum(rhs),rhsMax =  -7.19498532178275E+01  1.85075354661622E+00
(PID.TID 0000.0001)  ploadbar=  1.01057384973604E+05
 cg2d: Sum(rhs),rhsMax =  -7.23840562656980E+01  1.83913279716018E+00
(PID.TID 0000.0001)  ploadbar=  1.01055561262902E+05
 cg2d: Sum(rhs),rhsMax =  -7.28259515255505E+01  1.82747838355183E+00
(PID.TID 0000.0001)  ploadbar=  1.01053737552201E+05
 cg2d: Sum(rhs),rhsMax =  -7.32756278245774E+01  1.81578937902093E+00
(PID.TID 0000.0001)  ploadbar=  1.01051913841499E+05
 cg2d: Sum(rhs),rhsMax =  -7.37311156624935E+01  1.80411695975929E+00
(PID.TID 0000.0001)  ploadbar=  1.01050090130797E+05
 cg2d: Sum(rhs),rhsMax =  -7.41873794303496E+01  1.79252820648025E+00
(PID.TID 0000.0001)  ploadbar=  1.01049135529062E+05
 cg2d: Sum(rhs),rhsMax =  -7.46454903059370E+01  1.78099233333987E+00
(PID.TID 0000.0001)  ploadbar=  1.01048180927327E+05
 cg2d: Sum(rhs),rhsMax =  -7.51061446070325E+01  1.76948837638073E+00
(PID.TID 0000.0001)  ploadbar=  1.01047226325591E+05
 cg2d: Sum(rhs),rhsMax =  -7.54982135777633E+01  1.75966978737737E+00
(PID.TID 0000.0001)  ploadbar=  1.01046271723856E+05
 cg2d: Sum(rhs),rhsMax =  -7.56235695936870E+01  1.75606859558032E+00
(PID.TID 0000.0001)  ploadbar=  1.01045317122121E+05
 cg2d: Sum(rhs),rhsMax =  -7.57933739346146E+01  1.75139328745326E+00
(PID.TID 0000.0001)  ploadbar=  1.01044362520385E+05
 cg2d: Sum(rhs),rhsMax =  -7.59572207121763E+01  1.74690653784043E+00
(PID.TID 0000.0001)  ploadbar=  1.01044772393056E+05
 cg2d: Sum(rhs),rhsMax =  -7.61063389557182E+01  1.74280148293018E+00
(PID.TID 0000.0001)  ploadbar=  1.01045182265727E+05
 cg2d: Sum(rhs),rhsMax =  -7.63042532371181E+01  1.73762336492559E+00
(PID.TID 0000.0001)  ploadbar=  1.01045592138397E+05
 cg2d: Sum(rhs),rhsMax =  -7.65406206226404E+01  1.73162341527231E+00
(PID.TID 0000.0001)  ploadbar=  1.01046002011068E+05
 cg2d: Sum(rhs),rhsMax =  -7.68215076048438E+01  1.72467892416134E+00
(PID.TID 0000.0001)  ploadbar=  1.01046411883738E+05
 cg2d: Sum(rhs),rhsMax =  -7.71508569932837E+01  1.71671575661234E+00
(PID.TID 0000.0001)  ploadbar=  1.01046821756409E+05
 cg2d: Sum(rhs),rhsMax =  -7.74483515020561E+01  1.70951482632395E+00
(PID.TID 0000.0001)  ploadbar=  1.01047566950099E+05
 cg2d: Sum(rhs),rhsMax =  -7.76994863689683E+01  1.70336796887103E+00
(PID.TID 0000.0001)  ploadbar=  1.01048312143789E+05
 cg2d: Sum(rhs),rhsMax =  -7.79192095753888E+01  1.69792638627925E+00
(PID.TID 0000.0001)  ploadbar=  1.01049057337479E+05
 cg2d: Sum(rhs),rhsMax =  -7.81685314305417E+01  1.69185745951062E+00
(PID.TID 0000.0001)  ploadbar=  1.01049802531169E+05
 cg2d: Sum(rhs),rhsMax =  -7.84570938278167E+01  1.68496672671814E+00
(PID.TID 0000.0001)  ploadbar=  1.01050547724859E+05
 cg2d: Sum(rhs),rhsMax =  -7.87936871143887E+01  1.67708577258306E+00
(PID.TID 0000.0001)  ploadbar=  1.01051292918549E+05
 cg2d: Sum(rhs),rhsMax =  -7.91213490666956E+01  1.66950721804274E+00
(PID.TID 0000.0001)  ploadbar=  1.01052884073538E+05
 cg2d: Sum(rhs),rhsMax =  -7.94864313655916E+01  1.66124422517795E+00
(PID.TID 0000.0001)  ploadbar=  1.01054475228527E+05
 cg2d: Sum(rhs),rhsMax =  -7.98499299284858E+01  1.65311937505096E+00
(PID.TID 0000.0001)  ploadbar=  1.01056066383516E+05
 cg2d: Sum(rhs),rhsMax =  -8.02361744376812E+01  1.64462810012152E+00
(PID.TID 0000.0001)  ploadbar=  1.01057657538505E+05
 cg2d: Sum(rhs),rhsMax =  -8.06167298629046E+01  1.63635539816242E+00
(PID.TID 0000.0001)  ploadbar=  1.01059248693494E+05
 cg2d: Sum(rhs),rhsMax =  -8.09701608855809E+01  1.62872541395565E+00
(PID.TID 0000.0001)  ploadbar=  1.01060839848483E+05
 cg2d: Sum(rhs),rhsMax =  -8.13077714050068E+01  1.62143978705315E+00
(PID.TID 0000.0001)  ploadbar=  1.01061749616573E+05
 cg2d: Sum(rhs),rhsMax =  -8.15857008171342E+01  1.61535356492144E+00
(PID.TID 0000.0001)  ploadbar=  1.01062659384663E+05
 cg2d: Sum(rhs),rhsMax =  -8.18061963411732E+01  1.61039139182262E+00
(PID.TID 0000.0001)  ploadbar=  1.01063569152753E+05
 cg2d: Sum(rhs),rhsMax =  -8.19784886192952E+01  1.60634726047173E+00
(PID.TID 0000.0001)  ploadbar=  1.01064478920843E+05
 cg2d: Sum(rhs),rhsMax =  -8.21157071621790E+01  1.60294983523079E+00
(PID.TID 0000.0001)  ploadbar=  1.01065388688932E+05
 cg2d: Sum(rhs),rhsMax =  -8.22314889283204E+01  1.59992081170790E+00
(PID.TID 0000.0001)  ploadbar=  1.01066298457022E+05
 cg2d: Sum(rhs),rhsMax =  -8.23421256350060E+01  1.59703914440662E+00
(PID.TID 0000.0001)  ploadbar=  1.01066706312671E+05
 cg2d: Sum(rhs),rhsMax =  -8.24220462435627E+01  1.59479587892244E+00
(PID.TID 0000.0001)  ploadbar=  1.01067114168320E+05
 cg2d: Sum(rhs),rhsMax =  -8.25463735718866E+01  1.59173678074138E+00
(PID.TID 0000.0001)  ploadbar=  1.01067522023968E+05
 cg2d: Sum(rhs),rhsMax =  -8.27276655685542E+01  1.58762714985381E+00
(PID.TID 0000.0001)  ploadbar=  1.01067929879617E+05
 cg2d: Sum(rhs),rhsMax =  -8.29632494910296E+01  1.58252655897404E+00
(PID.TID 0000.0001)  ploadbar=  1.01068337735266E+05
 cg2d: Sum(rhs),rhsMax =  -8.32507670180767E+01  1.57648680859444E+00
(PID.TID 0000.0001)  ploadbar=  1.01068745590915E+05
 cg2d: Sum(rhs),rhsMax =  -8.35238651942837E+01  1.57075907781046E+00
(PID.TID 0000.0001)  ploadbar=  1.01068221942273E+05
 cg2d: Sum(rhs),rhsMax =  -8.37962021720821E+01  1.56507468147551E+00
(PID.TID 0000.0001)  ploadbar=  1.01067698293631E+05
 cg2d: Sum(rhs),rhsMax =  -8.40519806237972E+01  1.55972590952389E+00
(PID.TID 0000.0001)  ploadbar=  1.01067174644989E+05
 cg2d: Sum(rhs),rhsMax =  -8.42795868105001E+01  1.55492248149006E+00
(PID.TID 0000.0001)  ploadbar=  1.01066650996347E+05
 cg2d: Sum(rhs),rhsMax =  -8.44739919238147E+01  1.55074596267611E+00
(PID.TID 0000.0001)  ploadbar=  1.01066127347706E+05
 cg2d: Sum(rhs),rhsMax =  -8.46373106000240E+01  1.54714649280297E+00
(PID.TID 0000.0001)  ploadbar=  1.01065603699064E+05
 cg2d: Sum(rhs),rhsMax =  -8.47604516305059E+01  1.54435369026778E+00
(PID.TID 0000.0001)  ploadbar=  1.01065268419311E+05
 cg2d: Sum(rhs),rhsMax =  -8.48563500911246E+01  1.54211403306649E+00
(PID.TID 0000.0001)  ploadbar=  1.01064933139557E+05
 cg2d: Sum(rhs),rhsMax =  -8.49450930439579E+01  1.54005122770426E+00
(PID.TID 0000.0001)  ploadbar=  1.01064597859804E+05
 cg2d: Sum(rhs),rhsMax =  -8.50391840715665E+01  1.53793355888027E+00
(PID.TID 0000.0001)  ploadbar=  1.01064262580051E+05
 cg2d: Sum(rhs),rhsMax =  -8.51436230193393E+01  1.53566738720905E+00
(PID.TID 0000.0001)  ploadbar=  1.01063927300298E+05
 cg2d: Sum(rhs),rhsMax =  -8.52900384226966E+01  1.53268120985595E+00
(PID.TID 0000.0001)  ploadbar=  1.01063592020545E+05
 cg2d: Sum(rhs),rhsMax =  -8.55296060514322E+01  1.52800504904671E+00
(PID.TID 0000.0001)  ploadbar=  1.01063234565544E+05
 cg2d: Sum(rhs),rhsMax =  -8.58435023862744E+01  1.52199962400251E+00
(PID.TID 0000.0001)  ploadbar=  1.01062877110543E+05
 cg2d: Sum(rhs),rhsMax =  -8.62287515638122E+01  1.51474190907385E+00
(PID.TID 0000.0001)  ploadbar=  1.01062519655541E+05
 cg2d: Sum(rhs),rhsMax =  -8.66807005764138E+01  1.50634203427858E+00
(PID.TID 0000.0001)  ploadbar=  1.01062162200540E+05
 cg2d: Sum(rhs),rhsMax =  -8.71928801075429E+01  1.49694203748370E+00
(PID.TID 0000.0001)  ploadbar=  1.01061804745539E+05
 cg2d: Sum(rhs),rhsMax =  -8.77608385495041E+01  1.48665098965135E+00
(PID.TID 0000.0001)  ploadbar=  1.01061447290538E+05
 cg2d: Sum(rhs),rhsMax =  -8.83831205934678E+01  1.47562575410658E+00
(PID.TID 0000.0001)  ploadbar=  1.01061434724580E+05
 cg2d: Sum(rhs),rhsMax =  -8.90889041835050E+01  1.46341802930629E+00
(PID.TID 0000.0001)  ploadbar=  1.01061422158622E+05
 cg2d: Sum(rhs),rhsMax =  -8.98129121160359E+01  1.45113866770187E+00
(PID.TID 0000.0001)  ploadbar=  1.01061409592664E+05
 cg2d: Sum(rhs),rhsMax =  -9.04835422362079E+01  1.43992917214261E+00
(PID.TID 0000.0001)  ploadbar=  1.01061397026705E+05
 cg2d: Sum(rhs),rhsMax =  -9.12246155878222E+01  1.42779808981638E+00
(PID.TID 0000.0001)  ploadbar=  1.01061384460747E+05
 cg2d: Sum(rhs),rhsMax =  -9.19527425315026E+01  1.41607105168365E+00
(PID.TID 0000.0001)  ploadbar=  1.01061371894789E+05
 cg2d: Sum(rhs),rhsMax =  -9.26953196883641E+01  1.40430477874598E+00
(PID.TID 0000.0001)  ploadbar=  1.01060543662697E+05
 cg2d: Sum(rhs),rhsMax =  -9.34556741839900E+01  1.39245175068906E+00
(PID.TID 0000.0001)  ploadbar=  1.01059715430606E+05
 cg2d: Sum(rhs),rhsMax =  -9.42288841158895E+01  1.38059226558589E+00
(PID.TID 0000.0001)  ploadbar=  1.01058887198514E+05
 cg2d: Sum(rhs),rhsMax =  -9.50126982848956E+01  1.36876428361519E+00
(PID.TID 0000.0001)  ploadbar=  1.01058058966423E+05
 cg2d: Sum(rhs),rhsMax =  -9.58052177286781E+01  1.35699937684238E+00
(PID.TID 0000.0001)  ploadbar=  1.01057230734331E+05
 cg2d: Sum(rhs),rhsMax =  -9.66037966791674E+01  1.34533333304910E+00
(PID.TID 0000.0001)  ploadbar=  1.01056402502239E+05
 cg2d: Sum(rhs),rhsMax =  -9.73319654296036E+01  1.33486118515278E+00
(PID.TID 0000.0001)  ploadbar=  1.01055727605672E+05
 cg2d: Sum(rhs),rhsMax =  -9.80893953920026E+01  1.32417425046620E+00
(PID.TID 0000.0001)  ploadbar=  1.01055052709105E+05
 cg2d: Sum(rhs),rhsMax =  -9.89022714230627E+01  1.31293205359255E+00
(PID.TID 0000.0001)  ploadbar=  1.01054377812538E+05
 cg2d: Sum(rhs),rhsMax =  -9.97889589398904E+01  1.30092238347445E+00
(PID.TID 0000.0001)  ploadbar=  1.01053702915971E+05
 cg2d: Sum(rhs),rhsMax =  -1.01045099165787E+02  1.28441949192382E+00
(PID.TID 0000.0001)  ploadbar=  1.01053028019404E+05
 cg2d: Sum(rhs),rhsMax =  -1.02333341404216E+02  1.26793430880670E+00
(PID.TID 0000.0001)  ploadbar=  1.01052353122837E+05
 cg2d: Sum(rhs),rhsMax =  -1.03570858090482E+02  1.25245071769324E+00
(PID.TID 0000.0001)  ploadbar=  1.01051792559225E+05
 cg2d: Sum(rhs),rhsMax =  -1.04788441665458E+02  1.23754101078872E+00
(PID.TID 0000.0001)  ploadbar=  1.01051231995613E+05
 cg2d: Sum(rhs),rhsMax =  -1.05979413307649E+02  1.22325077876521E+00
(PID.TID 0000.0001)  ploadbar=  1.01050671432002E+05
 cg2d: Sum(rhs),rhsMax =  -1.07159194103214E+02  1.20937010573527E+00
(PID.TID 0000.0001)  ploadbar=  1.01050110868390E+05
 cg2d: Sum(rhs),rhsMax =  -1.08302672265779E+02  1.19615423007655E+00
(PID.TID 0000.0001)  ploadbar=  1.01049550304778E+05
 cg2d: Sum(rhs),rhsMax =  -1.09499609296897E+02  1.18259686794647E+00
(PID.TID 0000.0001)  ploadbar=  1.01048989741166E+05
 cg2d: Sum(rhs),rhsMax =  -1.10728167346821E+02  1.16905105136467E+00
(PID.TID 0000.0001)  ploadbar=  1.01049103599286E+05
 cg2d: Sum(rhs),rhsMax =  -1.11731522743901E+02  1.15818022974337E+00
(PID.TID 0000.0001)  ploadbar=  1.01049217457406E+05
 cg2d: Sum(rhs),rhsMax =  -1.11298026847196E+02  1.16236173259713E+00
(PID.TID 0000.0001)  ploadbar=  1.01049331315526E+05
 cg2d: Sum(rhs),rhsMax =  -1.10957687579683E+02  1.16563393410078E+00
(PID.TID 0000.0001)  ploadbar=  1.01049445173646E+05
 cg2d: Sum(rhs),rhsMax =  -1.10723938501883E+02  1.16783066922743E+00
(PID.TID 0000.0001)  ploadbar=  1.01049559031766E+05
 cg2d: Sum(rhs),rhsMax =  -1.10592649291600E+02  1.16897722505773E+00
(PID.TID 0000.0001)  ploadbar=  1.01049672889887E+05
 cg2d: Sum(rhs),rhsMax =  -1.10592820668521E+02  1.16872732454370E+00
(PID.TID 0000.0001)  ploadbar=  1.01049323099528E+05
 cg2d: Sum(rhs),rhsMax =  -1.10565532317119E+02  1.16875683982382E+00
(PID.TID 0000.0001)  ploadbar=  1.01048973309170E+05
 cg2d: Sum(rhs),rhsMax =  -1.10556600458649E+02  1.16858028667339E+00
(PID.TID 0000.0001)  ploadbar=  1.01048623518812E+05
 cg2d: Sum(rhs),rhsMax =  -1.10603419128771E+02  1.16780390340164E+00
(PID.TID 0000.0001)  ploadbar=  1.01048273728454E+05
 cg2d: Sum(rhs),rhsMax =  -1.10702307826976E+02  1.16647065506884E+00
(PID.TID 0000.0001)  ploadbar=  1.01047923938096E+05
 cg2d: Sum(rhs),rhsMax =  -1.10864927240689E+02  1.16446028544660E+00
(PID.TID 0000.0001)  ploadbar=  1.01047574147737E+05
 cg2d: Sum(rhs),rhsMax =  -1.11137865094248E+02  1.16136336223007E+00
(PID.TID 0000.0001)  ploadbar=  1.01046111787836E+05
 cg2d: Sum(rhs),rhsMax =  -1.11415937215011E+02  1.15827687936925E+00
(PID.TID 0000.0001)  ploadbar=  1.01044649427934E+05
 cg2d: Sum(rhs),rhsMax =  -1.11714139680737E+02  1.15504088618680E+00
(PID.TID 0000.0001)  ploadbar=  1.01043187068032E+05
 cg2d: Sum(rhs),rhsMax =  -1.12038422821376E+02  1.15159492151881E+00
(PID.TID 0000.0001)  ploadbar=  1.01041724708130E+05
 cg2d: Sum(rhs),rhsMax =  -1.12391931537912E+02  1.14791026529602E+00
(PID.TID 0000.0001)  ploadbar=  1.01040262348228E+05
 cg2d: Sum(rhs),rhsMax =  -1.12781267213777E+02  1.14392385787598E+00
(PID.TID 0000.0001)  ploadbar=  1.01038799988327E+05
 cg2d: Sum(rhs),rhsMax =  -1.13223104266601E+02  1.13939562930764E+00
(PID.TID 0000.0001)  ploadbar=  1.01037923058345E+05
 cg2d: Sum(rhs),rhsMax =  -1.13494646864814E+02  1.13655913621554E+00
(PID.TID 0000.0001)  ploadbar=  1.01037046128363E+05
 cg2d: Sum(rhs),rhsMax =  -1.14187714743479E+02  1.12950147483687E+00
(PID.TID 0000.0001)  ploadbar=  1.01036169198381E+05
 cg2d: Sum(rhs),rhsMax =  -1.09683518962706E+02  1.17566346419091E+00
(PID.TID 0000.0001)  ploadbar=  1.01035292268399E+05
 cg2d: Sum(rhs),rhsMax =  -1.05073078503205E+02  1.22695814536258E+00
(PID.TID 0000.0001)  ploadbar=  1.01034415338417E+05
 cg2d: Sum(rhs),rhsMax =  -1.00849776685144E+02  1.27796870524625E+00
(PID.TID 0000.0001)  ploadbar=  1.01033538408435E+05
 cg2d: Sum(rhs),rhsMax =  -9.74337860141518E+01  1.32240336921574E+00
(PID.TID 0000.0001)  ploadbar=  1.01033319028179E+05
 cg2d: Sum(rhs),rhsMax =  -9.49569794844858E+01  1.35652832035145E+00
(PID.TID 0000.0001)  ploadbar=  1.01033099647924E+05
 cg2d: Sum(rhs),rhsMax =  -9.51764528652127E+01  1.35303880409480E+00
(PID.TID 0000.0001)  ploadbar=  1.01032880267668E+05
 cg2d: Sum(rhs),rhsMax =  -9.54454431105575E+01  1.34886392011195E+00
(PID.TID 0000.0001)  ploadbar=  1.01032660887413E+05
 cg2d: Sum(rhs),rhsMax =  -9.56121186783539E+01  1.34614285900240E+00
(PID.TID 0000.0001)  ploadbar=  1.01032441507157E+05
 cg2d: Sum(rhs),rhsMax =  -9.55752781993729E+01  1.34627726181273E+00
(PID.TID 0000.0001)  ploadbar=  1.01032222126901E+05
 cg2d: Sum(rhs),rhsMax =  -9.55918204464205E+01  1.34564130059180E+00
(PID.TID 0000.0001)  ploadbar=  1.01031015167768E+05
 cg2d: Sum(rhs),rhsMax =  -9.57543945310071E+01  1.34293240177687E+00
(PID.TID 0000.0001)  ploadbar=  1.01029808208634E+05
 cg2d: Sum(rhs),rhsMax =  -9.61808784782676E+01  1.33653524821092E+00
(PID.TID 0000.0001)  ploadbar=  1.01028601249500E+05
 cg2d: Sum(rhs),rhsMax =  -9.37013590073336E+01  1.37142828727474E+00
(PID.TID 0000.0001)  ploadbar=  1.01027394290366E+05
 cg2d: Sum(rhs),rhsMax =  -9.09294701047141E+01  1.41272641826336E+00
(PID.TID 0000.0001)  ploadbar=  1.01026187331232E+05
 cg2d: Sum(rhs),rhsMax =  -8.83751837611573E+01  1.45301737576249E+00
(PID.TID 0000.0001)  ploadbar=  1.01024980372098E+05
 cg2d: Sum(rhs),rhsMax =  -8.60016076434035E+01  1.49261549405848E+00
(PID.TID 0000.0001)  ploadbar=  1.01024086577425E+05
 cg2d: Sum(rhs),rhsMax =  -8.38284283263496E+01  1.53082845914147E+00
(PID.TID 0000.0001)  ploadbar=  1.01023192782753E+05
 cg2d: Sum(rhs),rhsMax =  -8.18833514986385E+01  1.56672846890260E+00
(PID.TID 0000.0001)  ploadbar=  1.01022298988080E+05
 cg2d: Sum(rhs),rhsMax =  -8.01918333178126E+01  1.59933160633899E+00
(PID.TID 0000.0001)  ploadbar=  1.01021405193407E+05
 cg2d: Sum(rhs),rhsMax =  -7.89620334839909E+01  1.62381746414180E+00
(PID.TID 0000.0001)  ploadbar=  1.01020511398735E+05
 cg2d: Sum(rhs),rhsMax =  -7.83072068952353E+01  1.63699775591554E+00
(PID.TID 0000.0001)  ploadbar=  1.01019617604062E+05
 cg2d: Sum(rhs),rhsMax =  -7.77945450648659E+01  1.64735979180981E+00
(PID.TID 0000.0001)  ploadbar=  1.01018880016954E+05
 cg2d: Sum(rhs),rhsMax =  -7.72898335568235E+01  1.65765641602009E+00
(PID.TID 0000.0001)  ploadbar=  1.01018142429847E+05
 cg2d: Sum(rhs),rhsMax =  -7.67864771292928E+01  1.66801998105035E+00
(PID.TID 0000.0001)  ploadbar=  1.01017404842739E+05
 cg2d: Sum(rhs),rhsMax =  -7.63352771562291E+01  1.67732974686900E+00
(PID.TID 0000.0001)  ploadbar=  1.01016667255632E+05
 cg2d: Sum(rhs),rhsMax =  -7.62244799614921E+01  1.67916822557472E+00
(PID.TID 0000.0001)  ploadbar=  1.01015929668524E+05
 cg2d: Sum(rhs),rhsMax =  -7.63262546948671E+01  1.67627314069785E+00
(PID.TID 0000.0001)  ploadbar=  1.01015192081417E+05
 cg2d: Sum(rhs),rhsMax =  -7.65574153953051E+01  1.67060479580190E+00
(PID.TID 0000.0001)  ploadbar=  1.01014828593766E+05
 cg2d: Sum(rhs),rhsMax =  -7.69752017488985E+01  1.66097821044937E+00
(PID.TID 0000.0001)  ploadbar=  1.01014465106115E+05
 cg2d: Sum(rhs),rhsMax =  -7.77463224397899E+01  1.64398709506796E+00
(PID.TID 0000.0001)  ploadbar=  1.01014101618464E+05
 cg2d: Sum(rhs),rhsMax =  -7.84055744281230E+01  1.62968047062997E+00
(PID.TID 0000.0001)  ploadbar=  1.01013738130813E+05
 cg2d: Sum(rhs),rhsMax =  -7.90482041323490E+01  1.61597264208589E+00
(PID.TID 0000.0001)  ploadbar=  1.01013374643161E+05
 cg2d: Sum(rhs),rhsMax =  -7.97166383002032E+01  1.60197739772305E+00
(PID.TID 0000.0001)  ploadbar=  1.01013011155510E+05
 cg2d: Sum(rhs),rhsMax =  -7.99473577834008E+01  1.59693686709851E+00
(PID.TID 0000.0001)  ploadbar=  1.01012523228494E+05
 cg2d: Sum(rhs),rhsMax =  -8.04305008286038E+01  1.58695392474002E+00
(PID.TID 0000.0001)  ploadbar=  1.01012035301478E+05
 cg2d: Sum(rhs),rhsMax =  -8.08791664070748E+01  1.57778680124615E+00
(PID.TID 0000.0001)  ploadbar=  1.01011547374462E+05
 cg2d: Sum(rhs),rhsMax =  -8.12786671755449E+01  1.56969155236364E+00
(PID.TID 0000.0001)  ploadbar=  1.01011059447446E+05
 cg2d: Sum(rhs),rhsMax =  -8.16189375066943E+01  1.56282794809276E+00
(PID.TID 0000.0001)  ploadbar=  1.01010571520430E+05
 cg2d: Sum(rhs),rhsMax =  -8.18986019463416E+01  1.55719032425970E+00
(PID.TID 0000.0001)  ploadbar=  1.01010083593413E+05
 cg2d: Sum(rhs),rhsMax =  -8.21217717864582E+01  1.55268115416645E+00
(PID.TID 0000.0001)  ploadbar=  1.01009811659654E+05
 cg2d: Sum(rhs),rhsMax =  -8.22864277678276E+01  1.54930501750835E+00
(PID.TID 0000.0001)  ploadbar=  1.01009539725895E+05
 cg2d: Sum(rhs),rhsMax =  -8.24403525576180E+01  1.54614412361398E+00
(PID.TID 0000.0001)  ploadbar=  1.01009267792136E+05
 cg2d: Sum(rhs),rhsMax =  -8.26423705299897E+01  1.54209622219134E+00
(PID.TID 0000.0001)  ploadbar=  1.01008995858376E+05
 cg2d: Sum(rhs),rhsMax =  -8.29346543841425E+01  1.53638981267400E+00
(PID.TID 0000.0001)  ploadbar=  1.01008723924617E+05
 cg2d: Sum(rhs),rhsMax =  -8.32737295046122E+01  1.52985486355355E+00
(PID.TID 0000.0001)  ploadbar=  1.01008451990858E+05
 cg2d: Sum(rhs),rhsMax =  -8.34618057604896E+01  1.52609916380903E+00
(PID.TID 0000.0001)  ploadbar=  1.01008382831036E+05
 cg2d: Sum(rhs),rhsMax =  -8.34959067813927E+01  1.52513015851708E+00
(PID.TID 0000.0001)  ploadbar=  1.01008313671213E+05
 cg2d: Sum(rhs),rhsMax =  -8.33950596071847E+01  1.52658463884907E+00
(PID.TID 0000.0001)  ploadbar=  1.01008244511391E+05
 cg2d: Sum(rhs),rhsMax =  -8.32801541959204E+01  1.52825267815794E+00
(PID.TID 0000.0001)  ploadbar=  1.01008175351569E+05
 cg2d: Sum(rhs),rhsMax =  -8.32052856324843E+01  1.52913760396652E+00
(PID.TID 0000.0001)  ploadbar=  1.01008106191747E+05
 cg2d: Sum(rhs),rhsMax =  -8.32127950397465E+01  1.52845389468757E+00
(PID.TID 0000.0001)  ploadbar=  1.01008037031924E+05
 cg2d: Sum(rhs),rhsMax =  -8.32855218296686E+01  1.52659538670224E+00
(PID.TID 0000.0001)  ploadbar=  1.01008266635890E+05
 cg2d: Sum(rhs),rhsMax =  -8.34287725845289E+01  1.52346923525681E+00
(PID.TID 0000.0001)  ploadbar=  1.01008496239856E+05
 cg2d: Sum(rhs),rhsMax =  -8.36204764240566E+01  1.51948891587191E+00
(PID.TID 0000.0001)  ploadbar=  1.01008725843821E+05
 cg2d: Sum(rhs),rhsMax =  -8.38381607185620E+01  1.51506428890986E+00
(PID.TID 0000.0001)  ploadbar=  1.01008955447787E+05
 cg2d: Sum(rhs),rhsMax =  -8.40938916683073E+01  1.50997474153024E+00
(PID.TID 0000.0001)  ploadbar=  1.01009185051752E+05
 cg2d: Sum(rhs),rhsMax =  -8.42948722654783E+01  1.50587513261675E+00
(PID.TID 0000.0001)  ploadbar=  1.01009414655718E+05
 cg2d: Sum(rhs),rhsMax =  -8.43922176408681E+01  1.50362421117687E+00
(PID.TID 0000.0001)  ploadbar=  1.01010056195046E+05
 cg2d: Sum(rhs),rhsMax =  -8.43804383333791E+01  1.50329899701235E+00
(PID.TID 0000.0001)  ploadbar=  1.01010697734373E+05
 cg2d: Sum(rhs),rhsMax =  -8.42931782987308E+01  1.50429391232202E+00
(PID.TID 0000.0001)  ploadbar=  1.01011339273701E+05
 cg2d: Sum(rhs),rhsMax =  -8.41851749304238E+01  1.50563162563494E+00
(PID.TID 0000.0001)  ploadbar=  1.01011980813028E+05
 cg2d: Sum(rhs),rhsMax =  -8.41152829717903E+01  1.50625885469548E+00
(PID.TID 0000.0001)  ploadbar=  1.01012622352356E+05
 cg2d: Sum(rhs),rhsMax =  -8.41266734076110E+01  1.50540007687488E+00
(PID.TID 0000.0001)  ploadbar=  1.01013263891684E+05
 cg2d: Sum(rhs),rhsMax =  -8.42217871098744E+01  1.50308498815281E+00
(PID.TID 0000.0001)  ploadbar=  1.01012232561383E+05
 cg2d: Sum(rhs),rhsMax =  -8.44174327241009E+01  1.49901655674175E+00
(PID.TID 0000.0001)  ploadbar=  1.01011201231082E+05
 cg2d: Sum(rhs),rhsMax =  -8.47105328296785E+01  1.49327135461126E+00
(PID.TID 0000.0001)  ploadbar=  1.01010169900781E+05
 cg2d: Sum(rhs),rhsMax =  -8.51416051400311E+01  1.48517225232079E+00
(PID.TID 0000.0001)  ploadbar=  1.01009138570480E+05
 cg2d: Sum(rhs),rhsMax =  -8.57329721372669E+01  1.47440315982651E+00
(PID.TID 0000.0001)  ploadbar=  1.01008107240180E+05
 cg2d: Sum(rhs),rhsMax =  -8.64442338784350E+01  1.46175437596727E+00
(PID.TID 0000.0001)  ploadbar=  1.01007075909879E+05
 cg2d: Sum(rhs),rhsMax =  -8.70342632614524E+01  1.45129198801392E+00
(PID.TID 0000.0001)  ploadbar=  1.01007186082476E+05
 cg2d: Sum(rhs),rhsMax =  -8.74660941557246E+01  1.44353434146295E+00
(PID.TID 0000.0001)  ploadbar=  1.01007296255073E+05
 cg2d: Sum(rhs),rhsMax =  -8.77265014110655E+01  1.43861445495786E+00
(PID.TID 0000.0001)  ploadbar=  1.01007406427669E+05
 cg2d: Sum(rhs),rhsMax =  -8.78689472948100E+01  1.43559993016870E+00
(PID.TID 0000.0001)  ploadbar=  1.01007516600266E+05
 cg2d: Sum(rhs),rhsMax =  -8.79648348328330E+01  1.43330180333527E+00
(PID.TID 0000.0001)  ploadbar=  1.01007626772863E+05
 cg2d: Sum(rhs),rhsMax =  -8.77355885933896E+01  1.43625698667039E+00
(PID.TID 0000.0001)  ploadbar=  1.01007736945460E+05
 cg2d: Sum(rhs),rhsMax =  -8.72797608377503E+01  1.44300702136513E+00
(PID.TID 0000.0001)  ploadbar=  1.01007281256670E+05
 cg2d: Sum(rhs),rhsMax =  -8.69015285304542E+01  1.44857326622588E+00
(PID.TID 0000.0001)  ploadbar=  1.01006825567880E+05
 cg2d: Sum(rhs),rhsMax =  -8.65978292564045E+01  1.45297288526179E+00
(PID.TID 0000.0001)  ploadbar=  1.01006369879090E+05
 cg2d: Sum(rhs),rhsMax =  -8.63578052932542E+01  1.45636023087335E+00
(PID.TID 0000.0001)  ploadbar=  1.01005914190300E+05
 cg2d: Sum(rhs),rhsMax =  -8.61897705835179E+01  1.45857244706618E+00
(PID.TID 0000.0001)  ploadbar=  1.01005458501511E+05
 cg2d: Sum(rhs),rhsMax =  -8.61579566974086E+01  1.45850013069069E+00
(PID.TID 0000.0001)  ploadbar=  1.01005002812721E+05
 cg2d: Sum(rhs),rhsMax =  -8.61271013190131E+01  1.45841788106690E+00
(PID.TID 0000.0001)  ploadbar=  1.01005219681515E+05
 cg2d: Sum(rhs),rhsMax =  -8.61478294320822E+01  1.45745913040975E+00
(PID.TID 0000.0001)  ploadbar=  1.01005436550310E+05
 cg2d: Sum(rhs),rhsMax =  -8.62101925781869E+01  1.45579052661884E+00
(PID.TID 0000.0001)  ploadbar=  1.01005653419105E+05
 cg2d: Sum(rhs),rhsMax =  -8.63097142124855E+01  1.45348774514976E+00
(PID.TID 0000.0001)  ploadbar=  1.01005870287900E+05
 cg2d: Sum(rhs),rhsMax =  -8.38973521064195E+01  1.49462703917268E+00
(PID.TID 0000.0001)  ploadbar=  1.01006087156694E+05
 cg2d: Sum(rhs),rhsMax =  -8.18734479788758E+01  1.53089093755681E+00
(PID.TID 0000.0001)  ploadbar=  1.01006304025489E+05
 cg2d: Sum(rhs),rhsMax =  -8.01652103871833E+01  1.56286531817714E+00
(PID.TID 0000.0001)  ploadbar=  1.01006653888064E+05
 cg2d: Sum(rhs),rhsMax =  -7.87693459237735E+01  1.58994514765427E+00
(PID.TID 0000.0001)  ploadbar=  1.01007003750640E+05
 cg2d: Sum(rhs),rhsMax =  -7.76154295726156E+01  1.61299728805464E+00
(PID.TID 0000.0001)  ploadbar=  1.01007353613215E+05
 cg2d: Sum(rhs),rhsMax =  -7.66906841463276E+01  1.63189041229016E+00
(PID.TID 0000.0001)  ploadbar=  1.01007703475790E+05
 cg2d: Sum(rhs),rhsMax =  -7.59529787738706E+01  1.64720969529273E+00
(PID.TID 0000.0001)  ploadbar=  1.01008053338366E+05
 cg2d: Sum(rhs),rhsMax =  -7.53634268891130E+01  1.65959249548935E+00
(PID.TID 0000.0001)  ploadbar=  1.01008403200941E+05
 cg2d: Sum(rhs),rhsMax =  -7.48415304989015E+01  1.67063283078446E+00
(PID.TID 0000.0001)  ploadbar=  1.01008588573197E+05
 cg2d: Sum(rhs),rhsMax =  -7.43788966541020E+01  1.68045354748970E+00
(PID.TID 0000.0001)  ploadbar=  1.01008773945453E+05
 cg2d: Sum(rhs),rhsMax =  -7.39752006714245E+01  1.68901146234226E+00
(PID.TID 0000.0001)  ploadbar=  1.01008959317708E+05
 cg2d: Sum(rhs),rhsMax =  -7.36364588297641E+01  1.69612354245608E+00
(PID.TID 0000.0001)  ploadbar=  1.01009144689964E+05
 cg2d: Sum(rhs),rhsMax =  -7.34296697999301E+01  1.70019504154543E+00
(PID.TID 0000.0001)  ploadbar=  1.01009330062220E+05
 cg2d: Sum(rhs),rhsMax =  -7.34415109596767E+01  1.69916705800185E+00
(PID.TID 0000.0001)  ploadbar=  1.01009515434476E+05
 cg2d: Sum(rhs),rhsMax =  -7.35760040500239E+01  1.69534598757958E+00
(PID.TID 0000.0001)  ploadbar=  1.01009338117609E+05
 cg2d: Sum(rhs),rhsMax =  -7.38239235022317E+01  1.68896983408134E+00
(PID.TID 0000.0001)  ploadbar=  1.01009160800742E+05
 cg2d: Sum(rhs),rhsMax =  -7.41129934832215E+01  1.68172691670806E+00
(PID.TID 0000.0001)  ploadbar=  1.01008983483875E+05
 cg2d: Sum(rhs),rhsMax =  -7.43482137793348E+01  1.67577001600016E+00
(PID.TID 0000.0001)  ploadbar=  1.01008806167008E+05
 cg2d: Sum(rhs),rhsMax =  -7.45780640442162E+01  1.66997699127388E+00
(PID.TID 0000.0001)  ploadbar=  1.01008628850141E+05
 cg2d: Sum(rhs),rhsMax =  -7.47743315439058E+01  1.66496455298862E+00
(PID.TID 0000.0001)  ploadbar=  1.01008451533274E+05
 cg2d: Sum(rhs),rhsMax =  -7.49390768774472E+01  1.66066388633251E+00
(PID.TID 0000.0001)  ploadbar=  1.01008344920993E+05
 cg2d: Sum(rhs),rhsMax =  -7.50470480931316E+01  1.65761912961524E+00
(PID.TID 0000.0001)  ploadbar=  1.01008238308713E+05
 cg2d: Sum(rhs),rhsMax =  -7.50575162118475E+01  1.65671418406724E+00
(PID.TID 0000.0001)  ploadbar=  1.01008131696432E+05
 cg2d: Sum(rhs),rhsMax =  -7.48406597444474E+01  1.66081960460375E+00
(PID.TID 0000.0001)  ploadbar=  1.01008025084151E+05
 cg2d: Sum(rhs),rhsMax =  -7.47012811796050E+01  1.66320486472066E+00
(PID.TID 0000.0001)  ploadbar=  1.01007918471871E+05
 cg2d: Sum(rhs),rhsMax =  -7.46609707652384E+01  1.66337671913325E+00
(PID.TID 0000.0001)  ploadbar=  1.01007811859590E+05
 cg2d: Sum(rhs),rhsMax =  -7.46826351350584E+01  1.66223534257021E+00
(PID.TID 0000.0001)  ploadbar=  1.01006176724662E+05
 cg2d: Sum(rhs),rhsMax =  -7.47602885966133E+01  1.65990120072697E+00
(PID.TID 0000.0001)  ploadbar=  1.01004541589734E+05
 cg2d: Sum(rhs),rhsMax =  -7.48617085570274E+01  1.65708718766351E+00
(PID.TID 0000.0001)  ploadbar=  1.01002906454807E+05
 cg2d: Sum(rhs),rhsMax =  -7.49822506205288E+01  1.65389753163999E+00
(PID.TID 0000.0001)  ploadbar=  1.01001271319879E+05
 cg2d: Sum(rhs),rhsMax =  -7.51173617833009E+01  1.65043408662259E+00
(PID.TID 0000.0001)  ploadbar=  1.00999636184951E+05
 cg2d: Sum(rhs),rhsMax =  -7.52207227799582E+01  1.64771199437839E+00
(PID.TID 0000.0001)  ploadbar=  1.00998001050023E+05
 cg2d: Sum(rhs),rhsMax =  -7.52881554380170E+01  1.64575429303891E+00
(PID.TID 0000.0001)  ploadbar=  1.00997569634129E+05
 cg2d: Sum(rhs),rhsMax =  -7.43689451449817E+01  1.66557241379939E+00
(PID.TID 0000.0001)  ploadbar=  1.00997138218234E+05
 cg2d: Sum(rhs),rhsMax =  -7.34552482437986E+01  1.68572066541832E+00
(PID.TID 0000.0001)  ploadbar=  1.00996706802340E+05
 cg2d: Sum(rhs),rhsMax =  -7.25863696811030E+01  1.70527769524778E+00
(PID.TID 0000.0001)  ploadbar=  1.00996275386445E+05
 cg2d: Sum(rhs),rhsMax =  -7.17550646402786E+01  1.72435807467121E+00
(PID.TID 0000.0001)  ploadbar=  1.00995843970551E+05
 cg2d: Sum(rhs),rhsMax =  -7.09661538009331E+01  1.74279242861886E+00
(PID.TID 0000.0001)  ploadbar=  1.00995412554656E+05
 cg2d: Sum(rhs),rhsMax =  -7.02163073469974E+01  1.76069662075941E+00
(PID.TID 0000.0001)  ploadbar=  1.00995176021064E+05
 cg2d: Sum(rhs),rhsMax =  -7.07984059097761E+01  1.74554518111626E+00
(PID.TID 0000.0001)  ploadbar=  1.00994939487472E+05
 cg2d: Sum(rhs),rhsMax =  -7.11946086864218E+01  1.73518361307316E+00
(PID.TID 0000.0001)  ploadbar=  1.00994702953881E+05
 cg2d: Sum(rhs),rhsMax =  -7.15216616587446E+01  1.72662391392140E+00
(PID.TID 0000.0001)  ploadbar=  1.00994466420289E+05
 cg2d: Sum(rhs),rhsMax =  -7.18439316413711E+01  1.71826942082743E+00
(PID.TID 0000.0001)  ploadbar=  1.00994229886697E+05
 cg2d: Sum(rhs),rhsMax =  -7.21598677425085E+01  1.71014079854781E+00
(PID.TID 0000.0001)  ploadbar=  1.00993993353105E+05
 cg2d: Sum(rhs),rhsMax =  -7.24580891374840E+01  1.70249968896862E+00
(PID.TID 0000.0001)  ploadbar=  1.00993566290419E+05
 cg2d: Sum(rhs),rhsMax =  -7.27483716598725E+01  1.69510292375941E+00
(PID.TID 0000.0001)  ploadbar=  1.00993139227732E+05
 cg2d: Sum(rhs),rhsMax =  -7.30272553769339E+01  1.68802060980337E+00
(PID.TID 0000.0001)  ploadbar=  1.00992712165046E+05
 cg2d: Sum(rhs),rhsMax =  -7.30131495796269E+01  1.68772718702791E+00
(PID.TID 0000.0001)  ploadbar=  1.00992285102359E+05
 cg2d: Sum(rhs),rhsMax =  -7.28800519047961E+01  1.69017762269256E+00
(PID.TID 0000.0001)  ploadbar=  1.00991858039673E+05
 cg2d: Sum(rhs),rhsMax =  -7.27894039002268E+01  1.69163876940375E+00
(PID.TID 0000.0001)  ploadbar=  1.00991430976987E+05
 cg2d: Sum(rhs),rhsMax =  -7.27452738402097E+01  1.69204889880518E+00
(PID.TID 0000.0001)  ploadbar=  1.00991302255753E+05
 cg2d: Sum(rhs),rhsMax =  -7.27588623085084E+01  1.69112334102331E+00
(PID.TID 0000.0001)  ploadbar=  1.00991173534520E+05
 cg2d: Sum(rhs),rhsMax =  -7.28322749253229E+01  1.68880831456997E+00
(PID.TID 0000.0001)  ploadbar=  1.00991044813287E+05
 cg2d: Sum(rhs),rhsMax =  -7.29605589097459E+01  1.68522446476498E+00
(PID.TID 0000.0001)  ploadbar=  1.00990916092054E+05
 cg2d: Sum(rhs),rhsMax =  -7.31351926002133E+01  1.68058141211802E+00
(PID.TID 0000.0001)  ploadbar=  1.00990787370821E+05
 cg2d: Sum(rhs),rhsMax =  -7.34109182357225E+01  1.67364423857810E+00
(PID.TID 0000.0001)  ploadbar=  1.00990658649588E+05
 cg2d: Sum(rhs),rhsMax =  -7.35869482506415E+01  1.66898944085499E+00
(PID.TID 0000.0001)  ploadbar=  1.00991150435881E+05
 cg2d: Sum(rhs),rhsMax =  -7.34093497496787E+01  1.67234175408525E+00
(PID.TID 0000.0001)  ploadbar=  1.00991642222175E+05
 cg2d: Sum(rhs),rhsMax =  -7.32364457303583E+01  1.67556398673023E+00
(PID.TID 0000.0001)  ploadbar=  1.00992134008468E+05
 cg2d: Sum(rhs),rhsMax =  -7.30923763191005E+01  1.67809513570995E+00
(PID.TID 0000.0001)  ploadbar=  1.00992625794762E+05
 cg2d: Sum(rhs),rhsMax =  -7.29510984869546E+01  1.68052354914201E+00
(PID.TID 0000.0001)  ploadbar=  1.00993117581055E+05
 cg2d: Sum(rhs),rhsMax =  -7.28113217764038E+01  1.68287431337263E+00
(PID.TID 0000.0001)  ploadbar=  1.00993609367348E+05
 cg2d: Sum(rhs),rhsMax =  -7.26730313292293E+01  1.68524989878864E+00
(PID.TID 0000.0001)  ploadbar=  1.00994272671245E+05
 cg2d: Sum(rhs),rhsMax =  -7.25044047741401E+01  1.68838386155444E+00
(PID.TID 0000.0001)  ploadbar=  1.00994935975142E+05
 cg2d: Sum(rhs),rhsMax =  -7.23116201242765E+01  1.69214143092567E+00
(PID.TID 0000.0001)  ploadbar=  1.00995599279039E+05
 cg2d: Sum(rhs),rhsMax =  -7.21364599153008E+01  1.69554634497643E+00
(PID.TID 0000.0001)  ploadbar=  1.00996262582935E+05
 cg2d: Sum(rhs),rhsMax =  -7.20250028156547E+01  1.69749632860384E+00
(PID.TID 0000.0001)  ploadbar=  1.00996925886832E+05
 cg2d: Sum(rhs),rhsMax =  -7.19989584793693E+01  1.69745794273854E+00
(PID.TID 0000.0001)  ploadbar=  1.00997589190729E+05
 cg2d: Sum(rhs),rhsMax =  -7.19681896084332E+01  1.69752517268308E+00
(PID.TID 0000.0001)  ploadbar=  1.00999434833049E+05
 cg2d: Sum(rhs),rhsMax =  -7.19599326785182E+01  1.69705020690825E+00
(PID.TID 0000.0001)  ploadbar=  1.01001280475370E+05
 cg2d: Sum(rhs),rhsMax =  -7.19781726458183E+01  1.69593217788839E+00
(PID.TID 0000.0001)  ploadbar=  1.01003126117691E+05
 cg2d: Sum(rhs),rhsMax =  -7.20200101055447E+01  1.69423758547143E+00
(PID.TID 0000.0001)  ploadbar=  1.01004971760011E+05
 cg2d: Sum(rhs),rhsMax =  -7.20877423707812E+01  1.69191468217577E+00
(PID.TID 0000.0001)  ploadbar=  1.01006817402332E+05
 cg2d: Sum(rhs),rhsMax =  -7.21830102178953E+01  1.68893173971528E+00
(PID.TID 0000.0001)  ploadbar=  1.01008663044653E+05
 cg2d: Sum(rhs),rhsMax =  -7.23156667476840E+01  1.68514349922645E+00
(PID.TID 0000.0001)  ploadbar=  1.01009516014276E+05
 cg2d: Sum(rhs),rhsMax =  -7.24550159520151E+01  1.68125494014711E+00
(PID.TID 0000.0001)  ploadbar=  1.01010368983900E+05
 cg2d: Sum(rhs),rhsMax =  -7.25906354489819E+01  1.67750610389622E+00
(PID.TID 0000.0001)  ploadbar=  1.01011221953524E+05
 cg2d: Sum(rhs),rhsMax =  -7.27158972622080E+01  1.67404655513341E+00
(PID.TID 0000.0001)  ploadbar=  1.01012074923147E+05
 cg2d: Sum(rhs),rhsMax =  -7.28601816220476E+01  1.67019998718152E+00
(PID.TID 0000.0001)  ploadbar=  1.01012927892771E+05
 cg2d: Sum(rhs),rhsMax =  -7.30278010155530E+01  1.66586731016992E+00
(PID.TID 0000.0001)  ploadbar=  1.01013780862395E+05
 cg2d: Sum(rhs),rhsMax =  -7.31549422829020E+01  1.66244389244990E+00
(PID.TID 0000.0001)  ploadbar=  1.01012978704038E+05
 cg2d: Sum(rhs),rhsMax =  -7.32642398830911E+01  1.65940427891766E+00
(PID.TID 0000.0001)  ploadbar=  1.01012176545682E+05
 cg2d: Sum(rhs),rhsMax =  -7.33639384188162E+01  1.65655466287815E+00
(PID.TID 0000.0001)  ploadbar=  1.01011374387326E+05
 cg2d: Sum(rhs),rhsMax =  -7.34721890548843E+01  1.65348107170509E+00
(PID.TID 0000.0001)  ploadbar=  1.01010572228969E+05
 cg2d: Sum(rhs),rhsMax =  -7.36018031348243E+01  1.64989408621298E+00
(PID.TID 0000.0001)  ploadbar=  1.01009770070613E+05
 cg2d: Sum(rhs),rhsMax =  -7.37560449996308E+01  1.64572277904334E+00
(PID.TID 0000.0001)  ploadbar=  1.01008967912257E+05
 cg2d: Sum(rhs),rhsMax =  -7.38912204844374E+01  1.64203094795620E+00
(PID.TID 0000.0001)  ploadbar=  1.01007902221550E+05
 cg2d: Sum(rhs),rhsMax =  -7.39832754264961E+01  1.63934241287975E+00
(PID.TID 0000.0001)  ploadbar=  1.01006836530843E+05
 cg2d: Sum(rhs),rhsMax =  -7.40164683221268E+01  1.63799156095015E+00
(PID.TID 0000.0001)  ploadbar=  1.01005770840136E+05
 cg2d: Sum(rhs),rhsMax =  -7.40249391852446E+01  1.63721376177491E+00
(PID.TID 0000.0001)  ploadbar=  1.01004705149429E+05
 cg2d: Sum(rhs),rhsMax =  -7.40133463213441E+01  1.63690024650226E+00
(PID.TID 0000.0001)  ploadbar=  1.01003639458723E+05
 cg2d: Sum(rhs),rhsMax =  -7.39993393476829E+01  1.63665755363854E+00
(PID.TID 0000.0001)  ploadbar=  1.01002573768016E+05
 cg2d: Sum(rhs),rhsMax =  -7.39602314354226E+01  1.63695583970417E+00
(PID.TID 0000.0001)  ploadbar=  1.01001160029187E+05
 cg2d: Sum(rhs),rhsMax =  -7.38920127054734E+01  1.63787825049552E+00
(PID.TID 0000.0001)  ploadbar=  1.00999746290358E+05
 cg2d: Sum(rhs),rhsMax =  -7.37948982019695E+01  1.63941863646233E+00
(PID.TID 0000.0001)  ploadbar=  1.00998332551530E+05
 cg2d: Sum(rhs),rhsMax =  -7.36738920274880E+01  1.64146606889332E+00
(PID.TID 0000.0001)  ploadbar=  1.00996918812701E+05
 cg2d: Sum(rhs),rhsMax =  -7.35351720168286E+01  1.64388685167774E+00
(PID.TID 0000.0001)  ploadbar=  1.00995505073873E+05
 cg2d: Sum(rhs),rhsMax =  -7.33970735008552E+01  1.64627872569408E+00
(PID.TID 0000.0001)  ploadbar=  1.00994091335044E+05
 cg2d: Sum(rhs),rhsMax =  -7.32702072605909E+01  1.64848425587603E+00
(PID.TID 0000.0001)  ploadbar=  1.00993687957754E+05
 cg2d: Sum(rhs),rhsMax =  -7.31488739994902E+01  1.65061914958988E+00
(PID.TID 0000.0001)  ploadbar=  1.00993284580463E+05
 cg2d: Sum(rhs),rhsMax =  -7.30386971467841E+01  1.65255162889792E+00
(PID.TID 0000.0001)  ploadbar=  1.00992881203173E+05
 cg2d: Sum(rhs),rhsMax =  -7.29384386485817E+01  1.65430570551934E+00
(PID.TID 0000.0001)  ploadbar=  1.00992477825883E+05
 cg2d: Sum(rhs),rhsMax =  -7.28869652801118E+01  1.65499336601054E+00
(PID.TID 0000.0001)  ploadbar=  1.00992074448592E+05
 cg2d: Sum(rhs),rhsMax =  -7.28955623149429E+01  1.65435121477655E+00
(PID.TID 0000.0001)  ploadbar=  1.00991671071302E+05
 cg2d: Sum(rhs),rhsMax =  -7.28697135351847E+01  1.65447126684671E+00
(PID.TID 0000.0001)  ploadbar=  1.00992372901243E+05
 cg2d: Sum(rhs),rhsMax =  -7.28100878783227E+01  1.65533386789095E+00
(PID.TID 0000.0001)  ploadbar=  1.00993074731184E+05
 cg2d: Sum(rhs),rhsMax =  -7.26480151508191E+01  1.65850256087810E+00
(PID.TID 0000.0001)  ploadbar=  1.00993776561125E+05
 cg2d: Sum(rhs),rhsMax =  -7.24367497990624E+01  1.66277951793932E+00
(PID.TID 0000.0001)  ploadbar=  1.00994478391067E+05
 cg2d: Sum(rhs),rhsMax =  -7.22245494953634E+01  1.66706310919905E+00
(PID.TID 0000.0001)  ploadbar=  1.00995180221008E+05
 cg2d: Sum(rhs),rhsMax =  -7.20428944839196E+01  1.67061826075808E+00
(PID.TID 0000.0001)  ploadbar=  1.00995882050949E+05
 cg2d: Sum(rhs),rhsMax =  -7.19282710923948E+01  1.67265006072165E+00
(PID.TID 0000.0001)  ploadbar=  1.00995987467059E+05
 cg2d: Sum(rhs),rhsMax =  -7.20748653988351E+01  1.66863431308290E+00
(PID.TID 0000.0001)  ploadbar=  1.00996092883169E+05
 cg2d: Sum(rhs),rhsMax =  -7.22277252647813E+01  1.66450056052716E+00
(PID.TID 0000.0001)  ploadbar=  1.00996198299279E+05
 cg2d: Sum(rhs),rhsMax =  -7.23849930801536E+01  1.66028556923278E+00
(PID.TID 0000.0001)  ploadbar=  1.00996303715389E+05
 cg2d: Sum(rhs),rhsMax =  -7.25869720302356E+01  1.65506227604094E+00
(PID.TID 0000.0001)  ploadbar=  1.00996409131499E+05
 cg2d: Sum(rhs),rhsMax =  -7.28168014642369E+01  1.64922362062665E+00
(PID.TID 0000.0001)  ploadbar=  1.00996514547609E+05
 cg2d: Sum(rhs),rhsMax =  -7.30298528643358E+01  1.64379677882266E+00
(PID.TID 0000.0001)  ploadbar=  1.00997443992891E+05
 cg2d: Sum(rhs),rhsMax =  -7.32305428086630E+01  1.63867080710055E+00
(PID.TID 0000.0001)  ploadbar=  1.00998373438173E+05
 cg2d: Sum(rhs),rhsMax =  -7.34198800069708E+01  1.63381566540965E+00
(PID.TID 0000.0001)  ploadbar=  1.00999302883455E+05
 cg2d: Sum(rhs),rhsMax =  -7.35995489183134E+01  1.62918446818023E+00
(PID.TID 0000.0001)  ploadbar=  1.01000232328737E+05
 cg2d: Sum(rhs),rhsMax =  -7.37721931473156E+01  1.62471326034458E+00
(PID.TID 0000.0001)  ploadbar=  1.01001161774019E+05
 cg2d: Sum(rhs),rhsMax =  -7.39390455483419E+01  1.62037371164004E+00
(PID.TID 0000.0001)  ploadbar=  1.01002091219301E+05
 cg2d: Sum(rhs),rhsMax =  -7.40907959030392E+01  1.61641758888678E+00
(PID.TID 0000.0001)  ploadbar=  1.01005213665892E+05
 cg2d: Sum(rhs),rhsMax =  -7.42334965997160E+01  1.61269759559362E+00
(PID.TID 0000.0001)  ploadbar=  1.01008336112482E+05
 cg2d: Sum(rhs),rhsMax =  -7.43719514462024E+01  1.60910655608753E+00
(PID.TID 0000.0001)  ploadbar=  1.01011458559073E+05
 cg2d: Sum(rhs),rhsMax =  -7.45037221732920E+01  1.60569203132932E+00
(PID.TID 0000.0001)  ploadbar=  1.01014581005664E+05
 cg2d: Sum(rhs),rhsMax =  -7.45883912369510E+01  1.60331933107848E+00
(PID.TID 0000.0001)  ploadbar=  1.01017703452255E+05
 cg2d: Sum(rhs),rhsMax =  -7.47045411089293E+01  1.60029104959265E+00
(PID.TID 0000.0001)  ploadbar=  1.01020825898845E+05
 cg2d: Sum(rhs),rhsMax =  -7.48061475885721E+01  1.59755703550864E+00
(PID.TID 0000.0001)  ploadbar=  1.01022076509501E+05
 cg2d: Sum(rhs),rhsMax =  -7.49008832176314E+01  1.59494345226901E+00
(PID.TID 0000.0001)  ploadbar=  1.01023327120156E+05
 cg2d: Sum(rhs),rhsMax =  -7.50016993167589E+01  1.59216971108307E+00
(PID.TID 0000.0001)  ploadbar=  1.01024577730811E+05
 cg2d: Sum(rhs),rhsMax =  -7.50775672167216E+01  1.58988874958874E+00
(PID.TID 0000.0001)  ploadbar=  1.01025828341467E+05
 cg2d: Sum(rhs),rhsMax =  -7.48275349683231E+01  1.59448208470067E+00
(PID.TID 0000.0001)  ploadbar=  1.01027078952122E+05
 cg2d: Sum(rhs),rhsMax =  -7.46023369682838E+01  1.59852763281956E+00
(PID.TID 0000.0001)  ploadbar=  1.01028329562777E+05
 cg2d: Sum(rhs),rhsMax =  -7.43063734075223E+01  1.60415665237824E+00
(PID.TID 0000.0001)  ploadbar=  1.01030123630907E+05
 cg2d: Sum(rhs),rhsMax =  -7.40515848746246E+01  1.60896408756192E+00
(PID.TID 0000.0001)  ploadbar=  1.01031917699036E+05
 cg2d: Sum(rhs),rhsMax =  -7.38347986564748E+01  1.61299811498207E+00
(PID.TID 0000.0001)  ploadbar=  1.01033711767165E+05
 cg2d: Sum(rhs),rhsMax =  -7.36566832655637E+01  1.61622503577053E+00
(PID.TID 0000.0001)  ploadbar=  1.01035505835295E+05
 cg2d: Sum(rhs),rhsMax =  -7.35456235644173E+01  1.61800273398768E+00
(PID.TID 0000.0001)  ploadbar=  1.01037299903424E+05
 cg2d: Sum(rhs),rhsMax =  -7.34795610877120E+01  1.61880451171432E+00
(PID.TID 0000.0001)  ploadbar=  1.01039093971553E+05
 cg2d: Sum(rhs),rhsMax =  -7.34159371675064E+01  1.61957280393709E+00
(PID.TID 0000.0001)  ploadbar=  1.01039805291665E+05
 cg2d: Sum(rhs),rhsMax =  -7.33369118813829E+01  1.62069392287605E+00
(PID.TID 0000.0001)  ploadbar=  1.01040516611778E+05
 cg2d: Sum(rhs),rhsMax =  -7.32402197853162E+01  1.62222223628575E+00
(PID.TID 0000.0001)  ploadbar=  1.01041227931890E+05
 cg2d: Sum(rhs),rhsMax =  -7.31267564433330E+01  1.62414393923099E+00
(PID.TID 0000.0001)  ploadbar=  1.01041939252002E+05
 cg2d: Sum(rhs),rhsMax =  -7.29986146602157E+01  1.62640700556974E+00
(PID.TID 0000.0001)  ploadbar=  1.01042650572114E+05
 cg2d: Sum(rhs),rhsMax =  -7.28625265300712E+01  1.62885697982160E+00
(PID.TID 0000.0001)  ploadbar=  1.01043361892226E+05
 cg2d: Sum(rhs),rhsMax =  -7.27293141117435E+01  1.63128170628091E+00
(PID.TID 0000.0001)  ploadbar=  1.01043076522375E+05
 cg2d: Sum(rhs),rhsMax =  -7.27941199168167E+01  1.62929867163700E+00
(PID.TID 0000.0001)  ploadbar=  1.01042791152524E+05
 cg2d: Sum(rhs),rhsMax =  -7.30860965944186E+01  1.62228440786122E+00
(PID.TID 0000.0001)  ploadbar=  1.01042505782673E+05
 cg2d: Sum(rhs),rhsMax =  -7.33708509343021E+01  1.61550560958383E+00
(PID.TID 0000.0001)  ploadbar=  1.01042220412822E+05
 cg2d: Sum(rhs),rhsMax =  -7.36662027798013E+01  1.60856405637864E+00
(PID.TID 0000.0001)  ploadbar=  1.01041935042971E+05
 cg2d: Sum(rhs),rhsMax =  -7.39373506678500E+01  1.60221307618731E+00
(PID.TID 0000.0001)  ploadbar=  1.01041649673120E+05
 cg2d: Sum(rhs),rhsMax =  -7.42020874062234E+01  1.59603434307259E+00
(PID.TID 0000.0001)  ploadbar=  1.01041555708217E+05
 cg2d: Sum(rhs),rhsMax =  -7.44650773262324E+01  1.58992175531254E+00
(PID.TID 0000.0001)  ploadbar=  1.01041461743314E+05
 cg2d: Sum(rhs),rhsMax =  -7.47134053904671E+01  1.58414882959890E+00
(PID.TID 0000.0001)  ploadbar=  1.01041367778411E+05
 cg2d: Sum(rhs),rhsMax =  -7.49305566319732E+01  1.57905422870468E+00
(PID.TID 0000.0001)  ploadbar=  1.01041273813508E+05
 cg2d: Sum(rhs),rhsMax =  -7.51047667040569E+01  1.57487008275385E+00
(PID.TID 0000.0001)  ploadbar=  1.01041179848605E+05
 cg2d: Sum(rhs),rhsMax =  -7.52249939040986E+01  1.57180795427265E+00
(PID.TID 0000.0001)  ploadbar=  1.01041085883702E+05
 cg2d: Sum(rhs),rhsMax =  -7.53536654109116E+01  1.56858928937667E+00
(PID.TID 0000.0001)  ploadbar=  1.01041933638959E+05
 cg2d: Sum(rhs),rhsMax =  -7.55846431716516E+01  1.56327409623040E+00
(PID.TID 0000.0001)  ploadbar=  1.01042781394216E+05
 cg2d: Sum(rhs),rhsMax =  -7.58794424451842E+01  1.55668976097374E+00
(PID.TID 0000.0001)  ploadbar=  1.01043629149473E+05
 cg2d: Sum(rhs),rhsMax =  -7.62487789075967E+01  1.54864859129462E+00
(PID.TID 0000.0001)  ploadbar=  1.01044476904730E+05
 cg2d: Sum(rhs),rhsMax =  -7.67161736559461E+01  1.53872096313377E+00
(PID.TID 0000.0001)  ploadbar=  1.01045324659988E+05
 cg2d: Sum(rhs),rhsMax =  -7.73033525102548E+01  1.52654174567903E+00
(PID.TID 0000.0001)  ploadbar=  1.01046172415245E+05
 cg2d: Sum(rhs),rhsMax =  -7.79647160933507E+01  1.51308681816736E+00
(PID.TID 0000.0001)  ploadbar=  1.01047186479165E+05
 cg2d: Sum(rhs),rhsMax =  -7.86659726208416E+01  1.49907707005931E+00
(PID.TID 0000.0001)  ploadbar=  1.01048200543086E+05
 cg2d: Sum(rhs),rhsMax =  -7.93646446191098E+01  1.48533924461947E+00
(PID.TID 0000.0001)  ploadbar=  1.01049214607006E+05
 cg2d: Sum(rhs),rhsMax =  -8.00133203994510E+01  1.47273404204175E+00
(PID.TID 0000.0001)  ploadbar=  1.01050228670927E+05
 cg2d: Sum(rhs),rhsMax =  -8.05732639061660E+01  1.46191177238975E+00
(PID.TID 0000.0001)  ploadbar=  1.01051242734848E+05
 cg2d: Sum(rhs),rhsMax =  -8.10212926796187E+01  1.45321245784387E+00
(PID.TID 0000.0001)  ploadbar=  1.01052256798768E+05
 cg2d: Sum(rhs),rhsMax =  -8.11321822617483E+01  1.45063641963285E+00
(PID.TID 0000.0001)  ploadbar=  1.01053097242186E+05
 cg2d: Sum(rhs),rhsMax =  -8.05859526031171E+01  1.45989481148512E+00
(PID.TID 0000.0001)  ploadbar=  1.01053937685603E+05
 cg2d: Sum(rhs),rhsMax =  -8.00407606713150E+01  1.46927334273248E+00
(PID.TID 0000.0001)  ploadbar=  1.01054778129020E+05
 cg2d: Sum(rhs),rhsMax =  -7.94599976976914E+01  1.47945111506249E+00
(PID.TID 0000.0001)  ploadbar=  1.01055618572438E+05
 cg2d: Sum(rhs),rhsMax =  -7.88211656791039E+01  1.49087688442031E+00
(PID.TID 0000.0001)  ploadbar=  1.01056459015855E+05
 cg2d: Sum(rhs),rhsMax =  -7.82541914411577E+01  1.50110399997034E+00
(PID.TID 0000.0001)  ploadbar=  1.01057299459273E+05
 cg2d: Sum(rhs),rhsMax =  -7.76961463630400E+01  1.51127263500819E+00
(PID.TID 0000.0001)  ploadbar=  1.01058293878541E+05
 cg2d: Sum(rhs),rhsMax =  -7.71894903369862E+01  1.52053707866092E+00
(PID.TID 0000.0001)  ploadbar=  1.01059288297810E+05
 cg2d: Sum(rhs),rhsMax =  -7.67290394620290E+01  1.52895920085925E+00
(PID.TID 0000.0001)  ploadbar=  1.01060282717079E+05
 cg2d: Sum(rhs),rhsMax =  -7.63172875193522E+01  1.53645580529744E+00
(PID.TID 0000.0001)  ploadbar=  1.01061277136347E+05
 cg2d: Sum(rhs),rhsMax =  -7.59517073898212E+01  1.54304507890611E+00
(PID.TID 0000.0001)  ploadbar=  1.01062271555616E+05
 cg2d: Sum(rhs),rhsMax =  -7.56283734116709E+01  1.54877564483150E+00
(PID.TID 0000.0001)  ploadbar=  1.01063265974885E+05
 cg2d: Sum(rhs),rhsMax =  -7.53257141140072E+01  1.55418069093529E+00
(PID.TID 0000.0001)  ploadbar=  1.01063887630204E+05
 cg2d: Sum(rhs),rhsMax =  -7.50186649036528E+01  1.55976742049423E+00
(PID.TID 0000.0001)  ploadbar=  1.01064509285523E+05
 cg2d: Sum(rhs),rhsMax =  -7.47519084926591E+01  1.56459692889405E+00
(PID.TID 0000.0001)  ploadbar=  1.01065130940842E+05
 cg2d: Sum(rhs),rhsMax =  -7.45175935822677E+01  1.56881095355332E+00
(PID.TID 0000.0001)  ploadbar=  1.01065752596161E+05
 cg2d: Sum(rhs),rhsMax =  -7.43080654060972E+01  1.57255331300179E+00
(PID.TID 0000.0001)  ploadbar=  1.01066374251480E+05
 cg2d: Sum(rhs),rhsMax =  -7.41156959188856E+01  1.57597389350024E+00
(PID.TID 0000.0001)  ploadbar=  1.01066995906799E+05
 cg2d: Sum(rhs),rhsMax =  -7.38561232022722E+01  1.58083930113237E+00
(PID.TID 0000.0001)  ploadbar=  1.01068030985796E+05
 cg2d: Sum(rhs),rhsMax =  -7.44299553374088E+01  1.56797343734443E+00
(PID.TID 0000.0001)  ploadbar=  1.01069066064793E+05
 cg2d: Sum(rhs),rhsMax =  -7.54734322342458E+01  1.54561851477278E+00
(PID.TID 0000.0001)  ploadbar=  1.01070101143790E+05
 cg2d: Sum(rhs),rhsMax =  -7.66361533540943E+01  1.52148659747876E+00
(PID.TID 0000.0001)  ploadbar=  1.01071136222787E+05
 cg2d: Sum(rhs),rhsMax =  -7.78705652290868E+01  1.49667973734435E+00
(PID.TID 0000.0001)  ploadbar=  1.01072171301784E+05
 cg2d: Sum(rhs),rhsMax =  -7.91276910803865E+01  1.47220615240039E+00
(PID.TID 0000.0001)  ploadbar=  1.01073206380781E+05
 cg2d: Sum(rhs),rhsMax =  -8.03950352293785E+01  1.44836545478091E+00
(PID.TID 0000.0001)  ploadbar=  1.01074601373780E+05
 cg2d: Sum(rhs),rhsMax =  -8.15523708998598E+01  1.42723324605654E+00
(PID.TID 0000.0001)  ploadbar=  1.01075996366779E+05
 cg2d: Sum(rhs),rhsMax =  -8.25844533852825E+01  1.40886803332905E+00
(PID.TID 0000.0001)  ploadbar=  1.01077391359777E+05
 cg2d: Sum(rhs),rhsMax =  -8.34965838704421E+01  1.39299308378363E+00
(PID.TID 0000.0001)  ploadbar=  1.01078786352776E+05
 cg2d: Sum(rhs),rhsMax =  -8.29865874405192E+01  1.40110085583447E+00
(PID.TID 0000.0001)  ploadbar=  1.01080181345775E+05
 cg2d: Sum(rhs),rhsMax =  -8.21928557209860E+01  1.41420432335839E+00
(PID.TID 0000.0001)  ploadbar=  1.01081576338773E+05
 cg2d: Sum(rhs),rhsMax =  -8.14707515997903E+01  1.42628075113594E+00
(PID.TID 0000.0001)  ploadbar=  1.01082180847726E+05
 cg2d: Sum(rhs),rhsMax =  -8.08070887661144E+01  1.43750110932856E+00
(PID.TID 0000.0001)  ploadbar=  1.01082785356679E+05
 cg2d: Sum(rhs),rhsMax =  -8.01874960227031E+01  1.44807487730201E+00
(PID.TID 0000.0001)  ploadbar=  1.01083389865632E+05
 cg2d: Sum(rhs),rhsMax =  -7.96070973837483E+01  1.45805172438300E+00
(PID.TID 0000.0001)  ploadbar=  1.01083994374585E+05
 cg2d: Sum(rhs),rhsMax =  -7.90608848543625E+01  1.46749401080773E+00
(PID.TID 0000.0001)  ploadbar=  1.01084598883538E+05
 cg2d: Sum(rhs),rhsMax =  -7.85460866887295E+01  1.47642896140905E+00
(PID.TID 0000.0001)  ploadbar=  1.01085203392491E+05
 cg2d: Sum(rhs),rhsMax =  -7.79797134058870E+01  1.48649333706582E+00
(PID.TID 0000.0001)  ploadbar=  1.01085876466224E+05
 cg2d: Sum(rhs),rhsMax =  -7.73904168180978E+01  1.49717034853943E+00
(PID.TID 0000.0001)  ploadbar=  1.01086549539957E+05
 cg2d: Sum(rhs),rhsMax =  -7.68301147724854E+01  1.50745879657704E+00
(PID.TID 0000.0001)  ploadbar=  1.01087222613690E+05
 cg2d: Sum(rhs),rhsMax =  -7.62978652672449E+01  1.51735478872720E+00
(PID.TID 0000.0001)  ploadbar=  1.01087895687423E+05
 cg2d: Sum(rhs),rhsMax =  -7.57920175815077E+01  1.52686648727194E+00
(PID.TID 0000.0001)  ploadbar=  1.01088568761156E+05
 cg2d: Sum(rhs),rhsMax =  -7.53091357597011E+01  1.53604202420222E+00
(PID.TID 0000.0001)  ploadbar=  1.01089241834889E+05
 cg2d: Sum(rhs),rhsMax =  -7.48253677274328E+01  1.54535542817630E+00
(PID.TID 0000.0001)  ploadbar=  1.01088694311032E+05
 cg2d: Sum(rhs),rhsMax =  -7.43276188054642E+01  1.55508332823984E+00
(PID.TID 0000.0001)  ploadbar=  1.01088146787176E+05
 cg2d: Sum(rhs),rhsMax =  -7.38077517889778E+01  1.56540998554366E+00
(PID.TID 0000.0001)  ploadbar=  1.01087599263319E+05
 cg2d: Sum(rhs),rhsMax =  -7.32682169256307E+01  1.57630328199597E+00
(PID.TID 0000.0001)  ploadbar=  1.01087051739463E+05
 cg2d: Sum(rhs),rhsMax =  -7.27250671792578E+01  1.58743422417031E+00
(PID.TID 0000.0001)  ploadbar=  1.01086504215607E+05
 cg2d: Sum(rhs),rhsMax =  -7.23795079383250E+01  1.59436708875388E+00
(PID.TID 0000.0001)  ploadbar=  1.01085956691750E+05
 cg2d: Sum(rhs),rhsMax =  -7.25320502490903E+01  1.59041324771672E+00
(PID.TID 0000.0001)  ploadbar=  1.01085289453685E+05
 cg2d: Sum(rhs),rhsMax =  -7.25761866844456E+01  1.58887899332174E+00
(PID.TID 0000.0001)  ploadbar=  1.01084622215621E+05
 cg2d: Sum(rhs),rhsMax =  -7.25666623480828E+01  1.58854745790903E+00
(PID.TID 0000.0001)  ploadbar=  1.01083954977556E+05
 cg2d: Sum(rhs),rhsMax =  -7.25640688032174E+01  1.58808487733747E+00
(PID.TID 0000.0001)  ploadbar=  1.01083287739491E+05
 cg2d: Sum(rhs),rhsMax =  -7.25925576803134E+01  1.58695649271179E+00
(PID.TID 0000.0001)  ploadbar=  1.01082620501426E+05
 cg2d: Sum(rhs),rhsMax =  -7.27118902375836E+01  1.58385549933207E+00
(PID.TID 0000.0001)  ploadbar=  1.01081953263362E+05
 cg2d: Sum(rhs),rhsMax =  -7.29383908647690E+01  1.57840398352992E+00
(PID.TID 0000.0001)  ploadbar=  1.01081310934051E+05
 cg2d: Sum(rhs),rhsMax =  -7.33550444476346E+01  1.56886717281544E+00
(PID.TID 0000.0001)  ploadbar=  1.01080668604740E+05
 cg2d: Sum(rhs),rhsMax =  -7.39350971513916E+01  1.55594829498412E+00
(PID.TID 0000.0001)  ploadbar=  1.01080026275429E+05
 cg2d: Sum(rhs),rhsMax =  -7.46082212420621E+01  1.54125844314550E+00
(PID.TID 0000.0001)  ploadbar=  1.01079383946119E+05
 cg2d: Sum(rhs),rhsMax =  -7.53306484134513E+01  1.52577950603679E+00
(PID.TID 0000.0001)  ploadbar=  1.01078741616808E+05
 cg2d: Sum(rhs),rhsMax =  -7.60703559514224E+01  1.51019545853962E+00
(PID.TID 0000.0001)  ploadbar=  1.01078099287497E+05
 cg2d: Sum(rhs),rhsMax =  -7.56010243891039E+01  1.51883448750782E+00
(PID.TID 0000.0001)  ploadbar=  1.01077135315459E+05
 cg2d: Sum(rhs),rhsMax =  -7.48844482685351E+01  1.53263800516131E+00
(PID.TID 0000.0001)  ploadbar=  1.01076171343420E+05
 cg2d: Sum(rhs),rhsMax =  -7.42229917998323E+01  1.54556974140795E+00
(PID.TID 0000.0001)  ploadbar=  1.01075207371382E+05
 cg2d: Sum(rhs),rhsMax =  -7.36012505821450E+01  1.55789886750045E+00
(PID.TID 0000.0001)  ploadbar=  1.01074243399343E+05
 cg2d: Sum(rhs),rhsMax =  -7.29965811995216E+01  1.57007134087439E+00
(PID.TID 0000.0001)  ploadbar=  1.01073279427305E+05
 cg2d: Sum(rhs),rhsMax =  -7.23799961358975E+01  1.58270220320094E+00
(PID.TID 0000.0001)  ploadbar=  1.01072315455266E+05
 cg2d: Sum(rhs),rhsMax =  -7.17549627713380E+01  1.59573869275377E+00
(PID.TID 0000.0001)  ploadbar=  1.01071801707993E+05
 cg2d: Sum(rhs),rhsMax =  -7.11342715525543E+01  1.60890551668694E+00
(PID.TID 0000.0001)  ploadbar=  1.01071287960721E+05
 cg2d: Sum(rhs),rhsMax =  -7.21107132889222E+01  1.58637205965283E+00
(PID.TID 0000.0001)  ploadbar=  1.01070774213448E+05
 cg2d: Sum(rhs),rhsMax =  -7.31200035739507E+01  1.56373251007753E+00
(PID.TID 0000.0001)  ploadbar=  1.01070260466175E+05
 cg2d: Sum(rhs),rhsMax =  -7.41407520481563E+01  1.54146125830600E+00
(PID.TID 0000.0001)  ploadbar=  1.01069746718902E+05
 cg2d: Sum(rhs),rhsMax =  -7.51559997956070E+01  1.51989421651367E+00
(PID.TID 0000.0001)  ploadbar=  1.01069232971630E+05
 cg2d: Sum(rhs),rhsMax =  -7.60691266897811E+01  1.50094156776321E+00
(PID.TID 0000.0001)  ploadbar=  1.01070592397653E+05
 cg2d: Sum(rhs),rhsMax =  -7.68601538373145E+01  1.48481514528462E+00
(PID.TID 0000.0001)  ploadbar=  1.01071951823676E+05
 cg2d: Sum(rhs),rhsMax =  -7.75266202060349E+01  1.47139452188323E+00
(PID.TID 0000.0001)  ploadbar=  1.01073311249699E+05
 cg2d: Sum(rhs),rhsMax =  -7.80780400676773E+01  1.46036369764776E+00
(PID.TID 0000.0001)  ploadbar=  1.01074670675722E+05
 cg2d: Sum(rhs),rhsMax =  -7.84941203955158E+01  1.45199430146461E+00
(PID.TID 0000.0001)  ploadbar=  1.01076030101745E+05
 cg2d: Sum(rhs),rhsMax =  -7.88819752735745E+01  1.44423149419779E+00
(PID.TID 0000.0001)  ploadbar=  1.01077389527768E+05
 cg2d: Sum(rhs),rhsMax =  -7.86480891809293E+01  1.44790856486111E+00
(PID.TID 0000.0001)  ploadbar=  1.01078453210284E+05
 cg2d: Sum(rhs),rhsMax =  -7.81708513786788E+01  1.45612966974668E+00
(PID.TID 0000.0001)  ploadbar=  1.01079516892800E+05
 cg2d: Sum(rhs),rhsMax =  -7.76978600867348E+01  1.46437178143593E+00
(PID.TID 0000.0001)  ploadbar=  1.01080580575317E+05
 cg2d: Sum(rhs),rhsMax =  -7.72139535472791E+01  1.47292051707001E+00
(PID.TID 0000.0001)  ploadbar=  1.01081644257833E+05
 cg2d: Sum(rhs),rhsMax =  -7.75027843237039E+01  1.46679676443617E+00
(PID.TID 0000.0001)  ploadbar=  1.01082707940349E+05
 cg2d: Sum(rhs),rhsMax =  -7.79559932126863E+01  1.45762568364230E+00
(PID.TID 0000.0001)  ploadbar=  1.01083771622865E+05
 cg2d: Sum(rhs),rhsMax =  -7.84440674733113E+01  1.44796724702122E+00
(PID.TID 0000.0001)  ploadbar=  1.01084557799130E+05
 cg2d: Sum(rhs),rhsMax =  -7.88745484153219E+01  1.43952394911039E+00
(PID.TID 0000.0001)  ploadbar=  1.01085343975394E+05
 cg2d: Sum(rhs),rhsMax =  -7.81729072087836E+01  1.45194072055380E+00
(PID.TID 0000.0001)  ploadbar=  1.01086130151659E+05
 cg2d: Sum(rhs),rhsMax =  -7.75355138979030E+01  1.46340633724944E+00
(PID.TID 0000.0001)  ploadbar=  1.01086916327923E+05
 cg2d: Sum(rhs),rhsMax =  -7.69533554127206E+01  1.47403621878566E+00
(PID.TID 0000.0001)  ploadbar=  1.01087702504188E+05
 cg2d: Sum(rhs),rhsMax =  -7.64133144346627E+01  1.48403498678142E+00
(PID.TID 0000.0001)  ploadbar=  1.01088488680452E+05
 cg2d: Sum(rhs),rhsMax =  -7.58840541978893E+01  1.49396944375913E+00
(PID.TID 0000.0001)  ploadbar=  1.01088141120850E+05
 cg2d: Sum(rhs),rhsMax =  -7.53660522453782E+01  1.50382226647138E+00
(PID.TID 0000.0001)  ploadbar=  1.01087793561248E+05
 cg2d: Sum(rhs),rhsMax =  -7.48559588757885E+01  1.51365594125215E+00
(PID.TID 0000.0001)  ploadbar=  1.01087446001646E+05
 cg2d: Sum(rhs),rhsMax =  -7.43564172476550E+01  1.52341371631138E+00
(PID.TID 0000.0001)  ploadbar=  1.01087098442044E+05
 cg2d: Sum(rhs),rhsMax =  -7.38737164296979E+01  1.53295943311878E+00
(PID.TID 0000.0001)  ploadbar=  1.01086750882442E+05
 cg2d: Sum(rhs),rhsMax =  -7.34176340077191E+01  1.54207924885626E+00
(PID.TID 0000.0001)  ploadbar=  1.01086403322840E+05
 cg2d: Sum(rhs),rhsMax =  -7.29919332708674E+01  1.55071661521260E+00
(PID.TID 0000.0001)  ploadbar=  1.01084754634727E+05
 cg2d: Sum(rhs),rhsMax =  -7.26174142455903E+01  1.55839843105576E+00
(PID.TID 0000.0001)  ploadbar=  1.01083105946614E+05
 cg2d: Sum(rhs),rhsMax =  -7.23040817567137E+01  1.56487213128105E+00
(PID.TID 0000.0001)  ploadbar=  1.01081457258501E+05
 cg2d: Sum(rhs),rhsMax =  -7.20563600071677E+01  1.57000588139339E+00
(PID.TID 0000.0001)  ploadbar=  1.01079808570388E+05
 cg2d: Sum(rhs),rhsMax =  -7.19326428667807E+01  1.57249012433428E+00
(PID.TID 0000.0001)  ploadbar=  1.01078159882275E+05
 cg2d: Sum(rhs),rhsMax =  -7.24576871512197E+01  1.56090603928312E+00
(PID.TID 0000.0001)  ploadbar=  1.01076511194162E+05
 cg2d: Sum(rhs),rhsMax =  -7.27829195481804E+01  1.55370487453682E+00
(PID.TID 0000.0001)  ploadbar=  1.01074940063146E+05
 cg2d: Sum(rhs),rhsMax =  -7.31131418113991E+01  1.54642292938860E+00
(PID.TID 0000.0001)  ploadbar=  1.01073368932129E+05
 cg2d: Sum(rhs),rhsMax =  -7.34437917224277E+01  1.53915762001136E+00
(PID.TID 0000.0001)  ploadbar=  1.01071797801113E+05
 cg2d: Sum(rhs),rhsMax =  -7.37623436445092E+01  1.53216328196297E+00
(PID.TID 0000.0001)  ploadbar=  1.01070226670097E+05
 cg2d: Sum(rhs),rhsMax =  -7.40527820944810E+01  1.52576091008560E+00
(PID.TID 0000.0001)  ploadbar=  1.01068655539081E+05
 cg2d: Sum(rhs),rhsMax =  -7.43064363079950E+01  1.52011058481060E+00
(PID.TID 0000.0001)  ploadbar=  1.01067084408065E+05
 cg2d: Sum(rhs),rhsMax =  -7.43807274858206E+01  1.51818621611820E+00
(PID.TID 0000.0001)  ploadbar=  1.01065520475315E+05
 cg2d: Sum(rhs),rhsMax =  -7.46171742420873E+01  1.51300197607472E+00
(PID.TID 0000.0001)  ploadbar=  1.01063956542565E+05
 cg2d: Sum(rhs),rhsMax =  -7.49133411997884E+01  1.50667610354135E+00
(PID.TID 0000.0001)  ploadbar=  1.01062392609814E+05
 cg2d: Sum(rhs),rhsMax =  -7.52646364305587E+01  1.49932537071385E+00
(PID.TID 0000.0001)  ploadbar=  1.01060828677064E+05
 cg2d: Sum(rhs),rhsMax =  -7.55871441630619E+01  1.49263066099102E+00
(PID.TID 0000.0001)  ploadbar=  1.01059264744314E+05
 cg2d: Sum(rhs),rhsMax =  -7.58966501995985E+01  1.48625978632929E+00
(PID.TID 0000.0001)  ploadbar=  1.01057700811564E+05
 cg2d: Sum(rhs),rhsMax =  -7.61706585342624E+01  1.48061229745274E+00
(PID.TID 0000.0001)  ploadbar=  1.01058365519147E+05
 cg2d: Sum(rhs),rhsMax =  -7.58230195057768E+01  1.48707697991932E+00
(PID.TID 0000.0001)  ploadbar=  1.01059030226730E+05
 cg2d: Sum(rhs),rhsMax =  -7.52546239518703E+01  1.49795989092045E+00
(PID.TID 0000.0001)  ploadbar=  1.01059694934313E+05
 cg2d: Sum(rhs),rhsMax =  -7.46210851867643E+01  1.51030024206046E+00
(PID.TID 0000.0001)  ploadbar=  1.01060359641897E+05
 cg2d: Sum(rhs),rhsMax =  -7.40267601645557E+01  1.52201643042749E+00
(PID.TID 0000.0001)  ploadbar=  1.01061024349480E+05
 cg2d: Sum(rhs),rhsMax =  -7.34980940655168E+01  1.53252475860158E+00
(PID.TID 0000.0001)  ploadbar=  1.01061689057063E+05
 cg2d: Sum(rhs),rhsMax =  -7.30929370165236E+01  1.54061707314240E+00
(PID.TID 0000.0001)  ploadbar=  1.01063808913747E+05
 cg2d: Sum(rhs),rhsMax =  -7.28248925933447E+01  1.54591449096063E+00
(PID.TID 0000.0001)  ploadbar=  1.01065928770430E+05
 cg2d: Sum(rhs),rhsMax =  -7.26904766071649E+01  1.54842295570262E+00
(PID.TID 0000.0001)  ploadbar=  1.01068048627114E+05
 cg2d: Sum(rhs),rhsMax =  -7.27668242502147E+01  1.54646689563167E+00
(PID.TID 0000.0001)  ploadbar=  1.01070168483798E+05
 cg2d: Sum(rhs),rhsMax =  -7.29674752294048E+01  1.54189796225410E+00
(PID.TID 0000.0001)  ploadbar=  1.01072288340482E+05
 cg2d: Sum(rhs),rhsMax =  -7.32963807285720E+01  1.53467182617327E+00
(PID.TID 0000.0001)  ploadbar=  1.01074408197165E+05
 cg2d: Sum(rhs),rhsMax =  -7.36415006509489E+01  1.52714594711974E+00
(PID.TID 0000.0001)  ploadbar=  1.01075107250117E+05
 cg2d: Sum(rhs),rhsMax =  -7.39681185605604E+01  1.52004003285566E+00
(PID.TID 0000.0001)  ploadbar=  1.01075806303068E+05
 cg2d: Sum(rhs),rhsMax =  -7.42549340684472E+01  1.51377623298691E+00
(PID.TID 0000.0001)  ploadbar=  1.01076505356020E+05
 cg2d: Sum(rhs),rhsMax =  -7.44938464593000E+01  1.50849352322808E+00
(PID.TID 0000.0001)  ploadbar=  1.01077204408971E+05
 cg2d: Sum(rhs),rhsMax =  -7.46910810418122E+01  1.50404380333402E+00
(PID.TID 0000.0001)  ploadbar=  1.01077903461922E+05
 cg2d: Sum(rhs),rhsMax =  -7.48637129432580E+01  1.50006546081371E+00
(PID.TID 0000.0001)  ploadbar=  1.01078602514874E+05
 cg2d: Sum(rhs),rhsMax =  -7.49589239051661E+01  1.49769875364765E+00
(PID.TID 0000.0001)  ploadbar=  1.01079164083469E+05
 cg2d: Sum(rhs),rhsMax =  -7.50170390851033E+01  1.49612208195446E+00
(PID.TID 0000.0001)  ploadbar=  1.01079725652063E+05
 cg2d: Sum(rhs),rhsMax =  -7.51285951308907E+01  1.49352433203675E+00
(PID.TID 0000.0001)  ploadbar=  1.01080287220658E+05
 cg2d: Sum(rhs),rhsMax =  -7.53217950349557E+01  1.48935150244157E+00
(PID.TID 0000.0001)  ploadbar=  1.01080848789253E+05
 cg2d: Sum(rhs),rhsMax =  -7.55907712855465E+01  1.48373846110814E+00
(PID.TID 0000.0001)  ploadbar=  1.01081410357848E+05
 cg2d: Sum(rhs),rhsMax =  -7.59215349204262E+01  1.47698566368073E+00
(PID.TID 0000.0001)  ploadbar=  1.01081971926443E+05
 cg2d: Sum(rhs),rhsMax =  -7.62788616639720E+01  1.46976695619919E+00
(PID.TID 0000.0001)  ploadbar=  1.01082644169216E+05
 cg2d: Sum(rhs),rhsMax =  -7.66114990390764E+01  1.46307012621293E+00
(PID.TID 0000.0001)  ploadbar=  1.01083316411990E+05
 cg2d: Sum(rhs),rhsMax =  -7.68881934557704E+01  1.45747133954997E+00
(PID.TID 0000.0001)  ploadbar=  1.01083988654763E+05
 cg2d: Sum(rhs),rhsMax =  -7.70863075206048E+01  1.45337180454693E+00
(PID.TID 0000.0001)  ploadbar=  1.01084660897537E+05
 cg2d: Sum(rhs),rhsMax =  -7.71982504283222E+01  1.45088570069963E+00
(PID.TID 0000.0001)  ploadbar=  1.01085333140311E+05
 cg2d: Sum(rhs),rhsMax =  -7.72355772049336E+01  1.44977792055884E+00
(PID.TID 0000.0001)  ploadbar=  1.01086005383084E+05
 cg2d: Sum(rhs),rhsMax =  -7.72355676528741E+01  1.44939720154873E+00
(PID.TID 0000.0001)  ploadbar=  1.01085508674435E+05
 cg2d: Sum(rhs),rhsMax =  -7.72430640170254E+01  1.44889431334167E+00
(PID.TID 0000.0001)  ploadbar=  1.01085011965787E+05
 cg2d: Sum(rhs),rhsMax =  -7.72969288394662E+01  1.44753644403295E+00
(PID.TID 0000.0001)  ploadbar=  1.01084515257138E+05
 cg2d: Sum(rhs),rhsMax =  -7.74094720769545E+01  1.44509404830601E+00
(PID.TID 0000.0001)  ploadbar=  1.01084018548489E+05
 cg2d: Sum(rhs),rhsMax =  -7.76298859780015E+01  1.44065922680575E+00
(PID.TID 0000.0001)  ploadbar=  1.01083521839840E+05
 cg2d: Sum(rhs),rhsMax =  -7.80319873521172E+01  1.43290432594282E+00
(PID.TID 0000.0001)  ploadbar=  1.01083025131191E+05
 cg2d: Sum(rhs),rhsMax =  -7.85103304273874E+01  1.42379704044445E+00
(PID.TID 0000.0001)  ploadbar=  1.01083241680365E+05
 cg2d: Sum(rhs),rhsMax =  -7.90154791893575E+01  1.41427039530802E+00
(PID.TID 0000.0001)  ploadbar=  1.01083458229539E+05
 cg2d: Sum(rhs),rhsMax =  -7.95080808878157E+01  1.40503615526589E+00
(PID.TID 0000.0001)  ploadbar=  1.01083674778713E+05
 cg2d: Sum(rhs),rhsMax =  -7.96452497686876E+01  1.40209489378586E+00
(PID.TID 0000.0001)  ploadbar=  1.01083891327887E+05
 cg2d: Sum(rhs),rhsMax =  -7.94732789186921E+01  1.40455213586407E+00
(PID.TID 0000.0001)  ploadbar=  1.01084107877061E+05
 cg2d: Sum(rhs),rhsMax =  -7.94087964045726E+01  1.40505620448959E+00
(PID.TID 0000.0001)  ploadbar=  1.01084324426235E+05
 cg2d: Sum(rhs),rhsMax =  -7.94581599010767E+01  1.40357264779728E+00
(PID.TID 0000.0001)  ploadbar=  1.01084214018831E+05
 cg2d: Sum(rhs),rhsMax =  -7.95379742492756E+01  1.40157584177373E+00
(PID.TID 0000.0001)  ploadbar=  1.01084103611428E+05
 cg2d: Sum(rhs),rhsMax =  -7.94715813772799E+01  1.40217441079380E+00
(PID.TID 0000.0001)  ploadbar=  1.01083993204025E+05
 cg2d: Sum(rhs),rhsMax =  -7.93763781128816E+01  1.40329259505170E+00
(PID.TID 0000.0001)  ploadbar=  1.01083882796622E+05
 cg2d: Sum(rhs),rhsMax =  -7.92540270505536E+01  1.40490019401503E+00
(PID.TID 0000.0001)  ploadbar=  1.01083772389218E+05
 cg2d: Sum(rhs),rhsMax =  -7.91361028593780E+01  1.40643727581655E+00
(PID.TID 0000.0001)  ploadbar=  1.01083661981815E+05
 cg2d: Sum(rhs),rhsMax =  -7.90326815719038E+01  1.40773159089806E+00
(PID.TID 0000.0001)  ploadbar=  1.01083797359953E+05
 cg2d: Sum(rhs),rhsMax =  -7.89362172334182E+01  1.40891169863149E+00
(PID.TID 0000.0001)  ploadbar=  1.01083932738092E+05
 cg2d: Sum(rhs),rhsMax =  -7.88497135506376E+01  1.40992040080347E+00
(PID.TID 0000.0001)  ploadbar=  1.01084068116230E+05
 cg2d: Sum(rhs),rhsMax =  -7.87729394223953E+01  1.41075960134641E+00
(PID.TID 0000.0001)  ploadbar=  1.01084203494369E+05
 cg2d: Sum(rhs),rhsMax =  -7.87040659982482E+01  1.41145687334453E+00
(PID.TID 0000.0001)  ploadbar=  1.01084338872507E+05
 cg2d: Sum(rhs),rhsMax =  -7.86396579103574E+01  1.41207012516103E+00
(PID.TID 0000.0001)  ploadbar=  1.01084474250646E+05
 cg2d: Sum(rhs),rhsMax =  -7.85815305089069E+01  1.41259986632153E+00
(PID.TID 0000.0001)  ploadbar=  1.01083923930261E+05
 cg2d: Sum(rhs),rhsMax =  -7.85276405148764E+01  1.41307965580303E+00
(PID.TID 0000.0001)  ploadbar=  1.01083373609875E+05
 cg2d: Sum(rhs),rhsMax =  -7.84641527071387E+01  1.41375552383360E+00
(PID.TID 0000.0001)  ploadbar=  1.01082823289490E+05
 cg2d: Sum(rhs),rhsMax =  -7.83944996475921E+01  1.41456042464865E+00
(PID.TID 0000.0001)  ploadbar=  1.01082272969105E+05
 cg2d: Sum(rhs),rhsMax =  -7.83111811918131E+01  1.41562494460151E+00
(PID.TID 0000.0001)  ploadbar=  1.01081722648720E+05
 cg2d: Sum(rhs),rhsMax =  -7.83728610087541E+01  1.41407818224242E+00
(PID.TID 0000.0001)  ploadbar=  1.01081172328334E+05
 cg2d: Sum(rhs),rhsMax =  -7.85030898592932E+01  1.41128521151359E+00
(PID.TID 0000.0001)  ploadbar=  1.01080458736695E+05
 cg2d: Sum(rhs),rhsMax =  -7.86819227158677E+01  1.40761347477235E+00
(PID.TID 0000.0001)  ploadbar=  1.01079745145055E+05
 cg2d: Sum(rhs),rhsMax =  -7.88920932623539E+01  1.40338153424555E+00
(PID.TID 0000.0001)  ploadbar=  1.01079031553415E+05
 cg2d: Sum(rhs),rhsMax =  -7.91137289094297E+01  1.39894858763396E+00
(PID.TID 0000.0001)  ploadbar=  1.01078317961775E+05
 cg2d: Sum(rhs),rhsMax =  -7.93283319724091E+01  1.39464017567072E+00
(PID.TID 0000.0001)  ploadbar=  1.01077604370135E+05
 cg2d: Sum(rhs),rhsMax =  -7.95244862547335E+01  1.39064752919068E+00
(PID.TID 0000.0001)  ploadbar=  1.01076890778496E+05
 cg2d: Sum(rhs),rhsMax =  -7.95555105878350E+01  1.38957980182252E+00
(PID.TID 0000.0001)  ploadbar=  1.01075661769660E+05
 cg2d: Sum(rhs),rhsMax =  -7.94883329858485E+01  1.39024894380008E+00
(PID.TID 0000.0001)  ploadbar=  1.01074432760825E+05
 cg2d: Sum(rhs),rhsMax =  -7.94060092562594E+01  1.39120142919318E+00
(PID.TID 0000.0001)  ploadbar=  1.01073203751990E+05
 cg2d: Sum(rhs),rhsMax =  -7.93241095320437E+01  1.39216026343232E+00
(PID.TID 0000.0001)  ploadbar=  1.01071974743155E+05
 cg2d: Sum(rhs),rhsMax =  -7.92535267222933E+01  1.39292979062597E+00
(PID.TID 0000.0001)  ploadbar=  1.01070745734320E+05
 cg2d: Sum(rhs),rhsMax =  -7.92034144126309E+01  1.39334457698603E+00
(PID.TID 0000.0001)  ploadbar=  1.01069516725484E+05
 cg2d: Sum(rhs),rhsMax =  -7.91492400918736E+01  1.39383401696252E+00
(PID.TID 0000.0001)  ploadbar=  1.01068671553139E+05
 cg2d: Sum(rhs),rhsMax =  -7.90939522341197E+01  1.39434251106799E+00
(PID.TID 0000.0001)  ploadbar=  1.01067826380793E+05
 cg2d: Sum(rhs),rhsMax =  -7.90248479985210E+01  1.39508979582937E+00
(PID.TID 0000.0001)  ploadbar=  1.01066981208447E+05
 cg2d: Sum(rhs),rhsMax =  -7.89266284719434E+01  1.39634358180142E+00
(PID.TID 0000.0001)  ploadbar=  1.01066136036101E+05
 cg2d: Sum(rhs),rhsMax =  -7.87806334652049E+01  1.39843588787907E+00
(PID.TID 0000.0001)  ploadbar=  1.01065290863755E+05
 cg2d: Sum(rhs),rhsMax =  -7.85678683382309E+01  1.40171271869202E+00
(PID.TID 0000.0001)  ploadbar=  1.01064445691409E+05
 cg2d: Sum(rhs),rhsMax =  -7.83139360488812E+01  1.40577343880582E+00
(PID.TID 0000.0001)  ploadbar=  1.01063985439184E+05
 cg2d: Sum(rhs),rhsMax =  -7.79825587055719E+01  1.41128515161995E+00
(PID.TID 0000.0001)  ploadbar=  1.01063525186959E+05
 cg2d: Sum(rhs),rhsMax =  -7.75643761221784E+01  1.41845091364772E+00
(PID.TID 0000.0001)  ploadbar=  1.01063064934733E+05
 cg2d: Sum(rhs),rhsMax =  -7.71577207411366E+01  1.42549881058161E+00
(PID.TID 0000.0001)  ploadbar=  1.01062604682508E+05
 cg2d: Sum(rhs),rhsMax =  -7.69403545868700E+01  1.42911073393010E+00
(PID.TID 0000.0001)  ploadbar=  1.01062144430282E+05
 cg2d: Sum(rhs),rhsMax =  -7.68788080884238E+01  1.42984689334894E+00
(PID.TID 0000.0001)  ploadbar=  1.01061684178057E+05
 cg2d: Sum(rhs),rhsMax =  -7.68886090092701E+01  1.42923197360211E+00
(PID.TID 0000.0001)  ploadbar=  1.01061323178530E+05
 cg2d: Sum(rhs),rhsMax =  -7.69016620833356E+01  1.42852932688689E+00
(PID.TID 0000.0001)  ploadbar=  1.01060962179003E+05
 cg2d: Sum(rhs),rhsMax =  -7.69192244530167E+01  1.42771336829137E+00
(PID.TID 0000.0001)  ploadbar=  1.01060601179476E+05
 cg2d: Sum(rhs),rhsMax =  -7.69433771768720E+01  1.42674330003582E+00
(PID.TID 0000.0001)  ploadbar=  1.01060240179949E+05
 cg2d: Sum(rhs),rhsMax =  -7.69729937708235E+01  1.42563621969065E+00
(PID.TID 0000.0001)  ploadbar=  1.01059879180422E+05
 cg2d: Sum(rhs),rhsMax =  -7.69989364197705E+01  1.42455829751400E+00
(PID.TID 0000.0001)  ploadbar=  1.01059518180895E+05
 cg2d: Sum(rhs),rhsMax =  -7.68894661549797E+01  1.42600435465533E+00
(PID.TID 0000.0001)  ploadbar=  1.01059196101286E+05
 cg2d: Sum(rhs),rhsMax =  -7.66675075905566E+01  1.42955968688389E+00
(PID.TID 0000.0001)  ploadbar=  1.01058874021676E+05
 cg2d: Sum(rhs),rhsMax =  -7.63846898745855E+01  1.43428472493258E+00
(PID.TID 0000.0001)  ploadbar=  1.01058551942067E+05
 cg2d: Sum(rhs),rhsMax =  -7.60427719741043E+01  1.44016572488125E+00
(PID.TID 0000.0001)  ploadbar=  1.01058229862457E+05
 cg2d: Sum(rhs),rhsMax =  -7.59488197304398E+01  1.44137716178716E+00
(PID.TID 0000.0001)  ploadbar=  1.01057907782848E+05
 cg2d: Sum(rhs),rhsMax =  -7.59968762286124E+01  1.43989363562836E+00
(PID.TID 0000.0001)  ploadbar=  1.01057585703238E+05
 cg2d: Sum(rhs),rhsMax =  -7.60334523115315E+01  1.43862490677560E+00
(PID.TID 0000.0001)  ploadbar=  1.01057533362643E+05
 cg2d: Sum(rhs),rhsMax =  -7.60590565754133E+01  1.43755657838148E+00
(PID.TID 0000.0001)  ploadbar=  1.01057481022049E+05
 cg2d: Sum(rhs),rhsMax =  -7.60864131867646E+01  1.43644234025808E+00
(PID.TID 0000.0001)  ploadbar=  1.01057428681454E+05
 cg2d: Sum(rhs),rhsMax =  -7.61321182110490E+01  1.43496591953171E+00
(PID.TID 0000.0001)  ploadbar=  1.01057376340859E+05
 cg2d: Sum(rhs),rhsMax =  -7.62032722081937E+01  1.43299309704840E+00
(PID.TID 0000.0001)  ploadbar=  1.01057324000264E+05
 cg2d: Sum(rhs),rhsMax =  -7.63076442261640E+01  1.43038041493477E+00
(PID.TID 0000.0001)  ploadbar=  1.01057271659669E+05
 cg2d: Sum(rhs),rhsMax =  -7.63786677791119E+01  1.42841045089454E+00
(PID.TID 0000.0001)  ploadbar=  1.01057496868366E+05
 cg2d: Sum(rhs),rhsMax =  -7.60817032054817E+01  1.43335250373128E+00
(PID.TID 0000.0001)  ploadbar=  1.01057722077062E+05
 cg2d: Sum(rhs),rhsMax =  -7.58701751582747E+01  1.43671986304249E+00
(PID.TID 0000.0001)  ploadbar=  1.01057947285758E+05
 cg2d: Sum(rhs),rhsMax =  -7.58399540792087E+01  1.43666479128751E+00
(PID.TID 0000.0001)  ploadbar=  1.01058172494454E+05
 cg2d: Sum(rhs),rhsMax =  -7.57743877062859E+01  1.43727517334256E+00
(PID.TID 0000.0001)  ploadbar=  1.01058397703150E+05
 cg2d: Sum(rhs),rhsMax =  -7.58969688647597E+01  1.43431180710079E+00
(PID.TID 0000.0001)  ploadbar=  1.01058622911846E+05
 cg2d: Sum(rhs),rhsMax =  -7.60350736774973E+01  1.43103087872250E+00
(PID.TID 0000.0001)  ploadbar=  1.01058934046051E+05
 cg2d: Sum(rhs),rhsMax =  -7.61195555325764E+01  1.42873040218574E+00
(PID.TID 0000.0001)  ploadbar=  1.01059245180256E+05
 cg2d: Sum(rhs),rhsMax =  -7.61888770766551E+01  1.42667907476631E+00
(PID.TID 0000.0001)  ploadbar=  1.01059556314461E+05
 cg2d: Sum(rhs),rhsMax =  -7.62431439483415E+01  1.42486745530570E+00
(PID.TID 0000.0001)  ploadbar=  1.01059867448665E+05
 cg2d: Sum(rhs),rhsMax =  -7.61558569213300E+01  1.42565035708642E+00
(PID.TID 0000.0001)  ploadbar=  1.01060178582870E+05
 cg2d: Sum(rhs),rhsMax =  -7.61753611249841E+01  1.42437687271213E+00
(PID.TID 0000.0001)  ploadbar=  1.01060489717075E+05
 cg2d: Sum(rhs),rhsMax =  -7.59040501197645E+01  1.42857306955179E+00
(PID.TID 0000.0001)  ploadbar=  1.01061365889884E+05
 cg2d: Sum(rhs),rhsMax =  -7.58095548027341E+01  1.42946947129469E+00
(PID.TID 0000.0001)  ploadbar=  1.01062242062693E+05
 cg2d: Sum(rhs),rhsMax =  -7.61174533022532E+01  1.42281540834647E+00
(PID.TID 0000.0001)  ploadbar=  1.01063118235502E+05
 cg2d: Sum(rhs),rhsMax =  -7.64200153872347E+01  1.41631849193903E+00
(PID.TID 0000.0001)  ploadbar=  1.01063994408311E+05
 cg2d: Sum(rhs),rhsMax =  -7.67199384351651E+01  1.40992231813533E+00
(PID.TID 0000.0001)  ploadbar=  1.01064870581120E+05
 cg2d: Sum(rhs),rhsMax =  -7.70269945100447E+01  1.40344446056106E+00
(PID.TID 0000.0001)  ploadbar=  1.01065746753929E+05
 cg2d: Sum(rhs),rhsMax =  -7.74133265780303E+01  1.39559992300577E+00
(PID.TID 0000.0001)  ploadbar=  1.01066322470980E+05
 cg2d: Sum(rhs),rhsMax =  -7.78158943714461E+01  1.38755263647187E+00
(PID.TID 0000.0001)  ploadbar=  1.01066898188031E+05
 cg2d: Sum(rhs),rhsMax =  -7.82331547245309E+01  1.37933598876212E+00
(PID.TID 0000.0001)  ploadbar=  1.01067473905082E+05
 cg2d: Sum(rhs),rhsMax =  -7.86656269253266E+01  1.37094743302865E+00
(PID.TID 0000.0001)  ploadbar=  1.01068049622134E+05
 cg2d: Sum(rhs),rhsMax =  -7.89839035060326E+01  1.36462675736114E+00
(PID.TID 0000.0001)  ploadbar=  1.01068625339185E+05
 cg2d: Sum(rhs),rhsMax =  -7.92363684265488E+01  1.35949006481904E+00
(PID.TID 0000.0001)  ploadbar=  1.01069201056236E+05
 cg2d: Sum(rhs),rhsMax =  -7.94487952846735E+01  1.35512622278775E+00
(PID.TID 0000.0001)  ploadbar=  1.01068503020724E+05
 cg2d: Sum(rhs),rhsMax =  -7.96258159213971E+01  1.35144044224524E+00
(PID.TID 0000.0001)  ploadbar=  1.01067804985212E+05
 cg2d: Sum(rhs),rhsMax =  -7.97860619462915E+01  1.34810316668906E+00
(PID.TID 0000.0001)  ploadbar=  1.01067106949701E+05
 cg2d: Sum(rhs),rhsMax =  -7.99418146329524E+01  1.34489891423836E+00
(PID.TID 0000.0001)  ploadbar=  1.01066408914189E+05
 cg2d: Sum(rhs),rhsMax =  -8.00896601189111E+01  1.34187850167309E+00
(PID.TID 0000.0001)  ploadbar=  1.01065710878677E+05
 cg2d: Sum(rhs),rhsMax =  -8.02797075687534E+01  1.33820052649806E+00
(PID.TID 0000.0001)  ploadbar=  1.01065012843166E+05
 cg2d: Sum(rhs),rhsMax =  -8.03966554266666E+01  1.33571224432153E+00
(PID.TID 0000.0001)  ploadbar=  1.01065579141623E+05
 cg2d: Sum(rhs),rhsMax =  -8.05321520537048E+01  1.33288088330444E+00
(PID.TID 0000.0001)  ploadbar=  1.01066145440080E+05
 cg2d: Sum(rhs),rhsMax =  -8.06854993001413E+01  1.32971683217162E+00
(PID.TID 0000.0001)  ploadbar=  1.01066711738537E+05
 cg2d: Sum(rhs),rhsMax =  -8.08537380638668E+01  1.32626578328915E+00
(PID.TID 0000.0001)  ploadbar=  1.01067278036994E+05
 cg2d: Sum(rhs),rhsMax =  -8.10320330001653E+01  1.32260281769356E+00
(PID.TID 0000.0001)  ploadbar=  1.01067844335451E+05
 cg2d: Sum(rhs),rhsMax =  -8.12135088900354E+01  1.31883652328508E+00
(PID.TID 0000.0001)  ploadbar=  1.01068410633908E+05
 cg2d: Sum(rhs),rhsMax =  -8.13225289883662E+01  1.31631035143988E+00
(PID.TID 0000.0001)  ploadbar=  1.01069754451575E+05
 cg2d: Sum(rhs),rhsMax =  -8.15369115052091E+01  1.31214046427180E+00
(PID.TID 0000.0001)  ploadbar=  1.01071098269242E+05
 cg2d: Sum(rhs),rhsMax =  -8.17287137498344E+01  1.30839682403183E+00
(PID.TID 0000.0001)  ploadbar=  1.01072442086909E+05
 cg2d: Sum(rhs),rhsMax =  -8.19000757876020E+01  1.30503678490519E+00
(PID.TID 0000.0001)  ploadbar=  1.01073785904577E+05
 cg2d: Sum(rhs),rhsMax =  -8.20589946195612E+01  1.30192305819986E+00
(PID.TID 0000.0001)  ploadbar=  1.01075129722244E+05
 cg2d: Sum(rhs),rhsMax =  -8.22101029935981E+01  1.29897257000523E+00
(PID.TID 0000.0001)  ploadbar=  1.01076473539911E+05
 cg2d: Sum(rhs),rhsMax =  -8.23519013236504E+01  1.29621488568446E+00
(PID.TID 0000.0001)  ploadbar=  1.01076271380659E+05
 cg2d: Sum(rhs),rhsMax =  -8.24831826178527E+01  1.29366495986060E+00
(PID.TID 0000.0001)  ploadbar=  1.01076069221407E+05
 cg2d: Sum(rhs),rhsMax =  -8.26043103038562E+01  1.29131380379669E+00
(PID.TID 0000.0001)  ploadbar=  1.01075867062156E+05
 cg2d: Sum(rhs),rhsMax =  -8.27122930048463E+01  1.28920399134603E+00
(PID.TID 0000.0001)  ploadbar=  1.01075664902904E+05
 cg2d: Sum(rhs),rhsMax =  -8.28033192010873E+01  1.28739004559209E+00
(PID.TID 0000.0001)  ploadbar=  1.01075462743652E+05
 cg2d: Sum(rhs),rhsMax =  -8.28730753786829E+01  1.28593564525770E+00
(PID.TID 0000.0001)  ploadbar=  1.01075260584401E+05
 cg2d: Sum(rhs),rhsMax =  -8.28964901576398E+01  1.28522876871528E+00
(PID.TID 0000.0001)  ploadbar=  1.01074254091532E+05
 cg2d: Sum(rhs),rhsMax =  -8.28932237212273E+01  1.28495960918666E+00
(PID.TID 0000.0001)  ploadbar=  1.01073247598663E+05
 cg2d: Sum(rhs),rhsMax =  -8.28679214653585E+01  1.28505377563497E+00
(PID.TID 0000.0001)  ploadbar=  1.01072241105795E+05
 cg2d: Sum(rhs),rhsMax =  -8.28200053021212E+01  1.28551786733976E+00
(PID.TID 0000.0001)  ploadbar=  1.01071234612926E+05
 cg2d: Sum(rhs),rhsMax =  -8.27497019387463E+01  1.28634445461264E+00
(PID.TID 0000.0001)  ploadbar=  1.01070228120057E+05
 cg2d: Sum(rhs),rhsMax =  -8.26382808563287E+01  1.28782452739335E+00
(PID.TID 0000.0001)  ploadbar=  1.01069221627189E+05
 cg2d: Sum(rhs),rhsMax =  -8.25274935459808E+01  1.28929401039628E+00
(PID.TID 0000.0001)  ploadbar=  1.01068798223003E+05
 cg2d: Sum(rhs),rhsMax =  -8.24228480044353E+01  1.29066540561404E+00
(PID.TID 0000.0001)  ploadbar=  1.01068374818817E+05
 cg2d: Sum(rhs),rhsMax =  -8.23020518974240E+01  1.29228571257634E+00
(PID.TID 0000.0001)  ploadbar=  1.01067951414631E+05
 cg2d: Sum(rhs),rhsMax =  -8.21636491988767E+01  1.29417492224121E+00
(PID.TID 0000.0001)  ploadbar=  1.01067528010444E+05
 cg2d: Sum(rhs),rhsMax =  -8.20018152526826E+01  1.29642115849682E+00
(PID.TID 0000.0001)  ploadbar=  1.01067104606258E+05
 cg2d: Sum(rhs),rhsMax =  -8.18088298019258E+01  1.29914601863393E+00
(PID.TID 0000.0001)  ploadbar=  1.01066681202072E+05
 cg2d: Sum(rhs),rhsMax =  -8.15829185225135E+01  1.30243424325277E+00
(PID.TID 0000.0001)  ploadbar=  1.01065163704410E+05
 cg2d: Sum(rhs),rhsMax =  -8.15127435278811E+01  1.30326490681801E+00
(PID.TID 0000.0001)  ploadbar=  1.01063646206747E+05
 cg2d: Sum(rhs),rhsMax =  -8.14139839372513E+01  1.30457196279256E+00
(PID.TID 0000.0001)  ploadbar=  1.01062128709085E+05
 cg2d: Sum(rhs),rhsMax =  -8.13060405100013E+01  1.30604337146794E+00
(PID.TID 0000.0001)  ploadbar=  1.01060611211422E+05
 cg2d: Sum(rhs),rhsMax =  -8.11949934132356E+01  1.30757815718730E+00
(PID.TID 0000.0001)  ploadbar=  1.01059093713760E+05
 cg2d: Sum(rhs),rhsMax =  -8.10860213391736E+01  1.30908835697415E+00
(PID.TID 0000.0001)  ploadbar=  1.01057576216098E+05
 cg2d: Sum(rhs),rhsMax =  -8.10019370834343E+01  1.31020061072945E+00
(PID.TID 0000.0001)  ploadbar=  1.01057825060987E+05
 cg2d: Sum(rhs),rhsMax =  -8.09369374083062E+01  1.31100172859934E+00
(PID.TID 0000.0001)  ploadbar=  1.01058073905877E+05
 cg2d: Sum(rhs),rhsMax =  -8.08858354240278E+01  1.31157191300505E+00
(PID.TID 0000.0001)  ploadbar=  1.01058322750767E+05
 cg2d: Sum(rhs),rhsMax =  -8.08412347719828E+01  1.31202757236409E+00
(PID.TID 0000.0001)  ploadbar=  1.01058571595656E+05
 cg2d: Sum(rhs),rhsMax =  -8.07946545579606E+01  1.31250317738815E+00
(PID.TID 0000.0001)  ploadbar=  1.01058820440546E+05
 cg2d: Sum(rhs),rhsMax =  -8.07373215738355E+01  1.31314248937039E+00
(PID.TID 0000.0001)  ploadbar=  1.01059069285436E+05
 cg2d: Sum(rhs),rhsMax =  -8.06676543026019E+01  1.31399348259185E+00
(PID.TID 0000.0001)  ploadbar=  1.01059468948495E+05
 cg2d: Sum(rhs),rhsMax =  -8.05991975366159E+01  1.31483341269272E+00
(PID.TID 0000.0001)  ploadbar=  1.01059868611554E+05
 cg2d: Sum(rhs),rhsMax =  -8.05413960040239E+01  1.31550447218351E+00
(PID.TID 0000.0001)  ploadbar=  1.01060268274613E+05
 cg2d: Sum(rhs),rhsMax =  -8.05128345161906E+01  1.31569830522990E+00
(PID.TID 0000.0001)  ploadbar=  1.01060667937673E+05
 cg2d: Sum(rhs),rhsMax =  -8.04843157360476E+01  1.31588468881822E+00
(PID.TID 0000.0001)  ploadbar=  1.01061067600732E+05
 cg2d: Sum(rhs),rhsMax =  -8.05258164558723E+01  1.31491488972727E+00
(PID.TID 0000.0001)  ploadbar=  1.01061467263791E+05
 cg2d: Sum(rhs),rhsMax =  -8.05563683695221E+01  1.31409591534282E+00
(PID.TID 0000.0001)  ploadbar=  1.01060064957541E+05
 cg2d: Sum(rhs),rhsMax =  -8.05852904420450E+01  1.31327222274319E+00
(PID.TID 0000.0001)  ploadbar=  1.01058662651292E+05
 cg2d: Sum(rhs),rhsMax =  -8.05986645861454E+01  1.31266828152636E+00
(PID.TID 0000.0001)  ploadbar=  1.01057260345042E+05
 cg2d: Sum(rhs),rhsMax =  -8.07178202164135E+01  1.31030461056774E+00
(PID.TID 0000.0001)  ploadbar=  1.01055858038793E+05
 cg2d: Sum(rhs),rhsMax =  -8.08154597555977E+01  1.30824674958756E+00
(PID.TID 0000.0001)  ploadbar=  1.01054455732543E+05
 cg2d: Sum(rhs),rhsMax =  -8.08426082898115E+01  1.30727915626290E+00
(PID.TID 0000.0001)  ploadbar=  1.01053053426293E+05
 cg2d: Sum(rhs),rhsMax =  -8.08287308411002E+01  1.30702328967243E+00
(PID.TID 0000.0001)  ploadbar=  1.01051635466751E+05
 cg2d: Sum(rhs),rhsMax =  -8.08033686156722E+01  1.30699659985232E+00
(PID.TID 0000.0001)  ploadbar=  1.01050217507208E+05
 cg2d: Sum(rhs),rhsMax =  -8.07656978676699E+01  1.30721082804926E+00
(PID.TID 0000.0001)  ploadbar=  1.01048799547666E+05
 cg2d: Sum(rhs),rhsMax =  -8.07211074330989E+01  1.30757676053194E+00
(PID.TID 0000.0001)  ploadbar=  1.01047381588123E+05
 cg2d: Sum(rhs),rhsMax =  -8.07535351198359E+01  1.30672906950352E+00
(PID.TID 0000.0001)  ploadbar=  1.01045963628580E+05
 cg2d: Sum(rhs),rhsMax =  -8.08310426950107E+01  1.30518642480266E+00
(PID.TID 0000.0001)  ploadbar=  1.01044545669038E+05
 cg2d: Sum(rhs),rhsMax =  -8.09009131490540E+01  1.30377912472140E+00
(PID.TID 0000.0001)  ploadbar=  1.01044066425975E+05
 cg2d: Sum(rhs),rhsMax =  -8.09150107255992E+01  1.30327735305594E+00
(PID.TID 0000.0001)  ploadbar=  1.01043587182913E+05
 cg2d: Sum(rhs),rhsMax =  -8.08287578935680E+01  1.30439478588550E+00
(PID.TID 0000.0001)  ploadbar=  1.01043107939850E+05
 cg2d: Sum(rhs),rhsMax =  -8.06714076297364E+01  1.30666330086965E+00
(PID.TID 0000.0001)  ploadbar=  1.01042628696787E+05
 cg2d: Sum(rhs),rhsMax =  -8.04834316615654E+01  1.30943600240770E+00
(PID.TID 0000.0001)  ploadbar=  1.01042149453725E+05
 cg2d: Sum(rhs),rhsMax =  -8.03942962707370E+01  1.31060112285657E+00
(PID.TID 0000.0001)  ploadbar=  1.01041670210662E+05
 cg2d: Sum(rhs),rhsMax =  -8.02633185075378E+01  1.31247798768246E+00
(PID.TID 0000.0001)  ploadbar=  1.01041686990095E+05
 cg2d: Sum(rhs),rhsMax =  -8.01010323583715E+01  1.31489645648872E+00
(PID.TID 0000.0001)  ploadbar=  1.01041703769527E+05
 cg2d: Sum(rhs),rhsMax =  -7.99638698983882E+01  1.31693059725780E+00
(PID.TID 0000.0001)  ploadbar=  1.01041720548960E+05
 cg2d: Sum(rhs),rhsMax =  -7.98815175303095E+01  1.31808076189559E+00
(PID.TID 0000.0001)  ploadbar=  1.01041737328392E+05
 cg2d: Sum(rhs),rhsMax =  -7.98751410934232E+01  1.31798525544188E+00
(PID.TID 0000.0001)  ploadbar=  1.01041754107825E+05
 cg2d: Sum(rhs),rhsMax =  -8.00243936609961E+01  1.31532555611628E+00
(PID.TID 0000.0001)  ploadbar=  1.01041770887257E+05
 cg2d: Sum(rhs),rhsMax =  -8.02708189821096E+01  1.31104898375253E+00
(PID.TID 0000.0001)  ploadbar=  1.01042964656445E+05
 cg2d: Sum(rhs),rhsMax =  -8.05503376058238E+01  1.30621961208707E+00
(PID.TID 0000.0001)  ploadbar=  1.01044158425632E+05
 cg2d: Sum(rhs),rhsMax =  -8.08555941834597E+01  1.30096330258533E+00
(PID.TID 0000.0001)  ploadbar=  1.01045352194819E+05
 cg2d: Sum(rhs),rhsMax =  -8.11791473000291E+01  1.29540513454726E+00
(PID.TID 0000.0001)  ploadbar=  1.01046545964006E+05
 cg2d: Sum(rhs),rhsMax =  -8.15275022486243E+01  1.28944491812562E+00
(PID.TID 0000.0001)  ploadbar=  1.01047739733194E+05
 cg2d: Sum(rhs),rhsMax =  -8.19045600826067E+01  1.28302771305850E+00
(PID.TID 0000.0001)  ploadbar=  1.01048933502381E+05
 cg2d: Sum(rhs),rhsMax =  -8.20484909612402E+01  1.28033611135907E+00
(PID.TID 0000.0001)  ploadbar=  1.01050796568339E+05
 cg2d: Sum(rhs),rhsMax =  -8.20978155863381E+01  1.27916323300894E+00
(PID.TID 0000.0001)  ploadbar=  1.01052659634297E+05
 cg2d: Sum(rhs),rhsMax =  -8.21313873660144E+01  1.27827113352089E+00
(PID.TID 0000.0001)  ploadbar=  1.01054522700256E+05
 cg2d: Sum(rhs),rhsMax =  -8.21636410587403E+01  1.27743128257684E+00
(PID.TID 0000.0001)  ploadbar=  1.01056385766214E+05
 cg2d: Sum(rhs),rhsMax =  -8.22072897282489E+01  1.27643961828876E+00
(PID.TID 0000.0001)  ploadbar=  1.01058248832172E+05
 cg2d: Sum(rhs),rhsMax =  -8.22719271742823E+01  1.27514210037009E+00
(PID.TID 0000.0001)  ploadbar=  1.01060111898130E+05
 cg2d: Sum(rhs),rhsMax =  -8.24258372760302E+01  1.27248451872612E+00
(PID.TID 0000.0001)  ploadbar=  1.01061742330815E+05
 cg2d: Sum(rhs),rhsMax =  -8.23603614926628E+01  1.27323174325991E+00
(PID.TID 0000.0001)  ploadbar=  1.01063372763500E+05
 cg2d: Sum(rhs),rhsMax =  -8.20629114425167E+01  1.27759104762030E+00
(PID.TID 0000.0001)  ploadbar=  1.01065003196185E+05
 cg2d: Sum(rhs),rhsMax =  -8.17937974777154E+01  1.28154378437898E+00
(PID.TID 0000.0001)  ploadbar=  1.01066633628870E+05
 cg2d: Sum(rhs),rhsMax =  -8.15481054133664E+01  1.28515479848656E+00
(PID.TID 0000.0001)  ploadbar=  1.01068264061555E+05
 cg2d: Sum(rhs),rhsMax =  -8.13235968071064E+01  1.28845001717257E+00
(PID.TID 0000.0001)  ploadbar=  1.01069894494239E+05
 cg2d: Sum(rhs),rhsMax =  -8.11454621693476E+01  1.29104832457098E+00
(PID.TID 0000.0001)  ploadbar=  1.01070321501862E+05
 cg2d: Sum(rhs),rhsMax =  -8.09859533579207E+01  1.29337929201306E+00
(PID.TID 0000.0001)  ploadbar=  1.01070748509484E+05
 cg2d: Sum(rhs),rhsMax =  -8.08373227321667E+01  1.29556107405734E+00
(PID.TID 0000.0001)  ploadbar=  1.01071175517106E+05
 cg2d: Sum(rhs),rhsMax =  -8.06839745460498E+01  1.29783449868310E+00
(PID.TID 0000.0001)  ploadbar=  1.01071602524728E+05
 cg2d: Sum(rhs),rhsMax =  -8.05132932153563E+01  1.30039580855269E+00
(PID.TID 0000.0001)  ploadbar=  1.01072029532350E+05
 cg2d: Sum(rhs),rhsMax =  -8.03192189854270E+01  1.30334401021810E+00
(PID.TID 0000.0001)  ploadbar=  1.01072456539972E+05
 cg2d: Sum(rhs),rhsMax =  -8.00385797821156E+01  1.30768614315019E+00
(PID.TID 0000.0001)  ploadbar=  1.01073729460970E+05
 cg2d: Sum(rhs),rhsMax =  -7.97379084452037E+01  1.31234878832788E+00
(PID.TID 0000.0001)  ploadbar=  1.01075002381969E+05
 cg2d: Sum(rhs),rhsMax =  -7.94026820135096E+01  1.31757596869405E+00
(PID.TID 0000.0001)  ploadbar=  1.01076275302967E+05
 cg2d: Sum(rhs),rhsMax =  -7.90263890993835E+01  1.32348905836267E+00
(PID.TID 0000.0001)  ploadbar=  1.01077548223966E+05
 cg2d: Sum(rhs),rhsMax =  -7.86053749668242E+01  1.33016308582277E+00
(PID.TID 0000.0001)  ploadbar=  1.01078821144964E+05
 cg2d: Sum(rhs),rhsMax =  -7.81356501902150E+01  1.33768515522772E+00
(PID.TID 0000.0001)  ploadbar=  1.01080094065963E+05
 cg2d: Sum(rhs),rhsMax =  -7.76703707922021E+01  1.34525127433734E+00
(PID.TID 0000.0001)  ploadbar=  1.01080066865373E+05
 cg2d: Sum(rhs),rhsMax =  -7.71749861455195E+01  1.35346536162440E+00
(PID.TID 0000.0001)  ploadbar=  1.01080039664782E+05
 cg2d: Sum(rhs),rhsMax =  -7.66431988168750E+01  1.36245812349690E+00
(PID.TID 0000.0001)  ploadbar=  1.01080012464192E+05
 cg2d: Sum(rhs),rhsMax =  -7.60862287639380E+01  1.37205076262385E+00
(PID.TID 0000.0001)  ploadbar=  1.01079985263602E+05
 cg2d: Sum(rhs),rhsMax =  -7.55137808288604E+01  1.38208036710426E+00
(PID.TID 0000.0001)  ploadbar=  1.01079958063012E+05
 cg2d: Sum(rhs),rhsMax =  -7.49354556771006E+01  1.39237917621421E+00
(PID.TID 0000.0001)  ploadbar=  1.01079930862422E+05
 cg2d: Sum(rhs),rhsMax =  -7.43573193882949E+01  1.40283336075544E+00
(PID.TID 0000.0001)  ploadbar=  1.01079400343692E+05
 cg2d: Sum(rhs),rhsMax =  -7.37657017208336E+01  1.41370287282103E+00
(PID.TID 0000.0001)  ploadbar=  1.01078869824963E+05
 cg2d: Sum(rhs),rhsMax =  -7.31568237183022E+01  1.42507173108325E+00
(PID.TID 0000.0001)  ploadbar=  1.01078339306233E+05
 cg2d: Sum(rhs),rhsMax =  -7.25296136029901E+01  1.43697884308142E+00
(PID.TID 0000.0001)  ploadbar=  1.01077808787504E+05
 cg2d: Sum(rhs),rhsMax =  -7.18826909214584E+01  1.44947107053297E+00
(PID.TID 0000.0001)  ploadbar=  1.01077278268774E+05
 cg2d: Sum(rhs),rhsMax =  -7.12147039344919E+01  1.46259914913554E+00
(PID.TID 0000.0001)  ploadbar=  1.01076747750045E+05
 cg2d: Sum(rhs),rhsMax =  -7.05223903655266E+01  1.47654710163598E+00
(PID.TID 0000.0001)  ploadbar=  1.01076482304981E+05
 cg2d: Sum(rhs),rhsMax =  -6.98251506400248E+01  1.49093889991218E+00
(PID.TID 0000.0001)  ploadbar=  1.01076216859916E+05
 cg2d: Sum(rhs),rhsMax =  -6.91332392691771E+01  1.50556501651860E+00
(PID.TID 0000.0001)  ploadbar=  1.01075951414852E+05
 cg2d: Sum(rhs),rhsMax =  -6.84571175344921E+01  1.52019169529807E+00
(PID.TID 0000.0001)  ploadbar=  1.01075685969788E+05
 cg2d: Sum(rhs),rhsMax =  -6.78075692502930E+01  1.53456079525377E+00
(PID.TID 0000.0001)  ploadbar=  1.01075420524724E+05
 cg2d: Sum(rhs),rhsMax =  -6.71950514508933E+01  1.54840118977865E+00
(PID.TID 0000.0001)  ploadbar=  1.01075155079660E+05
 cg2d: Sum(rhs),rhsMax =  -6.66192183481249E+01  1.56159086856316E+00
(PID.TID 0000.0001)  ploadbar=  1.01074560683550E+05
 cg2d: Sum(rhs),rhsMax =  -6.60750085514916E+01  1.57420323283620E+00
(PID.TID 0000.0001)  ploadbar=  1.01073966287441E+05
 cg2d: Sum(rhs),rhsMax =  -6.55635396386043E+01  1.58617163682739E+00
(PID.TID 0000.0001)  ploadbar=  1.01073371891332E+05
 cg2d: Sum(rhs),rhsMax =  -6.50923517615143E+01  1.59727148174839E+00
(PID.TID 0000.0001)  ploadbar=  1.01072777495223E+05
 cg2d: Sum(rhs),rhsMax =  -6.46653426607846E+01  1.60736174081851E+00
(PID.TID 0000.0001)  ploadbar=  1.01072183099114E+05
 cg2d: Sum(rhs),rhsMax =  -6.42840365658604E+01  1.61635851979232E+00
(PID.TID 0000.0001)  ploadbar=  1.01071588703005E+05
 cg2d: Sum(rhs),rhsMax =  -6.39522823723689E+01  1.62424427507149E+00
(PID.TID 0000.0001)  ploadbar=  1.01070485035033E+05
 cg2d: Sum(rhs),rhsMax =  -6.36691761749030E+01  1.63100202463929E+00
(PID.TID 0000.0001)  ploadbar=  1.01069381367061E+05
 cg2d: Sum(rhs),rhsMax =  -6.34377961672631E+01  1.63651263630184E+00
(PID.TID 0000.0001)  ploadbar=  1.01068277699090E+05
 cg2d: Sum(rhs),rhsMax =  -6.32578396072594E+01  1.64075349375059E+00
(PID.TID 0000.0001)  ploadbar=  1.01067174031118E+05
 cg2d: Sum(rhs),rhsMax =  -6.31236288331862E+01  1.64384489272369E+00
(PID.TID 0000.0001)  ploadbar=  1.01066070363146E+05
 cg2d: Sum(rhs),rhsMax =  -6.30272491330617E+01  1.64597383325465E+00
(PID.TID 0000.0001)  ploadbar=  1.01064966695175E+05
 cg2d: Sum(rhs),rhsMax =  -6.29662513658486E+01  1.64719898782013E+00
(PID.TID 0000.0001)  ploadbar=  1.01064870717161E+05
 cg2d: Sum(rhs),rhsMax =  -6.29312943839425E+01  1.64775471668303E+00
(PID.TID 0000.0001)  ploadbar=  1.01064774739148E+05
 cg2d: Sum(rhs),rhsMax =  -6.29239868366605E+01  1.64759044185302E+00
(PID.TID 0000.0001)  ploadbar=  1.01064678761135E+05
 cg2d: Sum(rhs),rhsMax =  -6.29414954408242E+01  1.64677705152804E+00
(PID.TID 0000.0001)  ploadbar=  1.01064582783122E+05
 cg2d: Sum(rhs),rhsMax =  -6.29790126778870E+01  1.64543679244895E+00
(PID.TID 0000.0001)  ploadbar=  1.01064486805108E+05
 cg2d: Sum(rhs),rhsMax =  -6.30343706489796E+01  1.64362696051513E+00
(PID.TID 0000.0001)  ploadbar=  1.01064390827095E+05
 cg2d: Sum(rhs),rhsMax =  -6.31060778880565E+01  1.64142274789704E+00
(PID.TID 0000.0001)  ploadbar=  1.01064498451587E+05
 cg2d: Sum(rhs),rhsMax =  -6.31871526168724E+01  1.63900368143499E+00
(PID.TID 0000.0001)  ploadbar=  1.01064606076078E+05
 cg2d: Sum(rhs),rhsMax =  -6.32817915557751E+01  1.63625823023180E+00
(PID.TID 0000.0001)  ploadbar=  1.01064713700570E+05
 cg2d: Sum(rhs),rhsMax =  -6.33837248035936E+01  1.63334102682512E+00
(PID.TID 0000.0001)  ploadbar=  1.01064821325061E+05
 cg2d: Sum(rhs),rhsMax =  -6.34866458959093E+01  1.63040684798739E+00
(PID.TID 0000.0001)  ploadbar=  1.01064928949553E+05
 cg2d: Sum(rhs),rhsMax =  -6.35863769187085E+01  1.62755334808484E+00
(PID.TID 0000.0001)  ploadbar=  1.01065036574044E+05
 cg2d: Sum(rhs),rhsMax =  -6.36721772306094E+01  1.62498295056092E+00
(PID.TID 0000.0001)  ploadbar=  1.01065396407990E+05
 cg2d: Sum(rhs),rhsMax =  -6.37507462477008E+01  1.62251623351739E+00
(PID.TID 0000.0001)  ploadbar=  1.01065756241936E+05
 cg2d: Sum(rhs),rhsMax =  -6.38178011403705E+01  1.62025647732922E+00
(PID.TID 0000.0001)  ploadbar=  1.01066116075882E+05
 cg2d: Sum(rhs),rhsMax =  -6.38687596366164E+01  1.61831058124915E+00
(PID.TID 0000.0001)  ploadbar=  1.01066475909828E+05
 cg2d: Sum(rhs),rhsMax =  -6.39032502733402E+01  1.61668320265021E+00
(PID.TID 0000.0001)  ploadbar=  1.01066835743774E+05
 cg2d: Sum(rhs),rhsMax =  -6.39220408172048E+01  1.61534601150722E+00
(PID.TID 0000.0001)  ploadbar=  1.01067195577720E+05
 cg2d: Sum(rhs),rhsMax =  -6.39583619361638E+01  1.61363946431137E+00
(PID.TID 0000.0001)  ploadbar=  1.01067726597111E+05
 cg2d: Sum(rhs),rhsMax =  -6.39972507251370E+01  1.61193893531726E+00
(PID.TID 0000.0001)  ploadbar=  1.01068257616503E+05
 cg2d: Sum(rhs),rhsMax =  -6.40356900565150E+01  1.61031302478409E+00
(PID.TID 0000.0001)  ploadbar=  1.01068788635894E+05
 cg2d: Sum(rhs),rhsMax =  -6.40756652255932E+01  1.60870375281042E+00
(PID.TID 0000.0001)  ploadbar=  1.01069319655285E+05
 cg2d: Sum(rhs),rhsMax =  -6.41172003089517E+01  1.60710147728618E+00
(PID.TID 0000.0001)  ploadbar=  1.01069850674676E+05
 cg2d: Sum(rhs),rhsMax =  -6.41622257736763E+01  1.60545013614985E+00
(PID.TID 0000.0001)  ploadbar=  1.01070381694067E+05
 cg2d: Sum(rhs),rhsMax =  -6.42034977435736E+01  1.60388786251753E+00
(PID.TID 0000.0001)  ploadbar=  1.01070616515185E+05
 cg2d: Sum(rhs),rhsMax =  -6.42494544755967E+01  1.60219316794059E+00
(PID.TID 0000.0001)  ploadbar=  1.01070851336303E+05
 cg2d: Sum(rhs),rhsMax =  -6.42947781472918E+01  1.60049257110614E+00
(PID.TID 0000.0001)  ploadbar=  1.01071086157421E+05
 cg2d: Sum(rhs),rhsMax =  -6.43374591401989E+01  1.59883264810648E+00
(PID.TID 0000.0001)  ploadbar=  1.01071320978539E+05
 cg2d: Sum(rhs),rhsMax =  -6.43798432350742E+01  1.59715142999340E+00
(PID.TID 0000.0001)  ploadbar=  1.01071555799657E+05
 cg2d: Sum(rhs),rhsMax =  -6.37045316900463E+01  1.61341536962323E+00
(PID.TID 0000.0001)  ploadbar=  1.01071790620775E+05
 cg2d: Sum(rhs),rhsMax =  -6.24722784362015E+01  1.64458851843340E+00
(PID.TID 0000.0001)  ploadbar=  1.01072157285476E+05
 cg2d: Sum(rhs),rhsMax =  -6.11927689696237E+01  1.67833417843905E+00
(PID.TID 0000.0001)  ploadbar=  1.01072523950178E+05
 cg2d: Sum(rhs),rhsMax =  -5.98605616520318E+01  1.71504760427933E+00
(PID.TID 0000.0001)  ploadbar=  1.01072890614880E+05
 cg2d: Sum(rhs),rhsMax =  -5.84278604128319E+01  1.75645966755857E+00
(PID.TID 0000.0001)  ploadbar=  1.01073257279581E+05
 cg2d: Sum(rhs),rhsMax =  -5.68869715766939E+01  1.80337958250439E+00
(PID.TID 0000.0001)  ploadbar=  1.01073623944283E+05
 cg2d: Sum(rhs),rhsMax =  -5.52613346952213E+01  1.85574579389236E+00
(PID.TID 0000.0001)  ploadbar=  1.01073990608985E+05
 cg2d: Sum(rhs),rhsMax =  -5.37613649503262E+01  1.90679316671460E+00
(PID.TID 0000.0001)  ploadbar=  1.01074588390674E+05
 cg2d: Sum(rhs),rhsMax =  -5.23005500276279E+01  1.95927138616806E+00
(PID.TID 0000.0001)  ploadbar=  1.01075186172363E+05
 cg2d: Sum(rhs),rhsMax =  -5.08856852096956E+01  2.01290817409130E+00
(PID.TID 0000.0001)  ploadbar=  1.01075783954053E+05
 cg2d: Sum(rhs),rhsMax =  -4.95568062855461E+01  2.06597886708865E+00
(PID.TID 0000.0001)  ploadbar=  1.01076381735742E+05
 cg2d: Sum(rhs),rhsMax =  -4.84823114577290E+01  2.11078641034947E+00
(PID.TID 0000.0001)  ploadbar=  1.01076979517431E+05
 cg2d: Sum(rhs),rhsMax =  -4.78420783323719E+01  2.13797890414770E+00
(PID.TID 0000.0001)  ploadbar=  1.01077577299121E+05
 cg2d: Sum(rhs),rhsMax =  -4.73509228561106E+01  2.15917185207892E+00
(PID.TID 0000.0001)  ploadbar=  1.01079120518597E+05
 cg2d: Sum(rhs),rhsMax =  -4.68588405128115E+01  2.18092687225158E+00
(PID.TID 0000.0001)  ploadbar=  1.01080663738074E+05
 cg2d: Sum(rhs),rhsMax =  -4.62792740210036E+01  2.20737316694919E+00
(PID.TID 0000.0001)  ploadbar=  1.01082206957551E+05
 cg2d: Sum(rhs),rhsMax =  -4.55972900248058E+01  2.23956426591455E+00
(PID.TID 0000.0001)  ploadbar=  1.01083750177028E+05
 cg2d: Sum(rhs),rhsMax =  -4.48394142963884E+01  2.27662552434741E+00
(PID.TID 0000.0001)  ploadbar=  1.01085293396505E+05
 cg2d: Sum(rhs),rhsMax =  -4.40821561999434E+01  2.31496510979665E+00
(PID.TID 0000.0001)  ploadbar=  1.01086836615981E+05
 cg2d: Sum(rhs),rhsMax =  -4.33552130555638E+01  2.35295014490299E+00
(PID.TID 0000.0001)  ploadbar=  1.01087362639198E+05
 cg2d: Sum(rhs),rhsMax =  -4.27504250544698E+01  2.38533463629222E+00
(PID.TID 0000.0001)  ploadbar=  1.01087888662415E+05
 cg2d: Sum(rhs),rhsMax =  -4.22911745059171E+01  2.41025619565007E+00
(PID.TID 0000.0001)  ploadbar=  1.01088414685632E+05
 cg2d: Sum(rhs),rhsMax =  -4.19723238610225E+01  2.42750106444802E+00
(PID.TID 0000.0001)  ploadbar=  1.01088940708849E+05
 cg2d: Sum(rhs),rhsMax =  -4.17706455885308E+01  2.43807231312130E+00
(PID.TID 0000.0001)  ploadbar=  1.01089466732066E+05
 cg2d: Sum(rhs),rhsMax =  -4.16350729856690E+01  2.44477365278180E+00
(PID.TID 0000.0001)  ploadbar=  1.01089992755283E+05
 cg2d: Sum(rhs),rhsMax =  -4.15507689494032E+01  2.44855306325052E+00
(PID.TID 0000.0001)  ploadbar=  1.01089010222588E+05
 cg2d: Sum(rhs),rhsMax =  -4.14217318797305E+01  2.45504501631722E+00
(PID.TID 0000.0001)  ploadbar=  1.01088027689894E+05
 cg2d: Sum(rhs),rhsMax =  -4.12533305241937E+01  2.46396754850415E+00
(PID.TID 0000.0001)  ploadbar=  1.01087045157200E+05
 cg2d: Sum(rhs),rhsMax =  -4.10617985649516E+01  2.47439100038841E+00
(PID.TID 0000.0001)  ploadbar=  1.01086062624505E+05
 cg2d: Sum(rhs),rhsMax =  -4.08692869592631E+01  2.48499373342100E+00
(PID.TID 0000.0001)  ploadbar=  1.01085080091811E+05
 cg2d: Sum(rhs),rhsMax =  -4.06661919179237E+01  2.49634832220976E+00
(PID.TID 0000.0001)  ploadbar=  1.01084097559117E+05
 cg2d: Sum(rhs),rhsMax =  -4.05410912120104E+01  2.50293582302432E+00
(PID.TID 0000.0001)  ploadbar=  1.01083947224312E+05
 cg2d: Sum(rhs),rhsMax =  -4.04874722905429E+01  2.50506558260257E+00
(PID.TID 0000.0001)  ploadbar=  1.01083796889506E+05
 cg2d: Sum(rhs),rhsMax =  -4.05085996163484E+01  2.50249457135384E+00
(PID.TID 0000.0001)  ploadbar=  1.01083646554701E+05
 cg2d: Sum(rhs),rhsMax =  -4.05876149076514E+01  2.49626912363595E+00
(PID.TID 0000.0001)  ploadbar=  1.01083496219896E+05
 cg2d: Sum(rhs),rhsMax =  -4.07139785001456E+01  2.48706995416275E+00
(PID.TID 0000.0001)  ploadbar=  1.01083345885091E+05
 cg2d: Sum(rhs),rhsMax =  -4.08673424774883E+01  2.47617463355968E+00
(PID.TID 0000.0001)  ploadbar=  1.01083195550286E+05
 cg2d: Sum(rhs),rhsMax =  -4.09530103168682E+01  2.46952382490154E+00
(PID.TID 0000.0001)  ploadbar=  1.01082952337915E+05
 cg2d: Sum(rhs),rhsMax =  -4.10259744667974E+01  2.46374727980156E+00
(PID.TID 0000.0001)  ploadbar=  1.01082709125544E+05
 cg2d: Sum(rhs),rhsMax =  -4.10963537367241E+01  2.45822120048973E+00
(PID.TID 0000.0001)  ploadbar=  1.01082465913174E+05
 cg2d: Sum(rhs),rhsMax =  -4.11633222101751E+01  2.45298295941907E+00
(PID.TID 0000.0001)  ploadbar=  1.01082222700803E+05
 cg2d: Sum(rhs),rhsMax =  -4.12351533735563E+01  2.44753241471356E+00
(PID.TID 0000.0001)  ploadbar=  1.01081979488433E+05
 cg2d: Sum(rhs),rhsMax =  -4.13263344805986E+01  2.44100796286081E+00
(PID.TID 0000.0001)  ploadbar=  1.01081736276062E+05
 cg2d: Sum(rhs),rhsMax =  -4.14070569005966E+01  2.43514258927748E+00
(PID.TID 0000.0001)  ploadbar=  1.01081417971937E+05
 cg2d: Sum(rhs),rhsMax =  -4.14852673315063E+01  2.42945051159144E+00
(PID.TID 0000.0001)  ploadbar=  1.01081099667813E+05
 cg2d: Sum(rhs),rhsMax =  -4.15731302457750E+01  2.42320730299509E+00
(PID.TID 0000.0001)  ploadbar=  1.01080781363688E+05
 cg2d: Sum(rhs),rhsMax =  -4.16801242449122E+01  2.41586079892204E+00
(PID.TID 0000.0001)  ploadbar=  1.01080463059564E+05
 cg2d: Sum(rhs),rhsMax =  -4.18155024406596E+01  2.40688898717783E+00
(PID.TID 0000.0001)  ploadbar=  1.01080144755439E+05
 cg2d: Sum(rhs),rhsMax =  -4.19873152166195E+01  2.39586395698393E+00
(PID.TID 0000.0001)  ploadbar=  1.01079826451314E+05
 cg2d: Sum(rhs),rhsMax =  -4.21811694987196E+01  2.38372277548594E+00
(PID.TID 0000.0001)  ploadbar=  1.01078690949841E+05
 cg2d: Sum(rhs),rhsMax =  -4.23924198075116E+01  2.37075673788268E+00
(PID.TID 0000.0001)  ploadbar=  1.01077555448368E+05
 cg2d: Sum(rhs),rhsMax =  -4.26173984295438E+01  2.35719372791038E+00
(PID.TID 0000.0001)  ploadbar=  1.01076419946895E+05
 cg2d: Sum(rhs),rhsMax =  -4.28501204839110E+01  2.34337639886917E+00
(PID.TID 0000.0001)  ploadbar=  1.01075284445422E+05
 cg2d: Sum(rhs),rhsMax =  -4.30818612120588E+01  2.32977850264221E+00
(PID.TID 0000.0001)  ploadbar=  1.01074148943949E+05
 cg2d: Sum(rhs),rhsMax =  -4.33080604440806E+01  2.31663035002966E+00
(PID.TID 0000.0001)  ploadbar=  1.01073013442476E+05
 cg2d: Sum(rhs),rhsMax =  -4.35335532229041E+01  2.30360101699253E+00
(PID.TID 0000.0001)  ploadbar=  1.01071170097209E+05
 cg2d: Sum(rhs),rhsMax =  -4.37454942657500E+01  2.29134781855651E+00
(PID.TID 0000.0001)  ploadbar=  1.01069326751941E+05
 cg2d: Sum(rhs),rhsMax =  -4.39511282172988E+01  2.27946911889333E+00
(PID.TID 0000.0001)  ploadbar=  1.01067483406673E+05
 cg2d: Sum(rhs),rhsMax =  -4.41505409929308E+01  2.26794818593300E+00
(PID.TID 0000.0001)  ploadbar=  1.01065640061405E+05
 cg2d: Sum(rhs),rhsMax =  -4.43264096371958E+01  2.25765524095694E+00
(PID.TID 0000.0001)  ploadbar=  1.01063796716138E+05
 cg2d: Sum(rhs),rhsMax =  -4.44787214529316E+01  2.24855527798295E+00
(PID.TID 0000.0001)  ploadbar=  1.01061953370870E+05
 cg2d: Sum(rhs),rhsMax =  -4.46454649132868E+01  2.23888986341703E+00
(PID.TID 0000.0001)  ploadbar=  1.01059779527537E+05
 cg2d: Sum(rhs),rhsMax =  -4.48117659050061E+01  2.22941006389624E+00
(PID.TID 0000.0001)  ploadbar=  1.01057605684204E+05
 cg2d: Sum(rhs),rhsMax =  -4.49818952969877E+01  2.21989498025234E+00
(PID.TID 0000.0001)  ploadbar=  1.01055431840871E+05
 cg2d: Sum(rhs),rhsMax =  -4.51551793580621E+01  2.21036942776239E+00
(PID.TID 0000.0001)  ploadbar=  1.01053257997539E+05
 cg2d: Sum(rhs),rhsMax =  -4.53330073688578E+01  2.20075958453483E+00
(PID.TID 0000.0001)  ploadbar=  1.01051084154206E+05
 cg2d: Sum(rhs),rhsMax =  -4.55202310263080E+01  2.19082265067988E+00
(PID.TID 0000.0001)  ploadbar=  1.01048910310873E+05
 cg2d: Sum(rhs),rhsMax =  -4.57143207166834E+01  2.18068787877787E+00
(PID.TID 0000.0001)  ploadbar=  1.01047445781008E+05
 cg2d: Sum(rhs),rhsMax =  -4.59178195781869E+01  2.17022953812534E+00
(PID.TID 0000.0001)  ploadbar=  1.01045981251144E+05
 cg2d: Sum(rhs),rhsMax =  -4.61221387264421E+01  2.15985047488987E+00
(PID.TID 0000.0001)  ploadbar=  1.01044516721279E+05
 cg2d: Sum(rhs),rhsMax =  -4.63319792546165E+01  2.14932404139173E+00
(PID.TID 0000.0001)  ploadbar=  1.01043052191415E+05
 cg2d: Sum(rhs),rhsMax =  -4.65476485807088E+01  2.13863217349745E+00
(PID.TID 0000.0001)  ploadbar=  1.01041587661550E+05
 cg2d: Sum(rhs),rhsMax =  -4.67692588698814E+01  2.12776636753742E+00
(PID.TID 0000.0001)  ploadbar=  1.01040123131686E+05
 cg2d: Sum(rhs),rhsMax =  -4.70106291869408E+01  2.11618804715845E+00
(PID.TID 0000.0001)  ploadbar=  1.01038754553247E+05
 cg2d: Sum(rhs),rhsMax =  -4.72838256652753E+01  2.10338437081288E+00
(PID.TID 0000.0001)  ploadbar=  1.01037385974808E+05
 cg2d: Sum(rhs),rhsMax =  -4.75996301457176E+01  2.08892389373833E+00
(PID.TID 0000.0001)  ploadbar=  1.01036017396369E+05
 cg2d: Sum(rhs),rhsMax =  -4.79735758784990E+01  2.07219797193016E+00
(PID.TID 0000.0001)  ploadbar=  1.01034648817930E+05
 cg2d: Sum(rhs),rhsMax =  -4.84135815855516E+01  2.05298240960138E+00
(PID.TID 0000.0001)  ploadbar=  1.01033280239491E+05
 cg2d: Sum(rhs),rhsMax =  -4.89315356373199E+01  2.03092245086030E+00
(PID.TID 0000.0001)  ploadbar=  1.01031911661052E+05
 cg2d: Sum(rhs),rhsMax =  -4.95117248353241E+01  2.00677977315118E+00
(PID.TID 0000.0001)  ploadbar=  1.01031162485320E+05
 cg2d: Sum(rhs),rhsMax =  -5.01414206542757E+01  1.98120961265929E+00
(PID.TID 0000.0001)  ploadbar=  1.01030413309589E+05
 cg2d: Sum(rhs),rhsMax =  -5.08099862972083E+01  1.95474217476859E+00
(PID.TID 0000.0001)  ploadbar=  1.01029664133857E+05
 cg2d: Sum(rhs),rhsMax =  -5.15081840512762E+01  1.92781338174487E+00
(PID.TID 0000.0001)  ploadbar=  1.01028914958125E+05
 cg2d: Sum(rhs),rhsMax =  -5.22365233589539E+01  1.90046453292404E+00
(PID.TID 0000.0001)  ploadbar=  1.01028165782393E+05
 cg2d: Sum(rhs),rhsMax =  -5.30021416457941E+01  1.87250189426718E+00
(PID.TID 0000.0001)  ploadbar=  1.01027416606662E+05
 cg2d: Sum(rhs),rhsMax =  -5.38309979214497E+01  1.84322587751950E+00
(PID.TID 0000.0001)  ploadbar=  1.01027138953624E+05
 cg2d: Sum(rhs),rhsMax =  -5.47331963256470E+01  1.81246092368426E+00
(PID.TID 0000.0001)  ploadbar=  1.01026861300586E+05
 cg2d: Sum(rhs),rhsMax =  -5.57720181166195E+01  1.77837514109449E+00
(PID.TID 0000.0001)  ploadbar=  1.01026583647548E+05
 cg2d: Sum(rhs),rhsMax =  -5.69825112321665E+01  1.74031945255355E+00
(PID.TID 0000.0001)  ploadbar=  1.01026305994510E+05
 cg2d: Sum(rhs),rhsMax =  -5.83765110027068E+01  1.69852503704915E+00
(PID.TID 0000.0001)  ploadbar=  1.01026028341472E+05
 cg2d: Sum(rhs),rhsMax =  -5.99622315680420E+01  1.65340315957264E+00
(PID.TID 0000.0001)  ploadbar=  1.01025750688434E+05
 cg2d: Sum(rhs),rhsMax =  -6.17573220631705E+01  1.60512455218911E+00
(PID.TID 0000.0001)  ploadbar=  1.01026486745797E+05
 cg2d: Sum(rhs),rhsMax =  -6.37153238736652E+01  1.55555869319965E+00
(PID.TID 0000.0001)  ploadbar=  1.01027222803159E+05
 cg2d: Sum(rhs),rhsMax =  -6.57963546808720E+01  1.50609619212202E+00
(PID.TID 0000.0001)  ploadbar=  1.01027958860521E+05
 cg2d: Sum(rhs),rhsMax =  -6.79669152107093E+01  1.45771162593106E+00
(PID.TID 0000.0001)  ploadbar=  1.01028694917884E+05
 cg2d: Sum(rhs),rhsMax =  -7.02151086597449E+01  1.41072492946280E+00
(PID.TID 0000.0001)  ploadbar=  1.01029430975246E+05
 cg2d: Sum(rhs),rhsMax =  -7.14587850865850E+01  1.38582520173430E+00
(PID.TID 0000.0001)  ploadbar=  1.01030167032609E+05
 cg2d: Sum(rhs),rhsMax =  -7.09755258427396E+01  1.39493014147870E+00
(PID.TID 0000.0001)  ploadbar=  1.01030258964243E+05
 cg2d: Sum(rhs),rhsMax =  -7.05995423628676E+01  1.40204348078918E+00
(PID.TID 0000.0001)  ploadbar=  1.01030350895878E+05
 cg2d: Sum(rhs),rhsMax =  -7.03300748998956E+01  1.40711526333631E+00
(PID.TID 0000.0001)  ploadbar=  1.01030442827512E+05
 cg2d: Sum(rhs),rhsMax =  -7.01401714513387E+01  1.41063844691119E+00
(PID.TID 0000.0001)  ploadbar=  1.01030534759147E+05
 cg2d: Sum(rhs),rhsMax =  -7.00204911078356E+01  1.41277261921858E+00
(PID.TID 0000.0001)  ploadbar=  1.01030626690781E+05
 cg2d: Sum(rhs),rhsMax =  -6.92695434855654E+01  1.42781556148812E+00
(PID.TID 0000.0001)  ploadbar=  1.01030718622416E+05
 cg2d: Sum(rhs),rhsMax =  -6.82739837925914E+01  1.44831616712568E+00
(PID.TID 0000.0001)  ploadbar=  1.01032181263946E+05
 cg2d: Sum(rhs),rhsMax =  -6.75309518527764E+01  1.46388142345163E+00
(PID.TID 0000.0001)  ploadbar=  1.01033643905477E+05
 cg2d: Sum(rhs),rhsMax =  -6.70285125752807E+01  1.47442721362081E+00
(PID.TID 0000.0001)  ploadbar=  1.01035106547008E+05
 cg2d: Sum(rhs),rhsMax =  -6.67228469893927E+01  1.48069067490474E+00
(PID.TID 0000.0001)  ploadbar=  1.01036569188538E+05
 cg2d: Sum(rhs),rhsMax =  -6.65498909176212E+01  1.48398215700483E+00
(PID.TID 0000.0001)  ploadbar=  1.01038031830069E+05
 cg2d: Sum(rhs),rhsMax =  -6.64351926020561E+01  1.48591929348115E+00
(PID.TID 0000.0001)  ploadbar=  1.01039494471599E+05
 cg2d: Sum(rhs),rhsMax =  -6.63272112904934E+01  1.48777193080909E+00
(PID.TID 0000.0001)  ploadbar=  1.01041084945959E+05
 cg2d: Sum(rhs),rhsMax =  -6.61263989559458E+01  1.49178211581129E+00
(PID.TID 0000.0001)  ploadbar=  1.01042675420319E+05
 cg2d: Sum(rhs),rhsMax =  -6.57829361537633E+01  1.49912102087247E+00
(PID.TID 0000.0001)  ploadbar=  1.01044265894679E+05
 cg2d: Sum(rhs),rhsMax =  -6.53119926529391E+01  1.50953821483707E+00
(PID.TID 0000.0001)  ploadbar=  1.01045856369039E+05
 cg2d: Sum(rhs),rhsMax =  -6.47671034606311E+01  1.52190049566495E+00
(PID.TID 0000.0001)  ploadbar=  1.01047446843399E+05
 cg2d: Sum(rhs),rhsMax =  -6.42063591903099E+01  1.53490838677940E+00
(PID.TID 0000.0001)  ploadbar=  1.01049037317758E+05
 cg2d: Sum(rhs),rhsMax =  -6.36958300293083E+01  1.54691431306790E+00
(PID.TID 0000.0001)  ploadbar=  1.01049491038180E+05
 cg2d: Sum(rhs),rhsMax =  -6.33047835231044E+01  1.55615234865033E+00
(PID.TID 0000.0001)  ploadbar=  1.01049944758602E+05
 cg2d: Sum(rhs),rhsMax =  -6.30624348189916E+01  1.56178645605206E+00
(PID.TID 0000.0001)  ploadbar=  1.01050398479024E+05
 cg2d: Sum(rhs),rhsMax =  -6.29440166484944E+01  1.56434287847750E+00
(PID.TID 0000.0001)  ploadbar=  1.01050852199446E+05
 cg2d: Sum(rhs),rhsMax =  -6.29023113045870E+01  1.56495784938774E+00
(PID.TID 0000.0001)  ploadbar=  1.01051305919868E+05
 cg2d: Sum(rhs),rhsMax =  -6.28747156702126E+01  1.56517181587478E+00
(PID.TID 0000.0001)  ploadbar=  1.01051759640290E+05
 cg2d: Sum(rhs),rhsMax =  -6.27198247621119E+01  1.56857132858938E+00
(PID.TID 0000.0001)  ploadbar=  1.01050387641339E+05
 cg2d: Sum(rhs),rhsMax =  -6.23810984965876E+01  1.57662569776439E+00
(PID.TID 0000.0001)  ploadbar=  1.01049015642388E+05
 cg2d: Sum(rhs),rhsMax =  -6.18574180037585E+01  1.58951245712884E+00
(PID.TID 0000.0001)  ploadbar=  1.01047643643438E+05
 cg2d: Sum(rhs),rhsMax =  -6.11803033903946E+01  1.60664210646485E+00
(PID.TID 0000.0001)  ploadbar=  1.01046271644487E+05
 cg2d: Sum(rhs),rhsMax =  -6.04517325974639E+01  1.62553408551003E+00
(PID.TID 0000.0001)  ploadbar=  1.01044899645537E+05
 cg2d: Sum(rhs),rhsMax =  -5.97787681610872E+01  1.64334758269219E+00
(PID.TID 0000.0001)  ploadbar=  1.01043527646586E+05
 cg2d: Sum(rhs),rhsMax =  -5.91514211622106E+01  1.66026457664305E+00
(PID.TID 0000.0001)  ploadbar=  1.01043069521883E+05
 cg2d: Sum(rhs),rhsMax =  -5.85784913838532E+01  1.67596032857429E+00
(PID.TID 0000.0001)  ploadbar=  1.01042611397180E+05
 cg2d: Sum(rhs),rhsMax =  -5.80572525009454E+01  1.69042727221080E+00
(PID.TID 0000.0001)  ploadbar=  1.01042153272477E+05
 cg2d: Sum(rhs),rhsMax =  -5.75786357448175E+01  1.70385460356561E+00
(PID.TID 0000.0001)  ploadbar=  1.01041695147774E+05
 cg2d: Sum(rhs),rhsMax =  -5.71304370185111E+01  1.71654507259266E+00
(PID.TID 0000.0001)  ploadbar=  1.01041237023071E+05
 cg2d: Sum(rhs),rhsMax =  -5.68525586556912E+01  1.72420295172938E+00
(PID.TID 0000.0001)  ploadbar=  1.01040778898368E+05
 cg2d: Sum(rhs),rhsMax =  -5.66136023869977E+01  1.73078925041114E+00
(PID.TID 0000.0001)  ploadbar=  1.01040997870372E+05
 cg2d: Sum(rhs),rhsMax =  -5.63555069330923E+01  1.73806167566069E+00
(PID.TID 0000.0001)  ploadbar=  1.01041216842375E+05
 cg2d: Sum(rhs),rhsMax =  -5.60555188160539E+01  1.74674244489089E+00
(PID.TID 0000.0001)  ploadbar=  1.01041435814379E+05
 cg2d: Sum(rhs),rhsMax =  -5.57157439479950E+01  1.75680407318879E+00
(PID.TID 0000.0001)  ploadbar=  1.01041654786382E+05
 cg2d: Sum(rhs),rhsMax =  -5.53570673577859E+01  1.76762880593799E+00
(PID.TID 0000.0001)  ploadbar=  1.01041873758386E+05
 cg2d: Sum(rhs),rhsMax =  -5.50118199352122E+01  1.77819051469992E+00
(PID.TID 0000.0001)  ploadbar=  1.01042092730389E+05
 cg2d: Sum(rhs),rhsMax =  -5.47245286392896E+01  1.78699961343564E+00
(PID.TID 0000.0001)  ploadbar=  1.01041289880972E+05
 cg2d: Sum(rhs),rhsMax =  -5.45350372729205E+01  1.79268217229298E+00
(PID.TID 0000.0001)  ploadbar=  1.01040487031554E+05
 cg2d: Sum(rhs),rhsMax =  -5.44529597171835E+01  1.79485277496532E+00
(PID.TID 0000.0001)  ploadbar=  1.01039684182136E+05
 cg2d: Sum(rhs),rhsMax =  -5.44675936497092E+01  1.79383384392342E+00
(PID.TID 0000.0001)  ploadbar=  1.01038881332718E+05
 cg2d: Sum(rhs),rhsMax =  -5.45545034368155E+01  1.79042818736781E+00
(PID.TID 0000.0001)  ploadbar=  1.01038078483300E+05
 cg2d: Sum(rhs),rhsMax =  -5.46856661034901E+01  1.78556733941595E+00
(PID.TID 0000.0001)  ploadbar=  1.01037275633882E+05
 cg2d: Sum(rhs),rhsMax =  -5.47975141874273E+01  1.78134868599545E+00
(PID.TID 0000.0001)  ploadbar=  1.01035219069191E+05
 cg2d: Sum(rhs),rhsMax =  -5.48438602335367E+01  1.77926059146922E+00
(PID.TID 0000.0001)  ploadbar=  1.01033162504499E+05
 cg2d: Sum(rhs),rhsMax =  -5.48057081572138E+01  1.77991062375415E+00
(PID.TID 0000.0001)  ploadbar=  1.01031105939808E+05
 cg2d: Sum(rhs),rhsMax =  -5.46639570248620E+01  1.78392975828667E+00
(PID.TID 0000.0001)  ploadbar=  1.01029049375116E+05
 cg2d: Sum(rhs),rhsMax =  -5.44331592410062E+01  1.79088432603216E+00
(PID.TID 0000.0001)  ploadbar=  1.01026992810425E+05
 cg2d: Sum(rhs),rhsMax =  -5.42150278150671E+01  1.79746241837920E+00
(PID.TID 0000.0001)  ploadbar=  1.01024936245733E+05
 cg2d: Sum(rhs),rhsMax =  -5.40000352105031E+01  1.80395361327044E+00
(PID.TID 0000.0001)  ploadbar=  1.01023398794708E+05
 cg2d: Sum(rhs),rhsMax =  -5.37937622859011E+01  1.81015858296397E+00
(PID.TID 0000.0001)  ploadbar=  1.01021861343683E+05
 cg2d: Sum(rhs),rhsMax =  -5.36019783303246E+01  1.81587028863563E+00
(PID.TID 0000.0001)  ploadbar=  1.01020323892657E+05
 cg2d: Sum(rhs),rhsMax =  -5.34247786849779E+01  1.82107075516594E+00
(PID.TID 0000.0001)  ploadbar=  1.01018786441632E+05
 cg2d: Sum(rhs),rhsMax =  -5.32573064735716E+01  1.82590872168417E+00
(PID.TID 0000.0001)  ploadbar=  1.01017248990607E+05
 cg2d: Sum(rhs),rhsMax =  -5.30931396083332E+01  1.83059414086173E+00
(PID.TID 0000.0001)  ploadbar=  1.01015711539582E+05
 cg2d: Sum(rhs),rhsMax =  -5.28638976619976E+01  1.83758377919116E+00
(PID.TID 0000.0001)  ploadbar=  1.01015914720811E+05
 cg2d: Sum(rhs),rhsMax =  -5.26084194122660E+01  1.84557159273967E+00
(PID.TID 0000.0001)  ploadbar=  1.01016117902041E+05
 cg2d: Sum(rhs),rhsMax =  -5.23523280220141E+01  1.85367311693972E+00
(PID.TID 0000.0001)  ploadbar=  1.01016321083270E+05
 cg2d: Sum(rhs),rhsMax =  -5.20978034418264E+01  1.86180651550723E+00
(PID.TID 0000.0001)  ploadbar=  1.01016524264499E+05
 cg2d: Sum(rhs),rhsMax =  -5.18486640968717E+01  1.86983004810921E+00
(PID.TID 0000.0001)  ploadbar=  1.01016727445728E+05
 cg2d: Sum(rhs),rhsMax =  -5.16930259314862E+01  1.87453484385202E+00
(PID.TID 0000.0001)  ploadbar=  1.01016930626958E+05
 cg2d: Sum(rhs),rhsMax =  -5.16704328562000E+01  1.87444908374263E+00
(PID.TID 0000.0001)  ploadbar=  1.01017855824590E+05
 cg2d: Sum(rhs),rhsMax =  -5.17480017278410E+01  1.87074738238962E+00
(PID.TID 0000.0001)  ploadbar=  1.01018781022222E+05
 cg2d: Sum(rhs),rhsMax =  -5.19397371925717E+01  1.86296136376762E+00
(PID.TID 0000.0001)  ploadbar=  1.01019706219854E+05
 cg2d: Sum(rhs),rhsMax =  -5.22316168240065E+01  1.85168198067256E+00
(PID.TID 0000.0001)  ploadbar=  1.01020631417486E+05
 cg2d: Sum(rhs),rhsMax =  -5.26011503424111E+01  1.83781211320510E+00
(PID.TID 0000.0001)  ploadbar=  1.01021556615118E+05
 cg2d: Sum(rhs),rhsMax =  -5.30188377584475E+01  1.82247632346383E+00
(PID.TID 0000.0001)  ploadbar=  1.01022481812751E+05
 cg2d: Sum(rhs),rhsMax =  -5.33924131893402E+01  1.80888242879232E+00
(PID.TID 0000.0001)  ploadbar=  1.01023954267499E+05
 cg2d: Sum(rhs),rhsMax =  -5.36712988663478E+01  1.79865174198934E+00
(PID.TID 0000.0001)  ploadbar=  1.01025426722248E+05
 cg2d: Sum(rhs),rhsMax =  -5.38338919837732E+01  1.79239404276550E+00
(PID.TID 0000.0001)  ploadbar=  1.01026899176997E+05
 cg2d: Sum(rhs),rhsMax =  -5.38839887652491E+01  1.78990202214520E+00
(PID.TID 0000.0001)  ploadbar=  1.01028371631745E+05
 cg2d: Sum(rhs),rhsMax =  -5.38429943655889E+01  1.79043247300446E+00
(PID.TID 0000.0001)  ploadbar=  1.01029844086494E+05
 cg2d: Sum(rhs),rhsMax =  -5.37628285953495E+01  1.79225665042165E+00
(PID.TID 0000.0001)  ploadbar=  1.01031316541243E+05
 cg2d: Sum(rhs),rhsMax =  -5.36567253665056E+01  1.79491037798482E+00
(PID.TID 0000.0001)  ploadbar=  1.01032351071995E+05
 cg2d: Sum(rhs),rhsMax =  -5.35311450041326E+01  1.79817854137084E+00
(PID.TID 0000.0001)  ploadbar=  1.01033385602747E+05
 cg2d: Sum(rhs),rhsMax =  -5.34620404953632E+01  1.79950491461446E+00
(PID.TID 0000.0001)  ploadbar=  1.01034420133500E+05
 cg2d: Sum(rhs),rhsMax =  -5.34317243059018E+01  1.79946954545384E+00
(PID.TID 0000.0001)  ploadbar=  1.01035454664252E+05
 cg2d: Sum(rhs),rhsMax =  -5.34363745350847E+01  1.79819199582595E+00
(PID.TID 0000.0001)  ploadbar=  1.01036489195005E+05
 cg2d: Sum(rhs),rhsMax =  -5.34524070672137E+01  1.79646079002580E+00
(PID.TID 0000.0001)  ploadbar=  1.01037523725757E+05
 cg2d: Sum(rhs),rhsMax =  -5.34560521314337E+01  1.79524217257666E+00
(PID.TID 0000.0001)  ploadbar=  1.01038023440727E+05
 cg2d: Sum(rhs),rhsMax =  -5.34390086349429E+01  1.79481308629825E+00
(PID.TID 0000.0001)  ploadbar=  1.01038523155697E+05
 cg2d: Sum(rhs),rhsMax =  -5.33987903335728E+01  1.79525371135308E+00
(PID.TID 0000.0001)  ploadbar=  1.01039022870667E+05
 cg2d: Sum(rhs),rhsMax =  -5.33483812339549E+01  1.79612529895413E+00
(PID.TID 0000.0001)  ploadbar=  1.01039522585636E+05
 cg2d: Sum(rhs),rhsMax =  -5.33120493827605E+01  1.79660716058637E+00
(PID.TID 0000.0001)  ploadbar=  1.01040022300606E+05
 cg2d: Sum(rhs),rhsMax =  -5.33200205153329E+01  1.79567544993809E+00
(PID.TID 0000.0001)  ploadbar=  1.01040522015576E+05
 cg2d: Sum(rhs),rhsMax =  -5.34365199187247E+01  1.79113659637190E+00
(PID.TID 0000.0001)  ploadbar=  1.01041189394084E+05
 cg2d: Sum(rhs),rhsMax =  -5.36652946243128E+01  1.78291226984330E+00
(PID.TID 0000.0001)  ploadbar=  1.01041856772592E+05
 cg2d: Sum(rhs),rhsMax =  -5.40022347343482E+01  1.77123252840044E+00
(PID.TID 0000.0001)  ploadbar=  1.01042524151100E+05
 cg2d: Sum(rhs),rhsMax =  -5.44228791608254E+01  1.75701588293606E+00
(PID.TID 0000.0001)  ploadbar=  1.01043191529608E+05
 cg2d: Sum(rhs),rhsMax =  -5.48937409154993E+01  1.74144578578263E+00
(PID.TID 0000.0001)  ploadbar=  1.01043858908116E+05
 cg2d: Sum(rhs),rhsMax =  -5.53733548249560E+01  1.72588082670850E+00
(PID.TID 0000.0001)  ploadbar=  1.01044526286624E+05
 cg2d: Sum(rhs),rhsMax =  -5.58390474018321E+01  1.71103954559633E+00
(PID.TID 0000.0001)  ploadbar=  1.01046031227134E+05
 cg2d: Sum(rhs),rhsMax =  -5.62510799154884E+01  1.69808679180721E+00
(PID.TID 0000.0001)  ploadbar=  1.01047536167645E+05
 cg2d: Sum(rhs),rhsMax =  -5.65840703175900E+01  1.68769823192302E+00
(PID.TID 0000.0001)  ploadbar=  1.01049041108155E+05
 cg2d: Sum(rhs),rhsMax =  -5.68224031235875E+01  1.68024166726268E+00
(PID.TID 0000.0001)  ploadbar=  1.01050546048665E+05
 cg2d: Sum(rhs),rhsMax =  -5.69705939505796E+01  1.67549834931380E+00
(PID.TID 0000.0001)  ploadbar=  1.01052050989175E+05
 cg2d: Sum(rhs),rhsMax =  -5.70474678909014E+01  1.67286132635557E+00
(PID.TID 0000.0001)  ploadbar=  1.01053555929685E+05
 cg2d: Sum(rhs),rhsMax =  -5.71100578703039E+01  1.67063714992990E+00
(PID.TID 0000.0001)  ploadbar=  1.01054064872729E+05
 cg2d: Sum(rhs),rhsMax =  -5.72017166507052E+01  1.66754967408234E+00
(PID.TID 0000.0001)  ploadbar=  1.01054573815773E+05
 cg2d: Sum(rhs),rhsMax =  -5.73294720741921E+01  1.66339755605975E+00
(PID.TID 0000.0001)  ploadbar=  1.01055082758817E+05
 cg2d: Sum(rhs),rhsMax =  -5.74799975562858E+01  1.65857366180458E+00
(PID.TID 0000.0001)  ploadbar=  1.01055591701861E+05
 cg2d: Sum(rhs),rhsMax =  -5.76250552634310E+01  1.65388770911378E+00
(PID.TID 0000.0001)  ploadbar=  1.01056100644904E+05
 cg2d: Sum(rhs),rhsMax =  -5.77267794788491E+01  1.65041275749901E+00
(PID.TID 0000.0001)  ploadbar=  1.01056609587948E+05
 cg2d: Sum(rhs),rhsMax =  -5.77635759003433E+01  1.64886992434242E+00
(PID.TID 0000.0001)  ploadbar=  1.01056359265517E+05
 cg2d: Sum(rhs),rhsMax =  -5.77279217125445E+01  1.64946284794099E+00
(PID.TID 0000.0001)  ploadbar=  1.01056108943085E+05
 cg2d: Sum(rhs),rhsMax =  -5.76039623158547E+01  1.65264564642105E+00
(PID.TID 0000.0001)  ploadbar=  1.01055858620653E+05
 cg2d: Sum(rhs),rhsMax =  -5.74250056418138E+01  1.65748283064413E+00
(PID.TID 0000.0001)  ploadbar=  1.01055608298222E+05
 cg2d: Sum(rhs),rhsMax =  -5.72338824688034E+01  1.66275430819755E+00
(PID.TID 0000.0001)  ploadbar=  1.01055357975790E+05
 cg2d: Sum(rhs),rhsMax =  -5.70798892944167E+01  1.66702219263604E+00
(PID.TID 0000.0001)  ploadbar=  1.01055107653358E+05
 cg2d: Sum(rhs),rhsMax =  -5.70264576300906E+01  1.66836345331052E+00
(PID.TID 0000.0001)  ploadbar=  1.01054738303831E+05
 cg2d: Sum(rhs),rhsMax =  -5.71211790601721E+01  1.66536826917938E+00
(PID.TID 0000.0001)  ploadbar=  1.01054368954303E+05
 cg2d: Sum(rhs),rhsMax =  -5.73715478553757E+01  1.65786022155444E+00
(PID.TID 0000.0001)  ploadbar=  1.01053999604775E+05
 cg2d: Sum(rhs),rhsMax =  -5.77535497727968E+01  1.64663893376685E+00
(PID.TID 0000.0001)  ploadbar=  1.01053630255248E+05
 cg2d: Sum(rhs),rhsMax =  -5.82247392259805E+01  1.63303795377044E+00
(PID.TID 0000.0001)  ploadbar=  1.01053260905720E+05
 cg2d: Sum(rhs),rhsMax =  -5.87303761917048E+01  1.61867700082740E+00
(PID.TID 0000.0001)  ploadbar=  1.01052891556192E+05
 cg2d: Sum(rhs),rhsMax =  -5.91883232313456E+01  1.60584855155271E+00
(PID.TID 0000.0001)  ploadbar=  1.01051776696970E+05
 cg2d: Sum(rhs),rhsMax =  -5.95192968597715E+01  1.59660674819372E+00
(PID.TID 0000.0001)  ploadbar=  1.01050661837748E+05
 cg2d: Sum(rhs),rhsMax =  -5.97022762580259E+01  1.59138977499503E+00
(PID.TID 0000.0001)  ploadbar=  1.01049546978526E+05
 cg2d: Sum(rhs),rhsMax =  -5.97624743430095E+01  1.58944605249806E+00
(PID.TID 0000.0001)  ploadbar=  1.01048432119304E+05
 cg2d: Sum(rhs),rhsMax =  -5.97502592903703E+01  1.58940531156805E+00
(PID.TID 0000.0001)  ploadbar=  1.01047317260082E+05
 cg2d: Sum(rhs),rhsMax =  -5.97273217717910E+01  1.58961840716905E+00
(PID.TID 0000.0001)  ploadbar=  1.01046202400860E+05
 cg2d: Sum(rhs),rhsMax =  -5.97591199559871E+01  1.58834764261416E+00
(PID.TID 0000.0001)  ploadbar=  1.01045408133791E+05
 cg2d: Sum(rhs),rhsMax =  -5.98814124343887E+01  1.58464426040189E+00
(PID.TID 0000.0001)  ploadbar=  1.01044613866723E+05
 cg2d: Sum(rhs),rhsMax =  -6.01132084223982E+01  1.57803398397792E+00
(PID.TID 0000.0001)  ploadbar=  1.01043819599654E+05
 cg2d: Sum(rhs),rhsMax =  -6.04546077763088E+01  1.56857963318633E+00
(PID.TID 0000.0001)  ploadbar=  1.01043025332585E+05
 cg2d: Sum(rhs),rhsMax =  -6.08793255144025E+01  1.55704505300519E+00
(PID.TID 0000.0001)  ploadbar=  1.01042231065517E+05
 cg2d: Sum(rhs),rhsMax =  -6.13450382978820E+01  1.54458281965393E+00
(PID.TID 0000.0001)  ploadbar=  1.01041436798448E+05
 cg2d: Sum(rhs),rhsMax =  -6.18593310796342E+01  1.53116059926065E+00
(PID.TID 0000.0001)  ploadbar=  1.01040403991755E+05
 cg2d: Sum(rhs),rhsMax =  -6.23658009915391E+01  1.51820227138426E+00
(PID.TID 0000.0001)  ploadbar=  1.01039371185061E+05
 cg2d: Sum(rhs),rhsMax =  -6.28221219848865E+01  1.50670254423760E+00
(PID.TID 0000.0001)  ploadbar=  1.01038338378367E+05
 cg2d: Sum(rhs),rhsMax =  -6.32390006769214E+01  1.49634547782256E+00
(PID.TID 0000.0001)  ploadbar=  1.01037305571673E+05
 cg2d: Sum(rhs),rhsMax =  -6.36465702101588E+01  1.48638461048860E+00
(PID.TID 0000.0001)  ploadbar=  1.01036272764980E+05
 cg2d: Sum(rhs),rhsMax =  -6.40897499640951E+01  1.47577031884998E+00
(PID.TID 0000.0001)  ploadbar=  1.01035239958286E+05
 cg2d: Sum(rhs),rhsMax =  -6.45750338206269E+01  1.46432065602413E+00
(PID.TID 0000.0001)  ploadbar=  1.01034331151968E+05
 cg2d: Sum(rhs),rhsMax =  -6.51229820675997E+01  1.45161416256483E+00
(PID.TID 0000.0001)  ploadbar=  1.01033422345650E+05
 cg2d: Sum(rhs),rhsMax =  -6.46464109091801E+01  1.46189339800095E+00
(PID.TID 0000.0001)  ploadbar=  1.01032513539333E+05
 cg2d: Sum(rhs),rhsMax =  -6.38715599172258E+01  1.47916433601450E+00
(PID.TID 0000.0001)  ploadbar=  1.01031604733015E+05
 cg2d: Sum(rhs),rhsMax =  -6.32325232507938E+01  1.49360407570429E+00
(PID.TID 0000.0001)  ploadbar=  1.01030695926697E+05
 cg2d: Sum(rhs),rhsMax =  -6.27356148709077E+01  1.50487709221267E+00
(PID.TID 0000.0001)  ploadbar=  1.01029787120379E+05
 cg2d: Sum(rhs),rhsMax =  -6.23599258489846E+01  1.51340530259398E+00
(PID.TID 0000.0001)  ploadbar=  1.01029636507982E+05
 cg2d: Sum(rhs),rhsMax =  -6.20903517357463E+01  1.51945480511266E+00
(PID.TID 0000.0001)  ploadbar=  1.01029485895584E+05
 cg2d: Sum(rhs),rhsMax =  -6.18884870331808E+01  1.52390200471004E+00
(PID.TID 0000.0001)  ploadbar=  1.01029335283186E+05
 cg2d: Sum(rhs),rhsMax =  -6.17636810092029E+01  1.52647968739749E+00
(PID.TID 0000.0001)  ploadbar=  1.01029184670788E+05
 cg2d: Sum(rhs),rhsMax =  -6.17332909730183E+01  1.52673065897710E+00
(PID.TID 0000.0001)  ploadbar=  1.01029034058391E+05
 cg2d: Sum(rhs),rhsMax =  -6.17948434408578E+01  1.52470544106087E+00
(PID.TID 0000.0001)  ploadbar=  1.01028883445993E+05
 cg2d: Sum(rhs),rhsMax =  -6.18574313339999E+01  1.52264856935875E+00
(PID.TID 0000.0001)  ploadbar=  1.01028459848973E+05
 cg2d: Sum(rhs),rhsMax =  -6.18693492310039E+01  1.52182398746299E+00
(PID.TID 0000.0001)  ploadbar=  1.01028036251953E+05
 cg2d: Sum(rhs),rhsMax =  -6.18473121908984E+01  1.52181034258420E+00
(PID.TID 0000.0001)  ploadbar=  1.01027612654933E+05
 cg2d: Sum(rhs),rhsMax =  -6.18165357273474E+01  1.52198491597614E+00
(PID.TID 0000.0001)  ploadbar=  1.01027189057912E+05
 cg2d: Sum(rhs),rhsMax =  -6.18016809951594E+01  1.52173867027649E+00
(PID.TID 0000.0001)  ploadbar=  1.01026765460892E+05
 cg2d: Sum(rhs),rhsMax =  -6.18204539288338E+01  1.52062911271312E+00
(PID.TID 0000.0001)  ploadbar=  1.01026341863872E+05
 cg2d: Sum(rhs),rhsMax =  -6.18284163435832E+01  1.51982622522694E+00
(PID.TID 0000.0001)  ploadbar=  1.01026216747816E+05
 cg2d: Sum(rhs),rhsMax =  -6.17769221615169E+01  1.52052515068413E+00
(PID.TID 0000.0001)  ploadbar=  1.01026091631760E+05
 cg2d: Sum(rhs),rhsMax =  -6.19579570307184E+01  1.51555164505040E+00
(PID.TID 0000.0001)  ploadbar=  1.01025966515704E+05
 cg2d: Sum(rhs),rhsMax =  -6.24007083676606E+01  1.50430322746131E+00
(PID.TID 0000.0001)  ploadbar=  1.01025841399648E+05
 cg2d: Sum(rhs),rhsMax =  -6.28352412911549E+01  1.49343547355617E+00
(PID.TID 0000.0001)  ploadbar=  1.01025716283592E+05
 cg2d: Sum(rhs),rhsMax =  -6.32790244436639E+01  1.48252473968889E+00
(PID.TID 0000.0001)  ploadbar=  1.01025591167537E+05
 cg2d: Sum(rhs),rhsMax =  -6.37416129630794E+01  1.47133515214247E+00
(PID.TID 0000.0001)  ploadbar=  1.01026907586526E+05
 cg2d: Sum(rhs),rhsMax =  -6.42143612310470E+01  1.46007436916583E+00
(PID.TID 0000.0001)  ploadbar=  1.01028224005516E+05
 cg2d: Sum(rhs),rhsMax =  -6.46910589443798E+01  1.44888416839672E+00
(PID.TID 0000.0001)  ploadbar=  1.01029540424505E+05
 cg2d: Sum(rhs),rhsMax =  -6.51620060061843E+01  1.43797635091210E+00
(PID.TID 0000.0001)  ploadbar=  1.01030856843495E+05
 cg2d: Sum(rhs),rhsMax =  -6.56203182913792E+01  1.42748870925560E+00
(PID.TID 0000.0001)  ploadbar=  1.01032173262484E+05
 cg2d: Sum(rhs),rhsMax =  -6.60609216973809E+01  1.41751199597628E+00
(PID.TID 0000.0001)  ploadbar=  1.01033489681474E+05
 cg2d: Sum(rhs),rhsMax =  -6.64701032257503E+01  1.40833089629919E+00
(PID.TID 0000.0001)  ploadbar=  1.01034110115420E+05
 cg2d: Sum(rhs),rhsMax =  -6.65492232612484E+01  1.40619355428888E+00
(PID.TID 0000.0001)  ploadbar=  1.01034730549365E+05
 cg2d: Sum(rhs),rhsMax =  -6.66478212024713E+01  1.40363627820958E+00
(PID.TID 0000.0001)  ploadbar=  1.01035350983311E+05
 cg2d: Sum(rhs),rhsMax =  -6.68574957468399E+01  1.39873698735050E+00
(PID.TID 0000.0001)  ploadbar=  1.01035971417257E+05
 cg2d: Sum(rhs),rhsMax =  -6.71524062558430E+01  1.39207086844536E+00
(PID.TID 0000.0001)  ploadbar=  1.01036591851203E+05
 cg2d: Sum(rhs),rhsMax =  -6.75100953318215E+01  1.38414020419245E+00
(PID.TID 0000.0001)  ploadbar=  1.01037212285149E+05
 cg2d: Sum(rhs),rhsMax =  -6.78526519129222E+01  1.37658517073971E+00
(PID.TID 0000.0001)  ploadbar=  1.01037278496460E+05
 cg2d: Sum(rhs),rhsMax =  -6.81723175831135E+01  1.36954793446498E+00
(PID.TID 0000.0001)  ploadbar=  1.01037344707772E+05
 cg2d: Sum(rhs),rhsMax =  -6.84642090077767E+01  1.36310414366120E+00
(PID.TID 0000.0001)  ploadbar=  1.01037410919083E+05
 cg2d: Sum(rhs),rhsMax =  -6.87256893849668E+01  1.35728775759095E+00
(PID.TID 0000.0001)  ploadbar=  1.01037477130394E+05
 cg2d: Sum(rhs),rhsMax =  -6.89423139502450E+01  1.35236328128983E+00
(PID.TID 0000.0001)  ploadbar=  1.01037543341706E+05
 cg2d: Sum(rhs),rhsMax =  -6.91352175974090E+01  1.34789363888614E+00
(PID.TID 0000.0001)  ploadbar=  1.01037609553017E+05
 cg2d: Sum(rhs),rhsMax =  -6.92569416060167E+01  1.34487478726994E+00
(PID.TID 0000.0001)  ploadbar=  1.01036062398609E+05
 cg2d: Sum(rhs),rhsMax =  -6.94316739072334E+01  1.34088418495263E+00
(PID.TID 0000.0001)  ploadbar=  1.01034515244201E+05
 cg2d: Sum(rhs),rhsMax =  -6.96763301148042E+01  1.33560978423682E+00
(PID.TID 0000.0001)  ploadbar=  1.01032968089792E+05
 cg2d: Sum(rhs),rhsMax =  -7.00390432091036E+01  1.32816397043289E+00
(PID.TID 0000.0001)  ploadbar=  1.01031420935384E+05
 cg2d: Sum(rhs),rhsMax =  -7.06136543003175E+01  1.31686337481355E+00
(PID.TID 0000.0001)  ploadbar=  1.01029873780976E+05
 cg2d: Sum(rhs),rhsMax =  -7.13290013348769E+01  1.30319706679624E+00
(PID.TID 0000.0001)  ploadbar=  1.01028326626568E+05
 cg2d: Sum(rhs),rhsMax =  -7.07942039720759E+01  1.31259644468360E+00
(PID.TID 0000.0001)  ploadbar=  1.01028130041051E+05
 cg2d: Sum(rhs),rhsMax =  -7.02590863678410E+01  1.32215843071149E+00
(PID.TID 0000.0001)  ploadbar=  1.01027933455534E+05
 cg2d: Sum(rhs),rhsMax =  -6.97741101839070E+01  1.33092132062859E+00
(PID.TID 0000.0001)  ploadbar=  1.01027736870017E+05
 cg2d: Sum(rhs),rhsMax =  -6.93343943679357E+01  1.33893945060951E+00
(PID.TID 0000.0001)  ploadbar=  1.01027540284501E+05
 cg2d: Sum(rhs),rhsMax =  -6.89392772533134E+01  1.34618950304686E+00
(PID.TID 0000.0001)  ploadbar=  1.01027343698984E+05
 cg2d: Sum(rhs),rhsMax =  -6.85904407402166E+01  1.35260353426523E+00
(PID.TID 0000.0001)  ploadbar=  1.01027147113467E+05
 cg2d: Sum(rhs),rhsMax =  -6.88958430514529E+01  1.34618444430961E+00
(PID.TID 0000.0001)  ploadbar=  1.01025685098762E+05
 cg2d: Sum(rhs),rhsMax =  -6.98633495209782E+01  1.32712743482893E+00
(PID.TID 0000.0001)  ploadbar=  1.01024223084057E+05
 cg2d: Sum(rhs),rhsMax =  -7.09528708436497E+01  1.30634026827765E+00
(PID.TID 0000.0001)  ploadbar=  1.01022761069352E+05
 cg2d: Sum(rhs),rhsMax =  -7.21321957632964E+01  1.28457686597580E+00
(PID.TID 0000.0001)  ploadbar=  1.01021299054647E+05
 cg2d: Sum(rhs),rhsMax =  -7.33487255639466E+01  1.26286488450609E+00
(PID.TID 0000.0001)  ploadbar=  1.01019837039942E+05
 cg2d: Sum(rhs),rhsMax =  -7.45529256005720E+01  1.24205527096875E+00
(PID.TID 0000.0001)  ploadbar=  1.01018375025237E+05
 cg2d: Sum(rhs),rhsMax =  -7.56713850989633E+01  1.22329991507105E+00
(PID.TID 0000.0001)  ploadbar=  1.01017781457338E+05
 cg2d: Sum(rhs),rhsMax =  -7.66821856239516E+01  1.20678737132765E+00
(PID.TID 0000.0001)  ploadbar=  1.01017187889439E+05
 cg2d: Sum(rhs),rhsMax =  -7.61272015478085E+01  1.21519541336624E+00
(PID.TID 0000.0001)  ploadbar=  1.01016594321540E+05
 cg2d: Sum(rhs),rhsMax =  -7.56256935724911E+01  1.22285531246387E+00
(PID.TID 0000.0001)  ploadbar=  1.01016000753641E+05
 cg2d: Sum(rhs),rhsMax =  -7.46911844127737E+01  1.23773943692774E+00
(PID.TID 0000.0001)  ploadbar=  1.01015407185742E+05
 cg2d: Sum(rhs),rhsMax =  -7.36737573292040E+01  1.25439217002068E+00
(PID.TID 0000.0001)  ploadbar=  1.01014813617843E+05
 cg2d: Sum(rhs),rhsMax =  -7.27875847148927E+01  1.26926995415356E+00
(PID.TID 0000.0001)  ploadbar=  1.01012779750481E+05
 cg2d: Sum(rhs),rhsMax =  -7.19408901151722E+01  1.28385811265425E+00
(PID.TID 0000.0001)  ploadbar=  1.01010745883119E+05
 cg2d: Sum(rhs),rhsMax =  -7.12171112680647E+01  1.29659569722187E+00
(PID.TID 0000.0001)  ploadbar=  1.01008712015757E+05
 cg2d: Sum(rhs),rhsMax =  -7.06321864874827E+01  1.30705829187936E+00
(PID.TID 0000.0001)  ploadbar=  1.01006678148394E+05
 cg2d: Sum(rhs),rhsMax =  -7.01416223400786E+01  1.31595804399394E+00
(PID.TID 0000.0001)  ploadbar=  1.01004644281032E+05
 cg2d: Sum(rhs),rhsMax =  -6.97360231937537E+01  1.32340095205140E+00
(PID.TID 0000.0001)  ploadbar=  1.01002610413670E+05
 cg2d: Sum(rhs),rhsMax =  -6.94020766472074E+01  1.32954327014363E+00
(PID.TID 0000.0001)  ploadbar=  1.01001064189936E+05
 cg2d: Sum(rhs),rhsMax =  -6.91243199094736E+01  1.33464323077854E+00
(PID.TID 0000.0001)  ploadbar=  1.00999517966202E+05
 cg2d: Sum(rhs),rhsMax =  -6.88934587281749E+01  1.33885404100619E+00
(PID.TID 0000.0001)  ploadbar=  1.00997971742467E+05
 cg2d: Sum(rhs),rhsMax =  -6.87013578659069E+01  1.34231274752005E+00
(PID.TID 0000.0001)  ploadbar=  1.00996425518733E+05
 cg2d: Sum(rhs),rhsMax =  -6.85408985068391E+01  1.34514377831167E+00
(PID.TID 0000.0001)  ploadbar=  1.00994879294999E+05
 cg2d: Sum(rhs),rhsMax =  -6.84049437073988E+01  1.34747584818947E+00
(PID.TID 0000.0001)  ploadbar=  1.00993333071264E+05
 cg2d: Sum(rhs),rhsMax =  -6.83568632849371E+01  1.34808851812095E+00
(PID.TID 0000.0001)  ploadbar=  1.00992178829276E+05
 cg2d: Sum(rhs),rhsMax =  -6.83523560623054E+01  1.34784737819669E+00
(PID.TID 0000.0001)  ploadbar=  1.00991024587287E+05
 cg2d: Sum(rhs),rhsMax =  -6.83841792488110E+01  1.34689256005485E+00
(PID.TID 0000.0001)  ploadbar=  1.00989870345299E+05
 cg2d: Sum(rhs),rhsMax =  -6.84450564768254E+01  1.34536683164790E+00
(PID.TID 0000.0001)  ploadbar=  1.00988716103310E+05
 cg2d: Sum(rhs),rhsMax =  -6.89154139019122E+01  1.33585350016874E+00
(PID.TID 0000.0001)  ploadbar=  1.00987561861322E+05
 cg2d: Sum(rhs),rhsMax =  -6.90243703354221E+01  1.33340508073116E+00
(PID.TID 0000.0001)  ploadbar=  1.00986407619333E+05
 cg2d: Sum(rhs),rhsMax =  -6.86898496244342E+01  1.33949216811176E+00
(PID.TID 0000.0001)  ploadbar=  1.00984567320329E+05
 cg2d: Sum(rhs),rhsMax =  -6.83474631432804E+01  1.34572247635693E+00
(PID.TID 0000.0001)  ploadbar=  1.00982727021324E+05
 cg2d: Sum(rhs),rhsMax =  -6.80035225728189E+01  1.35196737088626E+00
(PID.TID 0000.0001)  ploadbar=  1.00980886722320E+05
 cg2d: Sum(rhs),rhsMax =  -6.73750203458326E+01  1.36392614062944E+00
(PID.TID 0000.0001)  ploadbar=  1.00979046423315E+05
 cg2d: Sum(rhs),rhsMax =  -6.63634011700100E+01  1.38396390417375E+00
(PID.TID 0000.0001)  ploadbar=  1.00977206124311E+05
 cg2d: Sum(rhs),rhsMax =  -6.54357395006017E+01  1.40272350483853E+00
(PID.TID 0000.0001)  ploadbar=  1.00975365825306E+05
 cg2d: Sum(rhs),rhsMax =  -6.45675925301370E+01  1.42079855403606E+00
(PID.TID 0000.0001)  ploadbar=  1.00975145213454E+05
 cg2d: Sum(rhs),rhsMax =  -6.37392844637657E+01  1.43855225897547E+00
(PID.TID 0000.0001)  ploadbar=  1.00974924601601E+05
 cg2d: Sum(rhs),rhsMax =  -6.29547121559359E+01  1.45584519141348E+00
(PID.TID 0000.0001)  ploadbar=  1.00974703989749E+05
 cg2d: Sum(rhs),rhsMax =  -6.22333640200674E+01  1.47215672892546E+00
(PID.TID 0000.0001)  ploadbar=  1.00974483377897E+05
 cg2d: Sum(rhs),rhsMax =  -6.15635624618101E+01  1.48767806877941E+00
(PID.TID 0000.0001)  ploadbar=  1.00974262766044E+05
 cg2d: Sum(rhs),rhsMax =  -6.09392110930266E+01  1.50248918699721E+00
(PID.TID 0000.0001)  ploadbar=  1.00974042154192E+05
 cg2d: Sum(rhs),rhsMax =  -6.03877974963357E+01  1.51576048787553E+00
(PID.TID 0000.0001)  ploadbar=  1.00975387966979E+05
 cg2d: Sum(rhs),rhsMax =  -5.99106254792365E+01  1.52736262953719E+00
(PID.TID 0000.0001)  ploadbar=  1.00976733779766E+05
 cg2d: Sum(rhs),rhsMax =  -5.95420637952310E+01  1.53631726415163E+00
(PID.TID 0000.0001)  ploadbar=  1.00978079592553E+05
 cg2d: Sum(rhs),rhsMax =  -5.93370982226940E+01  1.54109335448197E+00
(PID.TID 0000.0001)  ploadbar=  1.00979425405340E+05
 cg2d: Sum(rhs),rhsMax =  -5.92979448605831E+01  1.54154420995085E+00
(PID.TID 0000.0001)  ploadbar=  1.00980771218127E+05
 cg2d: Sum(rhs),rhsMax =  -5.94833473682958E+01  1.53613711292606E+00
(PID.TID 0000.0001)  ploadbar=  1.00982117030914E+05
 cg2d: Sum(rhs),rhsMax =  -5.97104970058350E+01  1.52970773481561E+00
(PID.TID 0000.0001)  ploadbar=  1.00984263034414E+05
 cg2d: Sum(rhs),rhsMax =  -5.99542204133909E+01  1.52291763282247E+00
(PID.TID 0000.0001)  ploadbar=  1.00986409037914E+05
 cg2d: Sum(rhs),rhsMax =  -6.01846050830603E+01  1.51652815155746E+00
(PID.TID 0000.0001)  ploadbar=  1.00988555041414E+05
 cg2d: Sum(rhs),rhsMax =  -6.03895139589974E+01  1.51082854970185E+00
(PID.TID 0000.0001)  ploadbar=  1.00990701044914E+05
 cg2d: Sum(rhs),rhsMax =  -6.05834413923213E+01  1.50543582949521E+00
(PID.TID 0000.0001)  ploadbar=  1.00992847048414E+05
 cg2d: Sum(rhs),rhsMax =  -6.07707599799582E+01  1.50023054030934E+00
(PID.TID 0000.0001)  ploadbar=  1.00994993051914E+05
 cg2d: Sum(rhs),rhsMax =  -6.09193991372401E+01  1.49596466960895E+00
(PID.TID 0000.0001)  ploadbar=  1.00996302107022E+05
 cg2d: Sum(rhs),rhsMax =  -6.10507983138071E+01  1.49209249613734E+00
(PID.TID 0000.0001)  ploadbar=  1.00997611162131E+05
 cg2d: Sum(rhs),rhsMax =  -6.11858667438485E+01  1.48809316413451E+00
(PID.TID 0000.0001)  ploadbar=  1.00998920217239E+05
 cg2d: Sum(rhs),rhsMax =  -6.13439642172607E+01  1.48349454344192E+00
(PID.TID 0000.0001)  ploadbar=  1.01000229272347E+05
 cg2d: Sum(rhs),rhsMax =  -6.15406100828127E+01  1.47792925544538E+00
(PID.TID 0000.0001)  ploadbar=  1.01001538327456E+05
 cg2d: Sum(rhs),rhsMax =  -6.17764467306728E+01  1.47139734259936E+00
(PID.TID 0000.0001)  ploadbar=  1.01002847382564E+05
 cg2d: Sum(rhs),rhsMax =  -6.19455905355303E+01  1.46657540706869E+00
(PID.TID 0000.0001)  ploadbar=  1.01003602346497E+05
 cg2d: Sum(rhs),rhsMax =  -6.20047670403941E+01  1.46445135966067E+00
(PID.TID 0000.0001)  ploadbar=  1.01004357310430E+05
 cg2d: Sum(rhs),rhsMax =  -6.19428868148251E+01  1.46526559155950E+00
(PID.TID 0000.0001)  ploadbar=  1.01005112274362E+05
 cg2d: Sum(rhs),rhsMax =  -6.18553249851502E+01  1.46675996835920E+00
(PID.TID 0000.0001)  ploadbar=  1.01005867238295E+05
 cg2d: Sum(rhs),rhsMax =  -6.17066950373113E+01  1.46977543787843E+00
(PID.TID 0000.0001)  ploadbar=  1.01006622202228E+05
 cg2d: Sum(rhs),rhsMax =  -6.15194140029265E+01  1.47379187839117E+00
(PID.TID 0000.0001)  ploadbar=  1.01007377166160E+05
 cg2d: Sum(rhs),rhsMax =  -6.13173867526470E+01  1.47817328713650E+00
(PID.TID 0000.0001)  ploadbar=  1.01007678338238E+05
 cg2d: Sum(rhs),rhsMax =  -6.10837996759636E+01  1.48332951178286E+00
(PID.TID 0000.0001)  ploadbar=  1.01007979510316E+05
 cg2d: Sum(rhs),rhsMax =  -6.07349040289840E+01  1.49132761673041E+00
(PID.TID 0000.0001)  ploadbar=  1.01008280682394E+05
 cg2d: Sum(rhs),rhsMax =  -6.04564235698239E+01  1.49764593818797E+00
(PID.TID 0000.0001)  ploadbar=  1.01008581854472E+05
 cg2d: Sum(rhs),rhsMax =  -6.02499079140980E+01  1.50219405773468E+00
(PID.TID 0000.0001)  ploadbar=  1.01008883026550E+05
 cg2d: Sum(rhs),rhsMax =  -6.01115625346556E+01  1.50503165304089E+00
(PID.TID 0000.0001)  ploadbar=  1.01009184198628E+05
 cg2d: Sum(rhs),rhsMax =  -6.00838464566926E+01  1.50513214121785E+00
(PID.TID 0000.0001)  ploadbar=  1.01010346408673E+05
 cg2d: Sum(rhs),rhsMax =  -6.01544016698235E+01  1.50279759375546E+00
(PID.TID 0000.0001)  ploadbar=  1.01011508618718E+05
 cg2d: Sum(rhs),rhsMax =  -6.03510468605102E+01  1.49735251787652E+00
(PID.TID 0000.0001)  ploadbar=  1.01012670828764E+05
 cg2d: Sum(rhs),rhsMax =  -6.06308018375887E+01  1.48991528901371E+00
(PID.TID 0000.0001)  ploadbar=  1.01013833038809E+05
 cg2d: Sum(rhs),rhsMax =  -6.09681009491472E+01  1.48116213624329E+00
(PID.TID 0000.0001)  ploadbar=  1.01014995248855E+05
 cg2d: Sum(rhs),rhsMax =  -6.13501778338987E+01  1.47144320611653E+00
(PID.TID 0000.0001)  ploadbar=  1.01016157458900E+05
 cg2d: Sum(rhs),rhsMax =  -6.17139885259538E+01  1.46224310456986E+00
(PID.TID 0000.0001)  ploadbar=  1.01016220913864E+05
 cg2d: Sum(rhs),rhsMax =  -6.20739850753370E+01  1.45320199067116E+00
(PID.TID 0000.0001)  ploadbar=  1.01016284368828E+05
 cg2d: Sum(rhs),rhsMax =  -6.24304968764332E+01  1.44430347142078E+00
(PID.TID 0000.0001)  ploadbar=  1.01016347823792E+05
 cg2d: Sum(rhs),rhsMax =  -6.27900511874204E+01  1.43539011919687E+00
(PID.TID 0000.0001)  ploadbar=  1.01016411278756E+05
 cg2d: Sum(rhs),rhsMax =  -6.27471811540598E+01  1.43567816014585E+00
(PID.TID 0000.0001)  ploadbar=  1.01016474733720E+05
 cg2d: Sum(rhs),rhsMax =  -6.25837216789550E+01  1.43868196993429E+00
(PID.TID 0000.0001)  ploadbar=  1.01016538188683E+05
 cg2d: Sum(rhs),rhsMax =  -6.24690146718196E+01  1.44066017079165E+00
(PID.TID 0000.0001)  ploadbar=  1.01016526352173E+05
 cg2d: Sum(rhs),rhsMax =  -6.24337803360032E+01  1.44089300422429E+00
(PID.TID 0000.0001)  ploadbar=  1.01016514515662E+05
 cg2d: Sum(rhs),rhsMax =  -6.25119443927288E+01  1.43858834479717E+00
(PID.TID 0000.0001)  ploadbar=  1.01016502679151E+05
 cg2d: Sum(rhs),rhsMax =  -6.25386937048036E+01  1.43754153164788E+00
(PID.TID 0000.0001)  ploadbar=  1.01016490842640E+05
 cg2d: Sum(rhs),rhsMax =  -6.25425995506603E+01  1.43708523967029E+00
(PID.TID 0000.0001)  ploadbar=  1.01016479006129E+05
 cg2d: Sum(rhs),rhsMax =  -6.25445091725980E+01  1.43673720603790E+00
(PID.TID 0000.0001)  ploadbar=  1.01016467169618E+05
 cg2d: Sum(rhs),rhsMax =  -6.24386465787104E+01  1.43882744800106E+00
(PID.TID 0000.0001)  ploadbar=  1.01016464372037E+05
 cg2d: Sum(rhs),rhsMax =  -6.22083434723035E+01  1.44376364549872E+00
(PID.TID 0000.0001)  ploadbar=  1.01016461574456E+05
 cg2d: Sum(rhs),rhsMax =  -6.19602878255061E+01  1.44910545609410E+00
(PID.TID 0000.0001)  ploadbar=  1.01016458776876E+05
 cg2d: Sum(rhs),rhsMax =  -6.17272069690352E+01  1.45409027065465E+00
(PID.TID 0000.0001)  ploadbar=  1.01016455979295E+05
 cg2d: Sum(rhs),rhsMax =  -6.15055713828012E+01  1.45879120624083E+00
(PID.TID 0000.0001)  ploadbar=  1.01016453181714E+05
 cg2d: Sum(rhs),rhsMax =  -6.13066370377118E+01  1.46293030145579E+00
(PID.TID 0000.0001)  ploadbar=  1.01016450384134E+05
 cg2d: Sum(rhs),rhsMax =  -6.11937094843334E+01  1.46504612481223E+00
(PID.TID 0000.0001)  ploadbar=  1.01016073625951E+05
 cg2d: Sum(rhs),rhsMax =  -6.08170487188158E+01  1.47354102098080E+00
(PID.TID 0000.0001)  ploadbar=  1.01015696867767E+05
 cg2d: Sum(rhs),rhsMax =  -6.03699421430469E+01  1.48387486270917E+00
(PID.TID 0000.0001)  ploadbar=  1.01015320109584E+05
 cg2d: Sum(rhs),rhsMax =  -5.99731841998785E+01  1.49310679069071E+00
(PID.TID 0000.0001)  ploadbar=  1.01014943351401E+05
 cg2d: Sum(rhs),rhsMax =  -5.96124625985941E+01  1.50154728213488E+00
(PID.TID 0000.0001)  ploadbar=  1.01014566593218E+05
 cg2d: Sum(rhs),rhsMax =  -5.93029518651772E+01  1.50877153058252E+00
(PID.TID 0000.0001)  ploadbar=  1.01014189835035E+05
 cg2d: Sum(rhs),rhsMax =  -5.90713102910753E+01  1.51399176924067E+00
(PID.TID 0000.0001)  ploadbar=  1.01014384518494E+05
 cg2d: Sum(rhs),rhsMax =  -5.89457190354902E+01  1.51643580008622E+00
(PID.TID 0000.0001)  ploadbar=  1.01014579201953E+05
 cg2d: Sum(rhs),rhsMax =  -5.89399883317566E+01  1.51571314753349E+00
(PID.TID 0000.0001)  ploadbar=  1.01014773885412E+05
 cg2d: Sum(rhs),rhsMax =  -5.90597112690259E+01  1.51167957865683E+00
(PID.TID 0000.0001)  ploadbar=  1.01014968568870E+05
 cg2d: Sum(rhs),rhsMax =  -5.93070009450079E+01  1.50432197824289E+00
(PID.TID 0000.0001)  ploadbar=  1.01015163252329E+05
 cg2d: Sum(rhs),rhsMax =  -5.96815584580962E+01  1.49373062521388E+00
(PID.TID 0000.0001)  ploadbar=  1.01015357935788E+05
 cg2d: Sum(rhs),rhsMax =  -6.01108029575939E+01  1.48201167837382E+00
(PID.TID 0000.0001)  ploadbar=  1.01017287262426E+05
 cg2d: Sum(rhs),rhsMax =  -6.05746656239967E+01  1.46970523398267E+00
(PID.TID 0000.0001)  ploadbar=  1.01019216589063E+05
 cg2d: Sum(rhs),rhsMax =  -6.10634269639587E+01  1.45707427331890E+00
(PID.TID 0000.0001)  ploadbar=  1.01021145915701E+05
 cg2d: Sum(rhs),rhsMax =  -6.15760929384739E+01  1.44415894129030E+00
(PID.TID 0000.0001)  ploadbar=  1.01023075242338E+05
 cg2d: Sum(rhs),rhsMax =  -6.21243883666582E+01  1.43070464141121E+00
(PID.TID 0000.0001)  ploadbar=  1.01025004568976E+05
 cg2d: Sum(rhs),rhsMax =  -6.27317939506670E+01  1.41621286133784E+00
(PID.TID 0000.0001)  ploadbar=  1.01026933895614E+05
 cg2d: Sum(rhs),rhsMax =  -6.33557980302564E+01  1.40162923630558E+00
(PID.TID 0000.0001)  ploadbar=  1.01027798362240E+05
 cg2d: Sum(rhs),rhsMax =  -6.40122683393755E+01  1.38661963496707E+00
(PID.TID 0000.0001)  ploadbar=  1.01028662828866E+05
 cg2d: Sum(rhs),rhsMax =  -6.47046953097699E+01  1.37114224034684E+00
(PID.TID 0000.0001)  ploadbar=  1.01029527295493E+05
 cg2d: Sum(rhs),rhsMax =  -6.54390482330745E+01  1.35510933698232E+00
(PID.TID 0000.0001)  ploadbar=  1.01030391762119E+05
 cg2d: Sum(rhs),rhsMax =  -6.62147139206176E+01  1.33857865973254E+00
(PID.TID 0000.0001)  ploadbar=  1.01031256228745E+05
 cg2d: Sum(rhs),rhsMax =  -6.70259561576197E+01  1.32170672655402E+00
(PID.TID 0000.0001)  ploadbar=  1.01032120695372E+05
 cg2d: Sum(rhs),rhsMax =  -6.78576761760011E+01  1.30485796512912E+00
(PID.TID 0000.0001)  ploadbar=  1.01032101010373E+05
 cg2d: Sum(rhs),rhsMax =  -6.87182079394988E+01  1.28788619488112E+00
(PID.TID 0000.0001)  ploadbar=  1.01032081325374E+05
 cg2d: Sum(rhs),rhsMax =  -6.95955678893400E+01  1.27102936633259E+00
(PID.TID 0000.0001)  ploadbar=  1.01032061640376E+05
 cg2d: Sum(rhs),rhsMax =  -7.05052585864046E+01  1.25401044348060E+00
(PID.TID 0000.0001)  ploadbar=  1.01032041955377E+05
 cg2d: Sum(rhs),rhsMax =  -7.14352963068087E+01  1.23705901892581E+00
(PID.TID 0000.0001)  ploadbar=  1.01032022270379E+05
 cg2d: Sum(rhs),rhsMax =  -7.23805947966115E+01  1.22026510134390E+00
(PID.TID 0000.0001)  ploadbar=  1.01032002585380E+05
 cg2d: Sum(rhs),rhsMax =  -7.33316660862774E+01  1.20379468081800E+00
(PID.TID 0000.0001)  ploadbar=  1.01031874190494E+05
 cg2d: Sum(rhs),rhsMax =  -7.38301959574445E+01  1.19500760103856E+00
(PID.TID 0000.0001)  ploadbar=  1.01031745795609E+05
 cg2d: Sum(rhs),rhsMax =  -7.35922322062717E+01  1.19818650247742E+00
(PID.TID 0000.0001)  ploadbar=  1.01031617400723E+05
 cg2d: Sum(rhs),rhsMax =  -7.33501817943493E+01  1.20142340381949E+00
(PID.TID 0000.0001)  ploadbar=  1.01031489005837E+05
 cg2d: Sum(rhs),rhsMax =  -7.31033998513639E+01  1.20472511688684E+00
(PID.TID 0000.0001)  ploadbar=  1.01031360610952E+05
 cg2d: Sum(rhs),rhsMax =  -7.28514200152750E+01  1.20809482816272E+00
(PID.TID 0000.0001)  ploadbar=  1.01031232216066E+05
 cg2d: Sum(rhs),rhsMax =  -7.26110802055517E+01  1.21135560789374E+00
(PID.TID 0000.0001)  ploadbar=  1.01030705536192E+05
 cg2d: Sum(rhs),rhsMax =  -7.23767418516996E+01  1.21459841868556E+00
(PID.TID 0000.0001)  ploadbar=  1.01030178856319E+05
 cg2d: Sum(rhs),rhsMax =  -7.21449536957785E+01  1.21787927711366E+00
(PID.TID 0000.0001)  ploadbar=  1.01029652176445E+05
 cg2d: Sum(rhs),rhsMax =  -7.19199894110104E+01  1.22112005899517E+00
(PID.TID 0000.0001)  ploadbar=  1.01029125496571E+05
 cg2d: Sum(rhs),rhsMax =  -7.17021226035625E+01  1.22430946037938E+00
(PID.TID 0000.0001)  ploadbar=  1.01028598816697E+05
 cg2d: Sum(rhs),rhsMax =  -7.14906113172448E+01  1.22745633159149E+00
(PID.TID 0000.0001)  ploadbar=  1.01028072136824E+05
 cg2d: Sum(rhs),rhsMax =  -7.12894701840957E+01  1.23044185569101E+00
(PID.TID 0000.0001)  ploadbar=  1.01027692275503E+05
 cg2d: Sum(rhs),rhsMax =  -7.10989553202080E+01  1.23325509574865E+00
(PID.TID 0000.0001)  ploadbar=  1.01027312414182E+05
 cg2d: Sum(rhs),rhsMax =  -7.09114208498876E+01  1.23601896559550E+00
(PID.TID 0000.0001)  ploadbar=  1.01026932552861E+05
 cg2d: Sum(rhs),rhsMax =  -7.07262039193692E+01  1.23874067251641E+00
(PID.TID 0000.0001)  ploadbar=  1.01026552691540E+05
 cg2d: Sum(rhs),rhsMax =  -7.05456020428147E+01  1.24137357068280E+00
(PID.TID 0000.0001)  ploadbar=  1.01026172830219E+05
 cg2d: Sum(rhs),rhsMax =  -7.03688042182487E+01  1.24392357550426E+00
(PID.TID 0000.0001)  ploadbar=  1.01025792968898E+05
 cg2d: Sum(rhs),rhsMax =  -7.01821288533826E+01  1.24667205171119E+00
(PID.TID 0000.0001)  ploadbar=  1.01024552631051E+05
 cg2d: Sum(rhs),rhsMax =  -6.99976512748740E+01  1.24940240683055E+00
(PID.TID 0000.0001)  ploadbar=  1.01023312293204E+05
 cg2d: Sum(rhs),rhsMax =  -6.98186216135394E+01  1.25204923252125E+00
(PID.TID 0000.0001)  ploadbar=  1.01022071955357E+05
 cg2d: Sum(rhs),rhsMax =  -6.96406107995864E+01  1.25468651239320E+00
(PID.TID 0000.0001)  ploadbar=  1.01020831617509E+05
 cg2d: Sum(rhs),rhsMax =  -6.94641319022243E+01  1.25730155035006E+00
(PID.TID 0000.0001)  ploadbar=  1.01019591279662E+05
 cg2d: Sum(rhs),rhsMax =  -6.92883962586995E+01  1.25990336993691E+00
(PID.TID 0000.0001)  ploadbar=  1.01018350941815E+05
 cg2d: Sum(rhs),rhsMax =  -6.91196246425713E+01  1.26238122894923E+00
(PID.TID 0000.0001)  ploadbar=  1.01018751714842E+05
 cg2d: Sum(rhs),rhsMax =  -6.89529798992878E+01  1.26481704328959E+00
(PID.TID 0000.0001)  ploadbar=  1.01019152487869E+05
 cg2d: Sum(rhs),rhsMax =  -6.87881450378048E+01  1.26721162775615E+00
(PID.TID 0000.0001)  ploadbar=  1.01019553260897E+05
 cg2d: Sum(rhs),rhsMax =  -6.86231287553347E+01  1.26959251224984E+00
(PID.TID 0000.0001)  ploadbar=  1.01019954033924E+05
 cg2d: Sum(rhs),rhsMax =  -6.84574289072629E+01  1.27196375494382E+00
(PID.TID 0000.0001)  ploadbar=  1.01020354806951E+05
 cg2d: Sum(rhs),rhsMax =  -6.82903869562379E+01  1.27433211479190E+00
(PID.TID 0000.0001)  ploadbar=  1.01020755579978E+05
 cg2d: Sum(rhs),rhsMax =  -6.77982403144802E+01  1.28290269145451E+00
(PID.TID 0000.0001)  ploadbar=  1.01019510264387E+05
 cg2d: Sum(rhs),rhsMax =  -6.68355022213469E+01  1.30075910882103E+00
(PID.TID 0000.0001)  ploadbar=  1.01018264948796E+05
 cg2d: Sum(rhs),rhsMax =  -6.55686955425413E+01  1.32531673452093E+00
(PID.TID 0000.0001)  ploadbar=  1.01017019633205E+05
 cg2d: Sum(rhs),rhsMax =  -6.41002343242581E+01  1.35514744902309E+00
(PID.TID 0000.0001)  ploadbar=  1.01015774317614E+05
 cg2d: Sum(rhs),rhsMax =  -6.25845273145618E+01  1.38747766023966E+00
(PID.TID 0000.0001)  ploadbar=  1.01014529002023E+05
 cg2d: Sum(rhs),rhsMax =  -6.10361139209944E+01  1.42221940020395E+00
(PID.TID 0000.0001)  ploadbar=  1.01013283686432E+05
 cg2d: Sum(rhs),rhsMax =  -5.97519196619914E+01  1.45229953388440E+00
(PID.TID 0000.0001)  ploadbar=  1.01011703777050E+05
 cg2d: Sum(rhs),rhsMax =  -5.87001778498379E+01  1.47780381698503E+00
(PID.TID 0000.0001)  ploadbar=  1.01010123867667E+05
 cg2d: Sum(rhs),rhsMax =  -5.73644554962601E+01  1.51166469489590E+00
(PID.TID 0000.0001)  ploadbar=  1.01008543958284E+05
 cg2d: Sum(rhs),rhsMax =  -5.59032981861127E+01  1.55058525135516E+00
(PID.TID 0000.0001)  ploadbar=  1.01006964048902E+05
 cg2d: Sum(rhs),rhsMax =  -5.47293250710411E+01  1.58321681201072E+00
(PID.TID 0000.0001)  ploadbar=  1.01005384139519E+05
 cg2d: Sum(rhs),rhsMax =  -5.38319585823865E+01  1.60893568350975E+00
(PID.TID 0000.0001)  ploadbar=  1.01003804230136E+05
 cg2d: Sum(rhs),rhsMax =  -5.31282766681180E+01  1.62955863620799E+00
(PID.TID 0000.0001)  ploadbar=  1.01001571121170E+05
 cg2d: Sum(rhs),rhsMax =  -5.25908720515984E+01  1.64550374650364E+00
(PID.TID 0000.0001)  ploadbar=  1.00999338012204E+05
 cg2d: Sum(rhs),rhsMax =  -5.21962289565450E+01  1.65721169063734E+00
(PID.TID 0000.0001)  ploadbar=  1.00997104903238E+05
 cg2d: Sum(rhs),rhsMax =  -5.19217182630865E+01  1.66520734563315E+00
(PID.TID 0000.0001)  ploadbar=  1.00994871794272E+05
 cg2d: Sum(rhs),rhsMax =  -5.17406547170888E+01  1.67022904655428E+00
(PID.TID 0000.0001)  ploadbar=  1.00992638685305E+05
 cg2d: Sum(rhs),rhsMax =  -5.16256304928490E+01  1.67309828676558E+00
(PID.TID 0000.0001)  ploadbar=  1.00990405576339E+05
 cg2d: Sum(rhs),rhsMax =  -5.15165740830916E+01  1.67576725767007E+00
(PID.TID 0000.0001)  ploadbar=  1.00989598455810E+05
 cg2d: Sum(rhs),rhsMax =  -5.14174203866410E+01  1.67810293026807E+00
(PID.TID 0000.0001)  ploadbar=  1.00988791335281E+05
 cg2d: Sum(rhs),rhsMax =  -5.07440228889753E+01  1.69943309200585E+00
(PID.TID 0000.0001)  ploadbar=  1.00987984214751E+05
 cg2d: Sum(rhs),rhsMax =  -5.00210449627291E+01  1.72300381797929E+00
(PID.TID 0000.0001)  ploadbar=  1.00987177094222E+05
 cg2d: Sum(rhs),rhsMax =  -4.95234967574162E+01  1.73926803844071E+00
(PID.TID 0000.0001)  ploadbar=  1.00986369973693E+05
 cg2d: Sum(rhs),rhsMax =  -4.92192974390497E+01  1.74891001150820E+00
(PID.TID 0000.0001)  ploadbar=  1.00985562853164E+05
 cg2d: Sum(rhs),rhsMax =  -4.89568656689610E+01  1.75726275076330E+00
(PID.TID 0000.0001)  ploadbar=  1.00985926816625E+05
 cg2d: Sum(rhs),rhsMax =  -4.87944751055116E+01  1.76217402704232E+00
(PID.TID 0000.0001)  ploadbar=  1.00986290780086E+05
 cg2d: Sum(rhs),rhsMax =  -4.87007576075617E+01  1.76470850075772E+00
(PID.TID 0000.0001)  ploadbar=  1.00986654743547E+05
 cg2d: Sum(rhs),rhsMax =  -4.86595099410981E+01  1.76542234942987E+00
(PID.TID 0000.0001)  ploadbar=  1.00987018707007E+05
 cg2d: Sum(rhs),rhsMax =  -4.86652628147765E+01  1.76450221434363E+00
(PID.TID 0000.0001)  ploadbar=  1.00987382670468E+05
 cg2d: Sum(rhs),rhsMax =  -4.87203292405481E+01  1.76186253814920E+00
(PID.TID 0000.0001)  ploadbar=  1.00987746633929E+05
 cg2d: Sum(rhs),rhsMax =  -4.88035800271636E+01  1.75819773947356E+00
(PID.TID 0000.0001)  ploadbar=  1.00988892783922E+05
 cg2d: Sum(rhs),rhsMax =  -4.88875998112359E+01  1.75449436043942E+00
(PID.TID 0000.0001)  ploadbar=  1.00990038933915E+05
 cg2d: Sum(rhs),rhsMax =  -4.89906244195046E+01  1.75009418785424E+00
(PID.TID 0000.0001)  ploadbar=  1.00991185083907E+05
 cg2d: Sum(rhs),rhsMax =  -4.95338466694412E+01  1.73016466552068E+00
(PID.TID 0000.0001)  ploadbar=  1.00992331233900E+05
 cg2d: Sum(rhs),rhsMax =  -5.01327793326383E+01  1.70872741530115E+00
(PID.TID 0000.0001)  ploadbar=  1.00993477383892E+05
 cg2d: Sum(rhs),rhsMax =  -5.07895093178637E+01  1.68583551929149E+00
(PID.TID 0000.0001)  ploadbar=  1.00994623533885E+05
 cg2d: Sum(rhs),rhsMax =  -5.15493688963154E+01  1.66021436177303E+00
(PID.TID 0000.0001)  ploadbar=  1.00994863360263E+05
 cg2d: Sum(rhs),rhsMax =  -5.18690534334694E+01  1.64922332177446E+00
(PID.TID 0000.0001)  ploadbar=  1.00995103186641E+05
 cg2d: Sum(rhs),rhsMax =  -5.18152289081443E+01  1.65018252540641E+00
(PID.TID 0000.0001)  ploadbar=  1.00995343013020E+05
 cg2d: Sum(rhs),rhsMax =  -5.17772145510254E+01  1.65063797721056E+00
(PID.TID 0000.0001)  ploadbar=  1.00995582839398E+05
 cg2d: Sum(rhs),rhsMax =  -5.17740042939960E+01  1.64997681470429E+00
(PID.TID 0000.0001)  ploadbar=  1.00995822665776E+05
 cg2d: Sum(rhs),rhsMax =  -5.18010462620389E+01  1.64833704921540E+00
(PID.TID 0000.0001)  ploadbar=  1.00996062492154E+05
 cg2d: Sum(rhs),rhsMax =  -5.19415778240432E+01  1.64306742267354E+00
(PID.TID 0000.0001)  ploadbar=  1.00996889994310E+05
 cg2d: Sum(rhs),rhsMax =  -5.21933280478800E+01  1.63429379497046E+00
(PID.TID 0000.0001)  ploadbar=  1.00997717496466E+05
 cg2d: Sum(rhs),rhsMax =  -5.25481761940002E+01  1.62236577545575E+00
(PID.TID 0000.0001)  ploadbar=  1.00998544998621E+05
 cg2d: Sum(rhs),rhsMax =  -5.29119423511063E+01  1.61026644953367E+00
(PID.TID 0000.0001)  ploadbar=  1.00999372500777E+05
 cg2d: Sum(rhs),rhsMax =  -5.32760355592875E+01  1.59825411400410E+00
(PID.TID 0000.0001)  ploadbar=  1.01000200002933E+05
 cg2d: Sum(rhs),rhsMax =  -5.36693643765068E+01  1.58546668243203E+00
(PID.TID 0000.0001)  ploadbar=  1.01001027505089E+05
 cg2d: Sum(rhs),rhsMax =  -5.42650526067355E+01  1.56709167199754E+00
(PID.TID 0000.0001)  ploadbar=  1.01002946391343E+05
 cg2d: Sum(rhs),rhsMax =  -5.50804351672957E+01  1.54302751449727E+00
(PID.TID 0000.0001)  ploadbar=  1.01004865277598E+05
 cg2d: Sum(rhs),rhsMax =  -5.61364466393781E+01  1.51323589035861E+00
(PID.TID 0000.0001)  ploadbar=  1.01006784163853E+05
 cg2d: Sum(rhs),rhsMax =  -5.74399001545675E+01  1.47822837142101E+00
(PID.TID 0000.0001)  ploadbar=  1.01008703050108E+05
 cg2d: Sum(rhs),rhsMax =  -5.89896011727458E+01  1.43881666361662E+00
(PID.TID 0000.0001)  ploadbar=  1.01010621936362E+05
 cg2d: Sum(rhs),rhsMax =  -6.07911112999958E+01  1.39568051473851E+00
(PID.TID 0000.0001)  ploadbar=  1.01012540822617E+05
 cg2d: Sum(rhs),rhsMax =  -6.24355104234811E+01  1.35841884170670E+00
(PID.TID 0000.0001)  ploadbar=  1.01013324178109E+05
 cg2d: Sum(rhs),rhsMax =  -6.39990729878019E+01  1.32471788940432E+00
(PID.TID 0000.0001)  ploadbar=  1.01014107533602E+05
 cg2d: Sum(rhs),rhsMax =  -6.54041572299805E+01  1.29573123776019E+00
(PID.TID 0000.0001)  ploadbar=  1.01014890889094E+05
 cg2d: Sum(rhs),rhsMax =  -6.67293356383487E+01  1.26945239229490E+00
(PID.TID 0000.0001)  ploadbar=  1.01015674244586E+05
 cg2d: Sum(rhs),rhsMax =  -6.80952330423418E+01  1.24342103583380E+00
(PID.TID 0000.0001)  ploadbar=  1.01016457600079E+05
 cg2d: Sum(rhs),rhsMax =  -6.94530577107950E+01  1.21852083343667E+00
(PID.TID 0000.0001)  ploadbar=  1.01017240955571E+05
 cg2d: Sum(rhs),rhsMax =  -6.94682093070050E+01  1.21768025064278E+00
(PID.TID 0000.0001)  ploadbar=  1.01017399538700E+05
 cg2d: Sum(rhs),rhsMax =  -6.93335462626666E+01  1.21948564989261E+00
(PID.TID 0000.0001)  ploadbar=  1.01017558121830E+05
 cg2d: Sum(rhs),rhsMax =  -6.91311432592707E+01  1.22250763928889E+00
(PID.TID 0000.0001)  ploadbar=  1.01017716704960E+05
 cg2d: Sum(rhs),rhsMax =  -6.89160306914863E+01  1.22578166098253E+00
(PID.TID 0000.0001)  ploadbar=  1.01017875288089E+05
 cg2d: Sum(rhs),rhsMax =  -6.88539718259528E+01  1.22635078960223E+00
(PID.TID 0000.0001)  ploadbar=  1.01018033871219E+05
 cg2d: Sum(rhs),rhsMax =  -6.91149228700040E+01  1.22119129073390E+00
(PID.TID 0000.0001)  ploadbar=  1.01018192454348E+05
 cg2d: Sum(rhs),rhsMax =  -6.98118757762394E+01  1.20848233983578E+00
(PID.TID 0000.0001)  ploadbar=  1.01018855723494E+05
 cg2d: Sum(rhs),rhsMax =  -7.07304061554796E+01  1.19227868663145E+00
(PID.TID 0000.0001)  ploadbar=  1.01019518992639E+05
 cg2d: Sum(rhs),rhsMax =  -7.16767051746275E+01  1.17602927056407E+00
(PID.TID 0000.0001)  ploadbar=  1.01020182261785E+05
 cg2d: Sum(rhs),rhsMax =  -7.24837937419194E+01  1.16241919535957E+00
(PID.TID 0000.0001)  ploadbar=  1.01020845530931E+05
 cg2d: Sum(rhs),rhsMax =  -7.32343796225931E+01  1.14998017268194E+00
(PID.TID 0000.0001)  ploadbar=  1.01021508800076E+05
 cg2d: Sum(rhs),rhsMax =  -7.39979534580790E+01  1.13757616309363E+00
(PID.TID 0000.0001)  ploadbar=  1.01022172069222E+05
 cg2d: Sum(rhs),rhsMax =  -7.48119874790553E+01  1.12470753368542E+00
(PID.TID 0000.0001)  ploadbar=  1.01021569659015E+05
 cg2d: Sum(rhs),rhsMax =  -7.56368728514598E+01  1.11199490579191E+00
(PID.TID 0000.0001)  ploadbar=  1.01020967248808E+05
 cg2d: Sum(rhs),rhsMax =  -7.64544729438221E+01  1.09969554297222E+00
(PID.TID 0000.0001)  ploadbar=  1.01020364838602E+05
 cg2d: Sum(rhs),rhsMax =  -7.72630889115404E+01  1.08781437115655E+00
(PID.TID 0000.0001)  ploadbar=  1.01019762428395E+05
 cg2d: Sum(rhs),rhsMax =  -7.80286546866802E+01  1.07680213875672E+00
(PID.TID 0000.0001)  ploadbar=  1.01019160018188E+05
 cg2d: Sum(rhs),rhsMax =  -7.85533263210077E+01  1.06929778485435E+00
(PID.TID 0000.0001)  ploadbar=  1.01018557607981E+05
 cg2d: Sum(rhs),rhsMax =  -7.80718070354736E+01  1.07557533955633E+00
(PID.TID 0000.0001)  ploadbar=  1.01018327185611E+05
 cg2d: Sum(rhs),rhsMax =  -7.75804188896502E+01  1.08206228717460E+00
(PID.TID 0000.0001)  ploadbar=  1.01018096763241E+05
 cg2d: Sum(rhs),rhsMax =  -7.70990249311893E+01  1.08848208679602E+00
(PID.TID 0000.0001)  ploadbar=  1.01017866340871E+05
 cg2d: Sum(rhs),rhsMax =  -7.66430060354604E+01  1.09460847314540E+00
(PID.TID 0000.0001)  ploadbar=  1.01017635918501E+05
 cg2d: Sum(rhs),rhsMax =  -7.62187521891869E+01  1.10033340668627E+00
(PID.TID 0000.0001)  ploadbar=  1.01017405496131E+05
 cg2d: Sum(rhs),rhsMax =  -7.58290237068409E+01  1.10559771763467E+00
(PID.TID 0000.0001)  ploadbar=  1.01017175073761E+05
 cg2d: Sum(rhs),rhsMax =  -7.54879303186860E+01  1.11023830974910E+00
(PID.TID 0000.0001)  ploadbar=  1.01016921467923E+05
 cg2d: Sum(rhs),rhsMax =  -7.51830763454223E+01  1.11441554301809E+00
(PID.TID 0000.0001)  ploadbar=  1.01016667862085E+05
 cg2d: Sum(rhs),rhsMax =  -7.49047198589178E+01  1.11825702977079E+00
(PID.TID 0000.0001)  ploadbar=  1.01016414256248E+05
 cg2d: Sum(rhs),rhsMax =  -7.46476386558197E+01  1.12182888521629E+00
(PID.TID 0000.0001)  ploadbar=  1.01016160650410E+05
 cg2d: Sum(rhs),rhsMax =  -7.44042057214772E+01  1.12523817035055E+00
(PID.TID 0000.0001)  ploadbar=  1.01015907044572E+05
 cg2d: Sum(rhs),rhsMax =  -7.41717563476044E+01  1.12851876805298E+00
(PID.TID 0000.0001)  ploadbar=  1.01015653438734E+05
 cg2d: Sum(rhs),rhsMax =  -7.39588793233944E+01  1.13149446288123E+00
(PID.TID 0000.0001)  ploadbar=  1.01015340709851E+05
 cg2d: Sum(rhs),rhsMax =  -7.37654799448574E+01  1.13415694447929E+00
(PID.TID 0000.0001)  ploadbar=  1.01015027980967E+05
 cg2d: Sum(rhs),rhsMax =  -7.35978851315672E+01  1.13639954711085E+00
(PID.TID 0000.0001)  ploadbar=  1.01014715252083E+05
 cg2d: Sum(rhs),rhsMax =  -7.34577686918879E+01  1.13818606144735E+00
(PID.TID 0000.0001)  ploadbar=  1.01014402523199E+05
 cg2d: Sum(rhs),rhsMax =  -7.33403126602739E+01  1.13957940386536E+00
(PID.TID 0000.0001)  ploadbar=  1.01014089794315E+05
 cg2d: Sum(rhs),rhsMax =  -7.32504263993063E+01  1.14049711979027E+00
(PID.TID 0000.0001)  ploadbar=  1.01013777065431E+05
 cg2d: Sum(rhs),rhsMax =  -7.31995961540443E+01  1.14085307745016E+00
(PID.TID 0000.0001)  ploadbar=  1.01011683268199E+05
 cg2d: Sum(rhs),rhsMax =  -7.31806078198861E+01  1.14075459924326E+00
(PID.TID 0000.0001)  ploadbar=  1.01009589470967E+05
 cg2d: Sum(rhs),rhsMax =  -7.31929942118315E+01  1.14020407685177E+00
(PID.TID 0000.0001)  ploadbar=  1.01007495673734E+05
 cg2d: Sum(rhs),rhsMax =  -7.32348395145952E+01  1.13922914268748E+00
(PID.TID 0000.0001)  ploadbar=  1.01005401876502E+05
 cg2d: Sum(rhs),rhsMax =  -7.32998771583873E+01  1.13792782685786E+00
(PID.TID 0000.0001)  ploadbar=  1.01003308079269E+05
 cg2d: Sum(rhs),rhsMax =  -7.33901245199975E+01  1.13626931422977E+00
(PID.TID 0000.0001)  ploadbar=  1.01001214282037E+05
 cg2d: Sum(rhs),rhsMax =  -7.34926588019551E+01  1.13441651858475E+00
(PID.TID 0000.0001)  ploadbar=  1.01000538071634E+05
 cg2d: Sum(rhs),rhsMax =  -7.36194625935743E+01  1.13218464895197E+00
(PID.TID 0000.0001)  ploadbar=  1.00999861861231E+05
 cg2d: Sum(rhs),rhsMax =  -7.37775570045372E+01  1.12946826401206E+00
(PID.TID 0000.0001)  ploadbar=  1.00999185650828E+05
 cg2d: Sum(rhs),rhsMax =  -7.39735041801922E+01  1.12616915635349E+00
(PID.TID 0000.0001)  ploadbar=  1.00998509440425E+05
 cg2d: Sum(rhs),rhsMax =  -7.42184749334713E+01  1.12212277783036E+00
(PID.TID 0000.0001)  ploadbar=  1.00997833230022E+05
 cg2d: Sum(rhs),rhsMax =  -7.45328660416014E+01  1.11703459826311E+00
(PID.TID 0000.0001)  ploadbar=  1.00997157019619E+05
 cg2d: Sum(rhs),rhsMax =  -7.49304311739889E+01  1.11078365163277E+00
(PID.TID 0000.0001)  ploadbar=  1.00997155143457E+05
 cg2d: Sum(rhs),rhsMax =  -7.54076952960111E+01  1.10345724642674E+00
(PID.TID 0000.0001)  ploadbar=  1.00997153267296E+05
 cg2d: Sum(rhs),rhsMax =  -7.59712000191474E+01  1.09500053906209E+00
(PID.TID 0000.0001)  ploadbar=  1.00997151391135E+05
 cg2d: Sum(rhs),rhsMax =  -7.66291243643132E+01  1.08535013781155E+00
(PID.TID 0000.0001)  ploadbar=  1.00997149514974E+05
 cg2d: Sum(rhs),rhsMax =  -7.73867592207859E+01  1.07449615740322E+00
(PID.TID 0000.0001)  ploadbar=  1.00997147638813E+05
 cg2d: Sum(rhs),rhsMax =  -7.82450672522186E+01  1.06249840280449E+00
(PID.TID 0000.0001)  ploadbar=  1.00997145762652E+05
 cg2d: Sum(rhs),rhsMax =  -7.91361085584604E+01  1.05031704281352E+00
(PID.TID 0000.0001)  ploadbar=  1.00996845375735E+05
 cg2d: Sum(rhs),rhsMax =  -8.00367913885109E+01  1.03826740508226E+00
(PID.TID 0000.0001)  ploadbar=  1.00996544988818E+05
 cg2d: Sum(rhs),rhsMax =  -8.09440156626029E+01  1.02638457504315E+00
(PID.TID 0000.0001)  ploadbar=  1.00996244601901E+05
 cg2d: Sum(rhs),rhsMax =  -8.18698569507328E+01  1.01451346585638E+00
(PID.TID 0000.0001)  ploadbar=  1.00995944214983E+05
 cg2d: Sum(rhs),rhsMax =  -8.28305002762408E+01  1.00246264658665E+00
(PID.TID 0000.0001)  ploadbar=  1.00995643828066E+05
 cg2d: Sum(rhs),rhsMax =  -8.38651809774031E+01  9.89787286874171E-01
(PID.TID 0000.0001)  ploadbar=  1.00995343441149E+05
 cg2d: Sum(rhs),rhsMax =  -8.49466436941597E+01  9.76910868150103E-01
(PID.TID 0000.0001)  ploadbar=  1.00995726503369E+05
 cg2d: Sum(rhs),rhsMax =  -8.40517414664858E+01  9.87060316563176E-01
(PID.TID 0000.0001)  ploadbar=  1.00996109565589E+05
 cg2d: Sum(rhs),rhsMax =  -8.28389584435668E+01  1.00127900251983E+00
(PID.TID 0000.0001)  ploadbar=  1.00996492627809E+05
 cg2d: Sum(rhs),rhsMax =  -8.17005808203391E+01  1.01501476680599E+00
(PID.TID 0000.0001)  ploadbar=  1.00996875690029E+05
 cg2d: Sum(rhs),rhsMax =  -8.07130888725717E+01  1.02723254139454E+00
(PID.TID 0000.0001)  ploadbar=  1.00997258752249E+05
 cg2d: Sum(rhs),rhsMax =  -7.99131201037812E+01  1.03732834685183E+00
(PID.TID 0000.0001)  ploadbar=  1.00997641814469E+05
 cg2d: Sum(rhs),rhsMax =  -7.92136227883275E+01  1.04629177745804E+00
(PID.TID 0000.0001)  ploadbar=  1.00998827148374E+05
 cg2d: Sum(rhs),rhsMax =  -7.86428870131910E+01  1.05367626208109E+00
(PID.TID 0000.0001)  ploadbar=  1.01000012482280E+05
 cg2d: Sum(rhs),rhsMax =  -7.81786669711014E+01  1.05970953300635E+00
(PID.TID 0000.0001)  ploadbar=  1.01001197816185E+05
 cg2d: Sum(rhs),rhsMax =  -7.76498655926017E+01  1.06668471947628E+00
(PID.TID 0000.0001)  ploadbar=  1.01002383150090E+05
 cg2d: Sum(rhs),rhsMax =  -7.70266505266500E+01  1.07504983015779E+00
(PID.TID 0000.0001)  ploadbar=  1.01003568483995E+05
 cg2d: Sum(rhs),rhsMax =  -7.62822983323499E+01  1.08524766629926E+00
(PID.TID 0000.0001)  ploadbar=  1.01004753817900E+05
 cg2d: Sum(rhs),rhsMax =  -7.54127271782871E+01  1.09747355583007E+00
(PID.TID 0000.0001)  ploadbar=  1.01006616038320E+05
 cg2d: Sum(rhs),rhsMax =  -7.45028457201896E+01  1.11058928595326E+00
(PID.TID 0000.0001)  ploadbar=  1.01008478258739E+05
 cg2d: Sum(rhs),rhsMax =  -7.35422567134476E+01  1.12480320928005E+00
(PID.TID 0000.0001)  ploadbar=  1.01010340479159E+05
 cg2d: Sum(rhs),rhsMax =  -7.25383858377670E+01  1.14006577861662E+00
(PID.TID 0000.0001)  ploadbar=  1.01012202699579E+05
 cg2d: Sum(rhs),rhsMax =  -7.14970391435411E+01  1.15635072589280E+00
(PID.TID 0000.0001)  ploadbar=  1.01014064919998E+05
 cg2d: Sum(rhs),rhsMax =  -7.04322782571433E+01  1.17349061335246E+00
(PID.TID 0000.0001)  ploadbar=  1.01015927140418E+05
 cg2d: Sum(rhs),rhsMax =  -6.93992795734588E+01  1.19059203624216E+00
(PID.TID 0000.0001)  ploadbar=  1.01017762508075E+05
 cg2d: Sum(rhs),rhsMax =  -6.83608278330713E+01  1.20828047330929E+00
(PID.TID 0000.0001)  ploadbar=  1.01019597875732E+05
 cg2d: Sum(rhs),rhsMax =  -6.73523378559183E+01  1.22593822087713E+00
(PID.TID 0000.0001)  ploadbar=  1.01021433243390E+05
 cg2d: Sum(rhs),rhsMax =  -6.63984335741321E+01  1.24307426311616E+00
(PID.TID 0000.0001)  ploadbar=  1.01023268611047E+05
 cg2d: Sum(rhs),rhsMax =  -6.55028614412997E+01  1.25954504600012E+00
(PID.TID 0000.0001)  ploadbar=  1.01025103978704E+05
 cg2d: Sum(rhs),rhsMax =  -6.46690578136024E+01  1.27520263228488E+00
(PID.TID 0000.0001)  ploadbar=  1.01026939346362E+05
 cg2d: Sum(rhs),rhsMax =  -6.40093651119242E+01  1.28780889719446E+00
(PID.TID 0000.0001)  ploadbar=  1.01028068267612E+05
 cg2d: Sum(rhs),rhsMax =  -6.34660364698074E+01  1.29833939178990E+00
(PID.TID 0000.0001)  ploadbar=  1.01029197188862E+05
 cg2d: Sum(rhs),rhsMax =  -6.30512290633629E+01  1.30642539501440E+00
(PID.TID 0000.0001)  ploadbar=  1.01030326110112E+05
 cg2d: Sum(rhs),rhsMax =  -6.27600416114407E+01  1.31206674980628E+00
(PID.TID 0000.0001)  ploadbar=  1.01031455031362E+05
 cg2d: Sum(rhs),rhsMax =  -6.25892682405632E+01  1.31525847207513E+00
(PID.TID 0000.0001)  ploadbar=  1.01032583952612E+05
 cg2d: Sum(rhs),rhsMax =  -6.25183094266716E+01  1.31639227046190E+00
(PID.TID 0000.0001)  ploadbar=  1.01033712873863E+05
 cg2d: Sum(rhs),rhsMax =  -6.24575535679365E+01  1.31732105600424E+00
(PID.TID 0000.0001)  ploadbar=  1.01034358757839E+05
 cg2d: Sum(rhs),rhsMax =  -6.23916189899875E+01  1.31836469103456E+00
(PID.TID 0000.0001)  ploadbar=  1.01035004641816E+05
 cg2d: Sum(rhs),rhsMax =  -6.23260769353858E+01  1.31939924254787E+00
(PID.TID 0000.0001)  ploadbar=  1.01035650525793E+05
 cg2d: Sum(rhs),rhsMax =  -6.22800159585024E+01  1.32001421617301E+00
(PID.TID 0000.0001)  ploadbar=  1.01036296409769E+05
 cg2d: Sum(rhs),rhsMax =  -6.22671337368105E+01  1.31990495136214E+00
(PID.TID 0000.0001)  ploadbar=  1.01036942293746E+05
 cg2d: Sum(rhs),rhsMax =  -6.22964616919019E+01  1.31887640769488E+00
(PID.TID 0000.0001)  ploadbar=  1.01037588177723E+05
 cg2d: Sum(rhs),rhsMax =  -6.24062324899902E+01  1.31615574953647E+00
(PID.TID 0000.0001)  ploadbar=  1.01038245893567E+05
 cg2d: Sum(rhs),rhsMax =  -6.25490334441208E+01  1.31275483349911E+00
(PID.TID 0000.0001)  ploadbar=  1.01038903609412E+05
 cg2d: Sum(rhs),rhsMax =  -6.27164459076302E+01  1.30885697208684E+00
(PID.TID 0000.0001)  ploadbar=  1.01039561325256E+05
 cg2d: Sum(rhs),rhsMax =  -6.28990075205360E+01  1.30466060820039E+00
(PID.TID 0000.0001)  ploadbar=  1.01040219041101E+05
 cg2d: Sum(rhs),rhsMax =  -6.30876171227188E+01  1.30035338970748E+00
(PID.TID 0000.0001)  ploadbar=  1.01040876756945E+05
 cg2d: Sum(rhs),rhsMax =  -6.32776293980818E+01  1.29602688617787E+00
(PID.TID 0000.0001)  ploadbar=  1.01041534472790E+05
 cg2d: Sum(rhs),rhsMax =  -6.34467881927079E+01  1.29213859794884E+00
(PID.TID 0000.0001)  ploadbar=  1.01042956337956E+05
 cg2d: Sum(rhs),rhsMax =  -6.35949283326808E+01  1.28868172851659E+00
(PID.TID 0000.0001)  ploadbar=  1.01044378203122E+05
 cg2d: Sum(rhs),rhsMax =  -6.37150506361711E+01  1.28578719160835E+00
(PID.TID 0000.0001)  ploadbar=  1.01045800068288E+05
 cg2d: Sum(rhs),rhsMax =  -6.38221788351185E+01  1.28313963821665E+00
(PID.TID 0000.0001)  ploadbar=  1.01047221933455E+05
 cg2d: Sum(rhs),rhsMax =  -6.39206807987579E+01  1.28064138158702E+00
(PID.TID 0000.0001)  ploadbar=  1.01048643798621E+05
 cg2d: Sum(rhs),rhsMax =  -6.40120735322226E+01  1.27825588002067E+00
(PID.TID 0000.0001)  ploadbar=  1.01050065663787E+05
 cg2d: Sum(rhs),rhsMax =  -6.40878417715521E+01  1.27627999814875E+00
(PID.TID 0000.0001)  ploadbar=  1.01050872219983E+05
 cg2d: Sum(rhs),rhsMax =  -6.42193177203824E+01  1.27328821011181E+00
(PID.TID 0000.0001)  ploadbar=  1.01051678776178E+05
 cg2d: Sum(rhs),rhsMax =  -6.43684493550062E+01  1.27003789375524E+00
(PID.TID 0000.0001)  ploadbar=  1.01052485332374E+05
 cg2d: Sum(rhs),rhsMax =  -6.45243425387463E+01  1.26674119226367E+00
(PID.TID 0000.0001)  ploadbar=  1.01053291888569E+05
 cg2d: Sum(rhs),rhsMax =  -6.46798395904141E+01  1.26353298892292E+00
(PID.TID 0000.0001)  ploadbar=  1.01054098444765E+05
 cg2d: Sum(rhs),rhsMax =  -6.48225617359380E+01  1.26064876737169E+00
(PID.TID 0000.0001)  ploadbar=  1.01054905000960E+05
 cg2d: Sum(rhs),rhsMax =  -6.49182622617490E+01  1.25863233880944E+00
(PID.TID 0000.0001)  ploadbar=  1.01055142205803E+05
 cg2d: Sum(rhs),rhsMax =  -6.50218497180559E+01  1.25640598910750E+00
(PID.TID 0000.0001)  ploadbar=  1.01055379410646E+05
 cg2d: Sum(rhs),rhsMax =  -6.51219295320352E+01  1.25418807037805E+00
(PID.TID 0000.0001)  ploadbar=  1.01055616615489E+05
 cg2d: Sum(rhs),rhsMax =  -6.52443590655500E+01  1.25147826822290E+00
(PID.TID 0000.0001)  ploadbar=  1.01055853820332E+05
 cg2d: Sum(rhs),rhsMax =  -6.54298098853725E+01  1.24750028511038E+00
(PID.TID 0000.0001)  ploadbar=  1.01056091025175E+05
 cg2d: Sum(rhs),rhsMax =  -6.57010489619728E+01  1.24184293577768E+00
(PID.TID 0000.0001)  ploadbar=  1.01056328230017E+05
 cg2d: Sum(rhs),rhsMax =  -6.59922893803119E+01  1.23588187585527E+00
(PID.TID 0000.0001)  ploadbar=  1.01056934558393E+05
 cg2d: Sum(rhs),rhsMax =  -6.63546962830933E+01  1.22867566098082E+00
(PID.TID 0000.0001)  ploadbar=  1.01057540886768E+05
 cg2d: Sum(rhs),rhsMax =  -6.68103818981473E+01  1.21985997861848E+00
(PID.TID 0000.0001)  ploadbar=  1.01058147215144E+05
 cg2d: Sum(rhs),rhsMax =  -6.73531487384090E+01  1.20961080490413E+00
(PID.TID 0000.0001)  ploadbar=  1.01058753543519E+05
 cg2d: Sum(rhs),rhsMax =  -6.80016957086588E+01  1.19767081892154E+00
(PID.TID 0000.0001)  ploadbar=  1.01059359871895E+05
 cg2d: Sum(rhs),rhsMax =  -6.87849489874983E+01  1.18364097134457E+00
(PID.TID 0000.0001)  ploadbar=  1.01059966200270E+05
 cg2d: Sum(rhs),rhsMax =  -6.97340311618009E+01  1.16712071426058E+00
(PID.TID 0000.0001)  ploadbar=  1.01060807202181E+05
 cg2d: Sum(rhs),rhsMax =  -7.06771566081705E+01  1.15111285245665E+00
(PID.TID 0000.0001)  ploadbar=  1.01061648204092E+05
 cg2d: Sum(rhs),rhsMax =  -7.16438935878105E+01  1.13511772674643E+00
(PID.TID 0000.0001)  ploadbar=  1.01062489206003E+05
 cg2d: Sum(rhs),rhsMax =  -7.25921758236981E+01  1.11979158718398E+00
(PID.TID 0000.0001)  ploadbar=  1.01063330207913E+05
 cg2d: Sum(rhs),rhsMax =  -7.34949619154969E+01  1.10549859912665E+00
(PID.TID 0000.0001)  ploadbar=  1.01064171209824E+05
 cg2d: Sum(rhs),rhsMax =  -7.43463220268232E+01  1.09225896184037E+00
(PID.TID 0000.0001)  ploadbar=  1.01065012211735E+05
 cg2d: Sum(rhs),rhsMax =  -7.51805648353794E+01  1.07963218169871E+00
(PID.TID 0000.0001)  ploadbar=  1.01065769459531E+05
 cg2d: Sum(rhs),rhsMax =  -7.59531955327894E+01  1.06821327915856E+00
(PID.TID 0000.0001)  ploadbar=  1.01066526707328E+05
 cg2d: Sum(rhs),rhsMax =  -7.66216877693284E+01  1.05851879761511E+00
(PID.TID 0000.0001)  ploadbar=  1.01067283955124E+05
 cg2d: Sum(rhs),rhsMax =  -7.65711010329544E+01  1.05889430792823E+00
(PID.TID 0000.0001)  ploadbar=  1.01068041202920E+05
 cg2d: Sum(rhs),rhsMax =  -7.60443053428488E+01  1.06595034268150E+00
(PID.TID 0000.0001)  ploadbar=  1.01068798450716E+05
 cg2d: Sum(rhs),rhsMax =  -7.53518400510877E+01  1.07550453359994E+00
(PID.TID 0000.0001)  ploadbar=  1.01069555698513E+05
 cg2d: Sum(rhs),rhsMax =  -7.45875775968800E+01  1.08626435930263E+00
(PID.TID 0000.0001)  ploadbar=  1.01070053604455E+05
 cg2d: Sum(rhs),rhsMax =  -7.38243196665628E+01  1.09721124658130E+00
(PID.TID 0000.0001)  ploadbar=  1.01070551510397E+05
 cg2d: Sum(rhs),rhsMax =  -7.30667930570814E+01  1.10827665292674E+00
(PID.TID 0000.0001)  ploadbar=  1.01071049416339E+05
 cg2d: Sum(rhs),rhsMax =  -7.23192419010617E+01  1.11939233407155E+00
(PID.TID 0000.0001)  ploadbar=  1.01071547322281E+05
 cg2d: Sum(rhs),rhsMax =  -7.14135400839477E+01  1.13321293674353E+00
(PID.TID 0000.0001)  ploadbar=  1.01072045228223E+05
 cg2d: Sum(rhs),rhsMax =  -7.03624643916452E+01  1.14972276390707E+00
(PID.TID 0000.0001)  ploadbar=  1.01072543134166E+05
 cg2d: Sum(rhs),rhsMax =  -6.94745586363942E+01  1.16402711783570E+00
(PID.TID 0000.0001)  ploadbar=  1.01074510121100E+05
 cg2d: Sum(rhs),rhsMax =  -6.86472870915644E+01  1.17769296787283E+00
(PID.TID 0000.0001)  ploadbar=  1.01076477108034E+05
 cg2d: Sum(rhs),rhsMax =  -6.79206015811182E+01  1.18995466626027E+00
(PID.TID 0000.0001)  ploadbar=  1.01078444094969E+05
 cg2d: Sum(rhs),rhsMax =  -6.74007528975398E+01  1.19881783856636E+00
(PID.TID 0000.0001)  ploadbar=  1.01080411081903E+05
 cg2d: Sum(rhs),rhsMax =  -6.70074834541049E+01  1.20555486633262E+00
(PID.TID 0000.0001)  ploadbar=  1.01082378068837E+05
 cg2d: Sum(rhs),rhsMax =  -6.66790116858209E+01  1.21120812996608E+00
(PID.TID 0000.0001)  ploadbar=  1.01084345055772E+05
 cg2d: Sum(rhs),rhsMax =  -6.65105679205354E+01  1.21394639666644E+00
(PID.TID 0000.0001)  ploadbar=  1.01084471041339E+05
 cg2d: Sum(rhs),rhsMax =  -6.64165541645390E+01  1.21528690860941E+00
(PID.TID 0000.0001)  ploadbar=  1.01084597026907E+05
 cg2d: Sum(rhs),rhsMax =  -6.63545063322699E+01  1.21598816684308E+00
(PID.TID 0000.0001)  ploadbar=  1.01084723012474E+05
 cg2d: Sum(rhs),rhsMax =  -6.63231787569365E+01  1.21606292588290E+00
(PID.TID 0000.0001)  ploadbar=  1.01084848998042E+05
 cg2d: Sum(rhs),rhsMax =  -6.63228251836474E+01  1.21550132503777E+00
(PID.TID 0000.0001)  ploadbar=  1.01084974983609E+05
 cg2d: Sum(rhs),rhsMax =  -6.63556181132565E+01  1.21425841733470E+00
(PID.TID 0000.0001)  ploadbar=  1.01085100969177E+05
 cg2d: Sum(rhs),rhsMax =  -6.65269543367833E+01  1.21052346377142E+00
(PID.TID 0000.0001)  ploadbar=  1.01084027399717E+05
 cg2d: Sum(rhs),rhsMax =  -6.68068329659372E+01  1.20487834120127E+00
(PID.TID 0000.0001)  ploadbar=  1.01082953830257E+05
 cg2d: Sum(rhs),rhsMax =  -6.72056338779694E+01  1.19718230574838E+00
(PID.TID 0000.0001)  ploadbar=  1.01081880260798E+05
 cg2d: Sum(rhs),rhsMax =  -6.77216420525773E+01  1.18753676824733E+00
(PID.TID 0000.0001)  ploadbar=  1.01080806691338E+05
 cg2d: Sum(rhs),rhsMax =  -6.83072884416476E+01  1.17684813635382E+00
(PID.TID 0000.0001)  ploadbar=  1.01079733121878E+05
 cg2d: Sum(rhs),rhsMax =  -6.89073048911159E+01  1.16610316346467E+00
(PID.TID 0000.0001)  ploadbar=  1.01078659552419E+05
 cg2d: Sum(rhs),rhsMax =  -6.95308088132374E+01  1.15516563374940E+00
(PID.TID 0000.0001)  ploadbar=  1.01079013982376E+05
 cg2d: Sum(rhs),rhsMax =  -7.00888814473356E+01  1.14549919684504E+00
(PID.TID 0000.0001)  ploadbar=  1.01079368412332E+05
 cg2d: Sum(rhs),rhsMax =  -7.06394183964763E+01  1.13610765937015E+00
(PID.TID 0000.0001)  ploadbar=  1.01079722842289E+05
 cg2d: Sum(rhs),rhsMax =  -7.12160066435765E+01  1.12644275508097E+00
(PID.TID 0000.0001)  ploadbar=  1.01080077272246E+05
 cg2d: Sum(rhs),rhsMax =  -7.15488392473836E+01  1.12072763942868E+00
(PID.TID 0000.0001)  ploadbar=  1.01080431702203E+05
 cg2d: Sum(rhs),rhsMax =  -7.17256059127428E+01  1.11747603714403E+00
(PID.TID 0000.0001)  ploadbar=  1.01080786132160E+05
 cg2d: Sum(rhs),rhsMax =  -7.19153786167844E+01  1.11404167391399E+00
(PID.TID 0000.0001)  ploadbar=  1.01081714314280E+05
 cg2d: Sum(rhs),rhsMax =  -7.18407002250192E+01  1.11471426381561E+00
(PID.TID 0000.0001)  ploadbar=  1.01082642496401E+05
 cg2d: Sum(rhs),rhsMax =  -7.11084628965462E+01  1.12569999269093E+00
(PID.TID 0000.0001)  ploadbar=  1.01083570678521E+05
 cg2d: Sum(rhs),rhsMax =  -7.02454236264982E+01  1.13902489912701E+00
(PID.TID 0000.0001)  ploadbar=  1.01084498860641E+05
 cg2d: Sum(rhs),rhsMax =  -6.92628702964249E+01  1.15465854450269E+00
(PID.TID 0000.0001)  ploadbar=  1.01085427042761E+05
 cg2d: Sum(rhs),rhsMax =  -6.82027531117892E+01  1.17205323513673E+00
(PID.TID 0000.0001)  ploadbar=  1.01086355224881E+05
 cg2d: Sum(rhs),rhsMax =  -6.72030752702393E+01  1.18890278794935E+00
(PID.TID 0000.0001)  ploadbar=  1.01087527180182E+05
 cg2d: Sum(rhs),rhsMax =  -6.63798535953346E+01  1.20302521282371E+00
(PID.TID 0000.0001)  ploadbar=  1.01088699135483E+05
 cg2d: Sum(rhs),rhsMax =  -6.57026348154921E+01  1.21475923731354E+00
(PID.TID 0000.0001)  ploadbar=  1.01089871090784E+05
 cg2d: Sum(rhs),rhsMax =  -6.51543654005364E+01  1.22426306317055E+00
(PID.TID 0000.0001)  ploadbar=  1.01091043046085E+05
 cg2d: Sum(rhs),rhsMax =  -6.47015641448975E+01  1.23205259745731E+00
(PID.TID 0000.0001)  ploadbar=  1.01092215001387E+05
 cg2d: Sum(rhs),rhsMax =  -6.42540620767274E+01  1.23978737953510E+00
(PID.TID 0000.0001)  ploadbar=  1.01093386956688E+05
 cg2d: Sum(rhs),rhsMax =  -6.37479000484473E+01  1.24887371123454E+00
(PID.TID 0000.0001)  ploadbar=  1.01093934275655E+05
 cg2d: Sum(rhs),rhsMax =  -6.32447751249055E+01  1.25813598329854E+00
(PID.TID 0000.0001)  ploadbar=  1.01094481594621E+05
 cg2d: Sum(rhs),rhsMax =  -6.27392966537225E+01  1.26768147356619E+00
(PID.TID 0000.0001)  ploadbar=  1.01095028913588E+05
 cg2d: Sum(rhs),rhsMax =  -6.22418443652245E+01  1.27729863644657E+00
(PID.TID 0000.0001)  ploadbar=  1.01095576232555E+05
 cg2d: Sum(rhs),rhsMax =  -6.17624866167753E+01  1.28676691889690E+00
(PID.TID 0000.0001)  ploadbar=  1.01096123551522E+05
 cg2d: Sum(rhs),rhsMax =  -6.13030778545498E+01  1.29602638551815E+00
(PID.TID 0000.0001)  ploadbar=  1.01096670870488E+05
 cg2d: Sum(rhs),rhsMax =  -6.09443818766783E+01  1.30326473291851E+00
(PID.TID 0000.0001)  ploadbar=  1.01096337074794E+05
 cg2d: Sum(rhs),rhsMax =  -6.06334392988579E+01  1.30954753394791E+00
(PID.TID 0000.0001)  ploadbar=  1.01096003279100E+05
 cg2d: Sum(rhs),rhsMax =  -6.03647172324667E+01  1.31495944157518E+00
(PID.TID 0000.0001)  ploadbar=  1.01095669483405E+05
 cg2d: Sum(rhs),rhsMax =  -6.01312551847773E+01  1.31962529453316E+00
(PID.TID 0000.0001)  ploadbar=  1.01095335687711E+05
 cg2d: Sum(rhs),rhsMax =  -5.99383724674592E+01  1.32340775790860E+00
(PID.TID 0000.0001)  ploadbar=  1.01095001892016E+05
 cg2d: Sum(rhs),rhsMax =  -5.97801605119359E+01  1.32641923731867E+00
(PID.TID 0000.0001)  ploadbar=  1.01094668096322E+05
 cg2d: Sum(rhs),rhsMax =  -5.96583383134622E+01  1.32866349348650E+00
(PID.TID 0000.0001)  ploadbar=  1.01093309258648E+05
 cg2d: Sum(rhs),rhsMax =  -5.95549294813259E+01  1.33052952170550E+00
(PID.TID 0000.0001)  ploadbar=  1.01091950420974E+05
 cg2d: Sum(rhs),rhsMax =  -5.94643386388327E+01  1.33213738081895E+00
(PID.TID 0000.0001)  ploadbar=  1.01090591583300E+05
 cg2d: Sum(rhs),rhsMax =  -5.93789766441598E+01  1.33365449465056E+00
(PID.TID 0000.0001)  ploadbar=  1.01089232745626E+05
 cg2d: Sum(rhs),rhsMax =  -5.92991488250774E+01  1.33507035928111E+00
(PID.TID 0000.0001)  ploadbar=  1.01087873907952E+05
 cg2d: Sum(rhs),rhsMax =  -5.92261950927634E+01  1.33635015878743E+00
(PID.TID 0000.0001)  ploadbar=  1.01086515070278E+05
 cg2d: Sum(rhs),rhsMax =  -5.90876883375744E+01  1.33908587766014E+00
(PID.TID 0000.0001)  ploadbar=  1.01085805978213E+05
 cg2d: Sum(rhs),rhsMax =  -5.89599506305952E+01  1.34155214063293E+00
(PID.TID 0000.0001)  ploadbar=  1.01085096886148E+05
 cg2d: Sum(rhs),rhsMax =  -5.88359519389584E+01  1.34390130834124E+00
(PID.TID 0000.0001)  ploadbar=  1.01084387794083E+05
 cg2d: Sum(rhs),rhsMax =  -5.87151202755303E+01  1.34613631356619E+00
(PID.TID 0000.0001)  ploadbar=  1.01083678702017E+05
 cg2d: Sum(rhs),rhsMax =  -5.85977807978117E+01  1.34824010261397E+00
(PID.TID 0000.0001)  ploadbar=  1.01082969609952E+05
 cg2d: Sum(rhs),rhsMax =  -5.84882328155254E+01  1.35011121481156E+00
(PID.TID 0000.0001)  ploadbar=  1.01082260517887E+05
 cg2d: Sum(rhs),rhsMax =  -5.84136206814613E+01  1.35119960735498E+00
(PID.TID 0000.0001)  ploadbar=  1.01081551742602E+05
 cg2d: Sum(rhs),rhsMax =  -5.83628912661851E+01  1.35174899576890E+00
(PID.TID 0000.0001)  ploadbar=  1.01080842967317E+05
 cg2d: Sum(rhs),rhsMax =  -5.83390486266647E+01  1.35168344025480E+00
(PID.TID 0000.0001)  ploadbar=  1.01080134192032E+05
 cg2d: Sum(rhs),rhsMax =  -5.83402497387493E+01  1.35103645609917E+00
(PID.TID 0000.0001)  ploadbar=  1.01079425416748E+05
 cg2d: Sum(rhs),rhsMax =  -5.83775787731873E+01  1.34954874541631E+00
(PID.TID 0000.0001)  ploadbar=  1.01078716641463E+05
 cg2d: Sum(rhs),rhsMax =  -5.84486435732788E+01  1.34727247569776E+00
(PID.TID 0000.0001)  ploadbar=  1.01078007866178E+05
 cg2d: Sum(rhs),rhsMax =  -5.85909933089892E+01  1.34335975434978E+00
(PID.TID 0000.0001)  ploadbar=  1.01078023832371E+05
 cg2d: Sum(rhs),rhsMax =  -5.87921304488358E+01  1.33811710986457E+00
(PID.TID 0000.0001)  ploadbar=  1.01078039798563E+05
 cg2d: Sum(rhs),rhsMax =  -5.90431122904839E+01  1.33177340915566E+00
(PID.TID 0000.0001)  ploadbar=  1.01078055764756E+05
 cg2d: Sum(rhs),rhsMax =  -5.93301961006334E+01  1.32466338876755E+00
(PID.TID 0000.0001)  ploadbar=  1.01078071730948E+05
 cg2d: Sum(rhs),rhsMax =  -5.96423767982054E+01  1.31705153812615E+00
(PID.TID 0000.0001)  ploadbar=  1.01078087697141E+05
 cg2d: Sum(rhs),rhsMax =  -6.00016904155922E+01  1.30847118131536E+00
(PID.TID 0000.0001)  ploadbar=  1.01078103663334E+05
 cg2d: Sum(rhs),rhsMax =  -6.08941162943071E+01  1.28863504070207E+00
(PID.TID 0000.0001)  ploadbar=  1.01078633801942E+05
 cg2d: Sum(rhs),rhsMax =  -6.19295343313919E+01  1.26645995887322E+00
(PID.TID 0000.0001)  ploadbar=  1.01079163940551E+05
 cg2d: Sum(rhs),rhsMax =  -6.31641713337803E+01  1.24110289192235E+00
(PID.TID 0000.0001)  ploadbar=  1.01079694079159E+05
 cg2d: Sum(rhs),rhsMax =  -6.46738581288282E+01  1.21155307548905E+00
(PID.TID 0000.0001)  ploadbar=  1.01080224217767E+05
 cg2d: Sum(rhs),rhsMax =  -6.65096439151174E+01  1.17755347420822E+00
(PID.TID 0000.0001)  ploadbar=  1.01080754356376E+05
 cg2d: Sum(rhs),rhsMax =  -6.87194333856430E+01  1.13914244847566E+00
(PID.TID 0000.0001)  ploadbar=  1.01081284494984E+05
 cg2d: Sum(rhs),rhsMax =  -6.70096276322496E+01  1.16763331684456E+00
(PID.TID 0000.0001)  ploadbar=  1.01080632987383E+05
 cg2d: Sum(rhs),rhsMax =  -6.49250242171805E+01  1.20450857221127E+00
(PID.TID 0000.0001)  ploadbar=  1.01079981479781E+05
 cg2d: Sum(rhs),rhsMax =  -6.29141013596041E+01  1.24234658611042E+00
(PID.TID 0000.0001)  ploadbar=  1.01079329972179E+05
 cg2d: Sum(rhs),rhsMax =  -6.07895703663878E+01  1.28504806033055E+00
(PID.TID 0000.0001)  ploadbar=  1.01078678464577E+05
 cg2d: Sum(rhs),rhsMax =  -5.86009364194589E+01  1.33225738981711E+00
(PID.TID 0000.0001)  ploadbar=  1.01078026956975E+05
 cg2d: Sum(rhs),rhsMax =  -5.64107982085112E+01  1.38311691187727E+00
(PID.TID 0000.0001)  ploadbar=  1.01077375449373E+05
 cg2d: Sum(rhs),rhsMax =  -5.43636785823898E+01  1.43437911497982E+00
(PID.TID 0000.0001)  ploadbar=  1.01075474557823E+05
 cg2d: Sum(rhs),rhsMax =  -5.24800528416112E+01  1.48508971110446E+00
(PID.TID 0000.0001)  ploadbar=  1.01073573666274E+05
 cg2d: Sum(rhs),rhsMax =  -5.07694883979597E+01  1.53440179027970E+00
(PID.TID 0000.0001)  ploadbar=  1.01071672774725E+05
 cg2d: Sum(rhs),rhsMax =  -4.92364568649172E+01  1.58150037281148E+00
(PID.TID 0000.0001)  ploadbar=  1.01069771883175E+05
 cg2d: Sum(rhs),rhsMax =  -4.78698273881303E+01  1.62602088000555E+00
(PID.TID 0000.0001)  ploadbar=  1.01067870991626E+05
 cg2d: Sum(rhs),rhsMax =  -4.66547258199588E+01  1.66778395309295E+00
(PID.TID 0000.0001)  ploadbar=  1.01065970100077E+05
 cg2d: Sum(rhs),rhsMax =  -4.55720200305177E+01  1.70681777014649E+00
(PID.TID 0000.0001)  ploadbar=  1.01065727786269E+05
 cg2d: Sum(rhs),rhsMax =  -4.45864027561854E+01  1.74394674631333E+00
(PID.TID 0000.0001)  ploadbar=  1.01065485472462E+05
 cg2d: Sum(rhs),rhsMax =  -4.36824033300382E+01  1.77941460124013E+00
(PID.TID 0000.0001)  ploadbar=  1.01065243158654E+05
 cg2d: Sum(rhs),rhsMax =  -4.28544483137935E+01  1.81314040435356E+00
(PID.TID 0000.0001)  ploadbar=  1.01065000844847E+05
 cg2d: Sum(rhs),rhsMax =  -4.20988773736785E+01  1.84499074208628E+00
(PID.TID 0000.0001)  ploadbar=  1.01064758531039E+05
 cg2d: Sum(rhs),rhsMax =  -4.14124548178577E+01  1.87483786582786E+00
(PID.TID 0000.0001)  ploadbar=  1.01064516217232E+05
 cg2d: Sum(rhs),rhsMax =  -4.07942366390781E+01  1.90254100912306E+00
(PID.TID 0000.0001)  ploadbar=  1.01064454050655E+05
 cg2d: Sum(rhs),rhsMax =  -4.02468242037538E+01  1.92773224276702E+00
(PID.TID 0000.0001)  ploadbar=  1.01064391884078E+05
 cg2d: Sum(rhs),rhsMax =  -3.97571023963739E+01  1.95081311067437E+00
(PID.TID 0000.0001)  ploadbar=  1.01064329717502E+05
 cg2d: Sum(rhs),rhsMax =  -3.93161042823759E+01  1.97204799487481E+00
(PID.TID 0000.0001)  ploadbar=  1.01064267550925E+05
 cg2d: Sum(rhs),rhsMax =  -3.89179638098529E+01  1.99158539323209E+00
(PID.TID 0000.0001)  ploadbar=  1.01064205384349E+05
 cg2d: Sum(rhs),rhsMax =  -3.85557946936932E+01  2.00965656391034E+00
(PID.TID 0000.0001)  ploadbar=  1.01064143217772E+05
 cg2d: Sum(rhs),rhsMax =  -3.82194729257133E+01  2.02670812012790E+00
(PID.TID 0000.0001)  ploadbar=  1.01064622936013E+05
 cg2d: Sum(rhs),rhsMax =  -3.79051102492950E+01  2.04287803253321E+00
(PID.TID 0000.0001)  ploadbar=  1.01065102654253E+05
 cg2d: Sum(rhs),rhsMax =  -3.76921615040723E+01  2.05376762060379E+00
(PID.TID 0000.0001)  ploadbar=  1.01065582372494E+05
 cg2d: Sum(rhs),rhsMax =  -3.74760251641276E+01  2.06493782577050E+00
(PID.TID 0000.0001)  ploadbar=  1.01066062090735E+05
 cg2d: Sum(rhs),rhsMax =  -3.72631226117746E+01  2.07602810927032E+00
(PID.TID 0000.0001)  ploadbar=  1.01066541808976E+05
 cg2d: Sum(rhs),rhsMax =  -3.70641181847040E+01  2.08642874067507E+00
(PID.TID 0000.0001)  ploadbar=  1.01067021527216E+05
 cg2d: Sum(rhs),rhsMax =  -3.68741641127460E+01  2.09654041097591E+00
(PID.TID 0000.0001)  ploadbar=  1.01067275573142E+05
 cg2d: Sum(rhs),rhsMax =  -3.67034065013719E+01  2.10576086361768E+00
(PID.TID 0000.0001)  ploadbar=  1.01067529619069E+05
 cg2d: Sum(rhs),rhsMax =  -3.65551689152333E+01  2.11385793344499E+00
(PID.TID 0000.0001)  ploadbar=  1.01067783664995E+05
 cg2d: Sum(rhs),rhsMax =  -3.64240266402824E+01  2.12110201760011E+00
(PID.TID 0000.0001)  ploadbar=  1.01068037710921E+05
 cg2d: Sum(rhs),rhsMax =  -3.63201822839867E+01  2.12686269536010E+00
(PID.TID 0000.0001)  ploadbar=  1.01068291756847E+05
 cg2d: Sum(rhs),rhsMax =  -3.62519819570506E+01  2.13061281010958E+00
(PID.TID 0000.0001)  ploadbar=  1.01068545802773E+05
 cg2d: Sum(rhs),rhsMax =  -3.61791060793699E+01  2.13466806296144E+00
(PID.TID 0000.0001)  ploadbar=  1.01069078380097E+05
 cg2d: Sum(rhs),rhsMax =  -3.60147030110767E+01  2.14417923404787E+00
(PID.TID 0000.0001)      cg2d_init_res =   1.61963123500915E-01
(PID.TID 0000.0001)      cg2d_iters(min,last) =      -1     141
(PID.TID 0000.0001)      cg2d_last_res =   9.15720209983633E-08
(PID.TID 0000.0001) // =======================================================
(PID.TID 0000.0001) // Begin MONITOR dynamic field statistics
(PID.TID 0000.0001) // =======================================================
(PID.TID 0000.0001) %MON time_tsnumber                =                  1752
(PID.TID 0000.0001) %MON time_secondsf                =   6.3072000000000E+06
(PID.TID 0000.0001) %MON dynstat_eta_max              =   1.2570089837609E+00
(PID.TID 0000.0001) %MON dynstat_eta_min              =  -6.2149901435246E+00
(PID.TID 0000.0001) %MON dynstat_eta_mean             =   3.9084444876695E-02
(PID.TID 0000.0001) %MON dynstat_eta_sd               =   7.3337670035249E-01
(PID.TID 0000.0001) %MON dynstat_eta_del2             =   2.1514314413022E-04
(PID.TID 0000.0001) %MON dynstat_uvel_max             =   6.8694364289024E-01
(PID.TID 0000.0001) %MON dynstat_uvel_min             =  -7.2233348750438E-01
(PID.TID 0000.0001) %MON dynstat_uvel_mean            =   1.3440396303217E-03
(PID.TID 0000.0001) %MON dynstat_uvel_sd              =   2.0176354259444E-02
(PID.TID 0000.0001) %MON dynstat_uvel_del2            =   8.7819506241194E-06
(PID.TID 0000.0001) %MON dynstat_vvel_max             =   6.7441598672410E-01
(PID.TID 0000.0001) %MON dynstat_vvel_min             =  -9.1457631693569E-01
(PID.TID 0000.0001) %MON dynstat_vvel_mean            =   1.0701421041215E-03
(PID.TID 0000.0001) %MON dynstat_vvel_sd              =   2.1696109943006E-02
(PID.TID 0000.0001) %MON dynstat_vvel_del2            =   8.9012438624499E-06
(PID.TID 0000.0001) %MON dynstat_wvel_max             =   5.4176376364924E-04
(PID.TID 0000.0001) %MON dynstat_wvel_min             =  -9.6876217605387E-04
(PID.TID 0000.0001) %MON dynstat_wvel_mean            =   7.2081443659555E-09
(PID.TID 0000.0001) %MON dynstat_wvel_sd              =   2.1664368676652E-05
(PID.TID 0000.0001) %MON dynstat_wvel_del2            =   1.5625346467378E-08
(PID.TID 0000.0001) %MON dynstat_theta_max            =   3.1699320032372E+01
(PID.TID 0000.0001) %MON dynstat_theta_min            =  -2.0286533948321E+00
(PID.TID 0000.0001) %MON dynstat_theta_mean           =   3.5868874995508E+00
(PID.TID 0000.0001) %MON dynstat_theta_sd             =   4.4399502028662E+00
(PID.TID 0000.0001) %MON dynstat_theta_del2           =   8.7485192850258E-05
(PID.TID 0000.0001) %MON dynstat_salt_max             =   4.0641562601267E+01
(PID.TID 0000.0001) %MON dynstat_salt_min             =   2.5618195180642E+01
(PID.TID 0000.0001) %MON dynstat_salt_mean            =   3.4727280983435E+01
(PID.TID 0000.0001) %MON dynstat_salt_sd              =   3.7799224375876E-01
(PID.TID 0000.0001) %MON dynstat_salt_del2            =   2.0443876769786E-05
(PID.TID 0000.0001) %MON dynstat_sst_max              =   3.1683961736423E+01
(PID.TID 0000.0001) %MON dynstat_sst_min              =  -1.9662871767600E+00
(PID.TID 0000.0001) %MON dynstat_sst_mean             =   1.8461116492288E+01
(PID.TID 0000.0001) %MON dynstat_sst_sd               =   1.0199009496670E+01
(PID.TID 0000.0001) %MON dynstat_sst_del2             =   6.7979370320396E-04
(PID.TID 0000.0001) %MON dynstat_sss_max              =   4.0578362049249E+01
(PID.TID 0000.0001) %MON dynstat_sss_min              =   2.5618195180642E+01
(PID.TID 0000.0001) %MON dynstat_sss_mean             =   3.4752433349780E+01
(PID.TID 0000.0001) %MON dynstat_sss_sd               =   1.1854546869969E+00
(PID.TID 0000.0001) %MON dynstat_sss_del2             =   3.3339138106378E-04
(PID.TID 0000.0001) %MON forcing_qnet_max             =   7.6024970879582E+02
(PID.TID 0000.0001) %MON forcing_qnet_min             =  -5.5529529487346E+02
(PID.TID 0000.0001) %MON forcing_qnet_mean            =   1.4623730007221E+01
(PID.TID 0000.0001) %MON forcing_qnet_sd              =   1.8255229719981E+02
(PID.TID 0000.0001) %MON forcing_qnet_del2            =   9.0221716102241E-02
(PID.TID 0000.0001) %MON forcing_qsw_max              =   7.9453056724517E+01
(PID.TID 0000.0001) %MON forcing_qsw_min              =  -6.2460430722840E+02
(PID.TID 0000.0001) %MON forcing_qsw_mean             =  -1.4635794002482E+02
(PID.TID 0000.0001) %MON forcing_qsw_sd               =   1.6129210927580E+02
(PID.TID 0000.0001) %MON forcing_qsw_del2             =   4.5961489173789E-02
(PID.TID 0000.0001) %MON forcing_empmr_max            =   1.4501009572432E-03
(PID.TID 0000.0001) %MON forcing_empmr_min            =  -4.3111243192191E-03
(PID.TID 0000.0001) %MON forcing_empmr_mean           =   1.2157961760368E-06
(PID.TID 0000.0001) %MON forcing_empmr_sd             =   1.0491205148821E-04
(PID.TID 0000.0001) %MON forcing_empmr_del2           =   2.7239066004534E-07
(PID.TID 0000.0001) %MON forcing_fu_max               =   1.0611406069926E+00
(PID.TID 0000.0001) %MON forcing_fu_min               =  -1.0520294507345E+00
(PID.TID 0000.0001) %MON forcing_fu_mean              =   1.2582582659788E-02
(PID.TID 0000.0001) %MON forcing_fu_sd                =   1.0402237460173E-01
(PID.TID 0000.0001) %MON forcing_fu_del2              =   8.1614037944965E-05
(PID.TID 0000.0001) %MON forcing_fv_max               =   9.0132539470991E-01
(PID.TID 0000.0001) %MON forcing_fv_min               =  -9.6669288835372E-01
(PID.TID 0000.0001) %MON forcing_fv_mean              =   1.1664866906340E-03
(PID.TID 0000.0001) %MON forcing_fv_sd                =   1.1088866625219E-01
(PID.TID 0000.0001) %MON forcing_fv_del2              =   6.8155984664734E-05
(PID.TID 0000.0001) %MON trAdv_CFL_u_max              =   5.9585162148821E-02
(PID.TID 0000.0001) %MON trAdv_CFL_v_max              =   5.2657903686186E-02
(PID.TID 0000.0001) %MON trAdv_CFL_w_max              =   1.0213428827043E-01
(PID.TID 0000.0001) %MON advcfl_uvel_max              =   5.6506198544424E-02
(PID.TID 0000.0001) %MON advcfl_vvel_max              =   4.2333796635654E-02
(PID.TID 0000.0001) %MON advcfl_wvel_max              =   1.0505620398573E-01
(PID.TID 0000.0001) %MON advcfl_W_hf_max              =   1.0598878343701E-01
(PID.TID 0000.0001) %MON pe_b_mean                    =   1.3904858436271E-03
(PID.TID 0000.0001) %MON ke_max                       =   5.2239450837747E-01
(PID.TID 0000.0001) %MON ke_mean                      =   4.2469855439886E-04
(PID.TID 0000.0001) %MON ke_vol                       =   1.3350118712351E+18
(PID.TID 0000.0001) %MON vort_r_min                   =  -2.1048791832795E-05
(PID.TID 0000.0001) %MON vort_r_max                   =   1.7775392443800E-05
(PID.TID 0000.0001) %MON vort_a_mean                  =  -1.9727864647440E-05
(PID.TID 0000.0001) %MON vort_a_sd                    =   7.4543045027382E-05
(PID.TID 0000.0001) %MON vort_p_mean                  =  -2.1760282985976E-05
(PID.TID 0000.0001) %MON vort_p_sd                    =   9.7248816449953E-05
(PID.TID 0000.0001) %MON surfExpan_theta_mean         =   2.4972817670451E-07
(PID.TID 0000.0001) %MON surfExpan_salt_mean          =   6.3133604613163E-09
(PID.TID 0000.0001) // =======================================================
(PID.TID 0000.0001) // End MONITOR dynamic field statistics
(PID.TID 0000.0001) // =======================================================
(PID.TID 0000.0001)  ploadbar=  1.01069610957421E+05
(PID.TID 0000.0001) %SBO sbo_mass                     =   1.3737507833112E+21
(PID.TID 0000.0001) %SBO sbo_mass_fw                  =   3.7967940632806E+16
(PID.TID 0000.0001) %SBO sbo_zoamc                    =   1.0547783844111E+25
(PID.TID 0000.0001) %SBO sbo_zoamp                    =   2.9276525449723E+30
(PID.TID 0000.0001) // =======================================================
(PID.TID 0000.0001) // Begin MONITOR SEAICE statistics
(PID.TID 0000.0001) // =======================================================
(PID.TID 0000.0001) %MON seaice_tsnumber              =                  1752
(PID.TID 0000.0001) %MON seaice_time_sec              =   6.3072000000000E+06
(PID.TID 0000.0001) %MON seaice_uice_max              =   4.0000000000000E-01
(PID.TID 0000.0001) %MON seaice_uice_min              =  -4.0000000000000E-01
(PID.TID 0000.0001) %MON seaice_uice_mean             =   2.4603718673039E-03
(PID.TID 0000.0001) %MON seaice_uice_sd               =   1.6327695993825E-01
(PID.TID 0000.0001) %MON seaice_uice_del2             =   1.4264733345195E-04
(PID.TID 0000.0001) %MON seaice_vice_max              =   4.0000000000000E-01
(PID.TID 0000.0001) %MON seaice_vice_min              =  -4.0000000000000E-01
(PID.TID 0000.0001) %MON seaice_vice_mean             =  -9.3029553284668E-03
(PID.TID 0000.0001) %MON seaice_vice_sd               =   1.7624959368487E-01
(PID.TID 0000.0001) %MON seaice_vice_del2             =   1.4385429509002E-04
(PID.TID 0000.0001) %MON seaice_area_max              =   9.7000000000000E-01
(PID.TID 0000.0001) %MON seaice_area_min              =   0.0000000000000E+00
(PID.TID 0000.0001) %MON seaice_area_mean             =   4.9091188281483E-02
(PID.TID 0000.0001) %MON seaice_area_sd               =   2.0430510920194E-01
(PID.TID 0000.0001) %MON seaice_area_del2             =   2.2732719523477E-04
(PID.TID 0000.0001) %MON seaice_heff_max              =   6.0765429789821E+00
(PID.TID 0000.0001) %MON seaice_heff_min              =   0.0000000000000E+00
(PID.TID 0000.0001) %MON seaice_heff_mean             =   6.9504412966443E-02
(PID.TID 0000.0001) %MON seaice_heff_sd               =   3.6458692323324E-01
(PID.TID 0000.0001) %MON seaice_heff_del2             =   2.2279905827513E-04
(PID.TID 0000.0001) %MON seaice_hsnow_max             =   1.0499093893360E+00
(PID.TID 0000.0001) %MON seaice_hsnow_min             =  -7.8855371375352E-05
(PID.TID 0000.0001) %MON seaice_hsnow_mean            =   7.8323769006196E-03
(PID.TID 0000.0001) %MON seaice_hsnow_sd              =   4.5732034461666E-02
(PID.TID 0000.0001) %MON seaice_hsnow_del2            =   4.4100446759716E-05
(PID.TID 0000.0001) // =======================================================
(PID.TID 0000.0001) // End MONITOR SEAICE statistics
(PID.TID 0000.0001) // =======================================================
(PID.TID 0000.0001) // =======================================================
(PID.TID 0000.0001) // Begin MONITOR EXF statistics
(PID.TID 0000.0001) // =======================================================
(PID.TID 0000.0001) %MON exf_tsnumber                 =                  1752
(PID.TID 0000.0001) %MON exf_time_sec                 =   6.3072000000000E+06
(PID.TID 0000.0001) %MON exf_ustress_max              =   1.4396965275426E+00
(PID.TID 0000.0001) %MON exf_ustress_min              =  -1.0447053313255E+00
(PID.TID 0000.0001) %MON exf_ustress_mean             =   1.2650357019797E-02
(PID.TID 0000.0001) %MON exf_ustress_sd               =   1.0562586030690E-01
(PID.TID 0000.0001) %MON exf_ustress_del2             =   9.9275013429394E-05
(PID.TID 0000.0001) %MON exf_vstress_max              =   8.7365045265379E-01
(PID.TID 0000.0001) %MON exf_vstress_min              =  -9.6799236911501E-01
(PID.TID 0000.0001) %MON exf_vstress_mean             =   1.7920409026405E-03
(PID.TID 0000.0001) %MON exf_vstress_sd               =   1.1171223924807E-01
(PID.TID 0000.0001) %MON exf_vstress_del2             =   8.0868165428926E-05
(PID.TID 0000.0001) %MON exf_hflux_max                =   1.0370784908546E+03
(PID.TID 0000.0001) %MON exf_hflux_min                =  -5.1543292314326E+02
(PID.TID 0000.0001) %MON exf_hflux_mean               =   3.0093257604319E+01
(PID.TID 0000.0001) %MON exf_hflux_sd                 =   2.0014789547568E+02
(PID.TID 0000.0001) %MON exf_hflux_del2               =   4.2298664997656E-01
(PID.TID 0000.0001) %MON exf_sflux_max                =   2.3865038210626E-07
(PID.TID 0000.0001) %MON exf_sflux_min                =  -4.2819708690681E-06
(PID.TID 0000.0001) %MON exf_sflux_mean               =   4.3172576902848E-10
(PID.TID 0000.0001) %MON exf_sflux_sd                 =   9.7726546471970E-08
(PID.TID 0000.0001) %MON exf_sflux_del2               =   2.5964037868006E-10
(PID.TID 0000.0001) %MON exf_wspeed_max               =   2.1851756095886E+01
(PID.TID 0000.0001) %MON exf_wspeed_min               =   2.8774048388004E-01
(PID.TID 0000.0001) %MON exf_wspeed_mean              =   6.8613227575660E+00
(PID.TID 0000.0001) %MON exf_wspeed_sd                =   3.1794185225919E+00
(PID.TID 0000.0001) %MON exf_wspeed_del2              =   1.5145009926865E-02
(PID.TID 0000.0001) %MON exf_atemp_max                =   3.0567787494659E+02
(PID.TID 0000.0001) %MON exf_atemp_min                =   2.2366437759399E+02
(PID.TID 0000.0001) %MON exf_atemp_mean               =   2.8940862470442E+02
(PID.TID 0000.0001) %MON exf_atemp_sd                 =   1.2355167474292E+01
(PID.TID 0000.0001) %MON exf_atemp_del2               =   3.2085911579620E-02
(PID.TID 0000.0001) %MON exf_aqh_max                  =   2.1431800909340E-02
(PID.TID 0000.0001) %MON exf_aqh_min                  =   4.7269400056393E-05
(PID.TID 0000.0001) %MON exf_aqh_mean                 =   1.0997100703323E-02
(PID.TID 0000.0001) %MON exf_aqh_sd                   =   5.6985927098833E-03
(PID.TID 0000.0001) %MON exf_aqh_del2                 =   1.8146701162295E-05
(PID.TID 0000.0001) %MON exf_lwflux_max               =   2.2014488432356E+02
(PID.TID 0000.0001) %MON exf_lwflux_min               =  -4.3230167164271E+01
(PID.TID 0000.0001) %MON exf_lwflux_mean              =   4.7429845955826E+01
(PID.TID 0000.0001) %MON exf_lwflux_sd                =   2.8271202911614E+01
(PID.TID 0000.0001) %MON exf_lwflux_del2              =   1.1101827335717E-01
(PID.TID 0000.0001) %MON exf_evap_max                 =   2.3314364950849E-07
(PID.TID 0000.0001) %MON exf_evap_min                 =  -5.1112626476267E-08
(PID.TID 0000.0001) %MON exf_evap_mean                =   4.2617445626164E-08
(PID.TID 0000.0001) %MON exf_evap_sd                  =   2.7508876247019E-08
(PID.TID 0000.0001) %MON exf_evap_del2                =   8.5294430283339E-11
(PID.TID 0000.0001) %MON exf_precip_max               =   2.5613436491767E-06
(PID.TID 0000.0001) %MON exf_precip_min               =  -2.4068688375678E-08
(PID.TID 0000.0001) %MON exf_precip_mean              =   3.8557920777117E-08
(PID.TID 0000.0001) %MON exf_precip_sd                =   7.7875658877225E-08
(PID.TID 0000.0001) %MON exf_precip_del2              =   2.1289150015373E-10
(PID.TID 0000.0001) %MON exf_swflux_max               =   1.2468220105177E+02
(PID.TID 0000.0001) %MON exf_swflux_min               =  -5.7730123540225E+02
(PID.TID 0000.0001) %MON exf_swflux_mean              =  -1.5117998560390E+02
(PID.TID 0000.0001) %MON exf_swflux_sd                =   1.5529799410733E+02
(PID.TID 0000.0001) %MON exf_swflux_del2              =   3.3197247607632E-01
(PID.TID 0000.0001) %MON exf_swdown_max               =   6.2232168579102E+02
(PID.TID 0000.0001) %MON exf_swdown_min               =  -1.5688555908203E+02
(PID.TID 0000.0001) %MON exf_swdown_mean              =   1.6391441705570E+02
(PID.TID 0000.0001) %MON exf_swdown_sd                =   1.6785810344158E+02
(PID.TID 0000.0001) %MON exf_swdown_del2              =   3.6046214524609E-01
(PID.TID 0000.0001) %MON exf_lwdown_max               =   4.7533741760254E+02
(PID.TID 0000.0001) %MON exf_lwdown_min               =   7.9792095184326E+01
(PID.TID 0000.0001) %MON exf_lwdown_mean              =   3.6407876533358E+02
(PID.TID 0000.0001) %MON exf_lwdown_sd                =   6.4069810973199E+01
(PID.TID 0000.0001) %MON exf_lwdown_del2              =   6.0339692898937E-01
(PID.TID 0000.0001) %MON exf_apressure_max            =   1.0394780468750E+05
(PID.TID 0000.0001) %MON exf_apressure_min            =   9.6015500000000E+04
(PID.TID 0000.0001) %MON exf_apressure_mean           =   1.0107014353475E+05
(PID.TID 0000.0001) %MON exf_apressure_sd             =   1.0577989349368E+03
(PID.TID 0000.0001) %MON exf_apressure_del2           =   1.7845956630644E+02
(PID.TID 0000.0001) %MON exf_runoff_max               =   4.1620624112208E-06
(PID.TID 0000.0001) %MON exf_runoff_min               =   0.0000000000000E+00
(PID.TID 0000.0001) %MON exf_runoff_mean              =   3.6277990800184E-09
(PID.TID 0000.0001) %MON exf_runoff_sd                =   4.6689937897439E-08
(PID.TID 0000.0001) %MON exf_runoff_del2              =   1.4135564324195E-10
(PID.TID 0000.0001) // =======================================================
(PID.TID 0000.0001) // End MONITOR EXF statistics
(PID.TID 0000.0001) // =======================================================
 cg2d: Sum(rhs),rhsMax =  -3.58861444690369E+01  2.15161702020513E+00
(PID.TID 0000.0001)  ploadbar=  1.01070143534745E+05
 cg2d: Sum(rhs),rhsMax =  -3.57913294973020E+01  2.15705750386121E+00
(PID.TID 0000.0001)  ploadbar=  1.01070676112070E+05
 cg2d: Sum(rhs),rhsMax =  -3.57275038778340E+01  2.16063002741573E+00
(PID.TID 0000.0001)  ploadbar=  1.01071208689394E+05
 cg2d: Sum(rhs),rhsMax =  -3.56946163665837E+01  2.16231144891212E+00
(PID.TID 0000.0001)  ploadbar=  1.01071741266718E+05
 cg2d: Sum(rhs),rhsMax =  -3.56893060303045E+01  2.16236561528722E+00
(PID.TID 0000.0001)  ploadbar=  1.01071593289327E+05
 cg2d: Sum(rhs),rhsMax =  -3.57086296705553E+01  2.16096761134558E+00
(PID.TID 0000.0001)  ploadbar=  1.01071445311936E+05
 cg2d: Sum(rhs),rhsMax =  -3.57496626530771E+01  2.15829449459545E+00
(PID.TID 0000.0001)  ploadbar=  1.01071297334544E+05
 cg2d: Sum(rhs),rhsMax =  -3.58105114210965E+01  2.15446564747591E+00
(PID.TID 0000.0001)  ploadbar=  1.01071149357153E+05
 cg2d: Sum(rhs),rhsMax =  -3.58887907578159E+01  2.14962718424086E+00
(PID.TID 0000.0001)  ploadbar=  1.01071001379762E+05
 cg2d: Sum(rhs),rhsMax =  -3.59800380300948E+01  2.14404494601085E+00
(PID.TID 0000.0001)  ploadbar=  1.01070853402371E+05
 cg2d: Sum(rhs),rhsMax =  -3.60814024942297E+01  2.13781913713368E+00
(PID.TID 0000.0001)  ploadbar=  1.01070110422048E+05
 cg2d: Sum(rhs),rhsMax =  -3.61926012171031E+01  2.13097131133082E+00
(PID.TID 0000.0001)  ploadbar=  1.01069367441725E+05
 cg2d: Sum(rhs),rhsMax =  -3.63118624783553E+01  2.12360587627637E+00
(PID.TID 0000.0001)  ploadbar=  1.01068624461402E+05
 cg2d: Sum(rhs),rhsMax =  -3.64392164127009E+01  2.11572268952240E+00
(PID.TID 0000.0001)  ploadbar=  1.01067881481079E+05
 cg2d: Sum(rhs),rhsMax =  -3.65747980826240E+01  2.10731444654716E+00
(PID.TID 0000.0001)  ploadbar=  1.01067138500757E+05
 cg2d: Sum(rhs),rhsMax =  -3.67192602168977E+01  2.09835090191131E+00
(PID.TID 0000.0001)  ploadbar=  1.01066395520434E+05
 cg2d: Sum(rhs),rhsMax =  -3.68731963007426E+01  2.08900627728489E+00
(PID.TID 0000.0001)  ploadbar=  1.01065162719326E+05
 cg2d: Sum(rhs),rhsMax =  -3.70356026172168E+01  2.07934314730482E+00
(PID.TID 0000.0001)  ploadbar=  1.01063929918218E+05
 cg2d: Sum(rhs),rhsMax =  -3.72037422856037E+01  2.06951391549217E+00
(PID.TID 0000.0001)  ploadbar=  1.01062697117111E+05
 cg2d: Sum(rhs),rhsMax =  -3.73765280428196E+01  2.05957438487878E+00
(PID.TID 0000.0001)  ploadbar=  1.01061464316003E+05
 cg2d: Sum(rhs),rhsMax =  -3.75521793822011E+01  2.04961759867814E+00
(PID.TID 0000.0001)  ploadbar=  1.01060231514895E+05
 cg2d: Sum(rhs),rhsMax =  -3.77283431386535E+01  2.03975697590886E+00
(PID.TID 0000.0001)  ploadbar=  1.01058998713788E+05
 cg2d: Sum(rhs),rhsMax =  -3.78984525630934E+01  2.03030076409989E+00
(PID.TID 0000.0001)  ploadbar=  1.01057429116433E+05
 cg2d: Sum(rhs),rhsMax =  -3.80584841478757E+01  2.02144801306797E+00
(PID.TID 0000.0001)  ploadbar=  1.01055859519079E+05
 cg2d: Sum(rhs),rhsMax =  -3.82087101059190E+01  2.01316083564703E+00
(PID.TID 0000.0001)  ploadbar=  1.01054289921724E+05
 cg2d: Sum(rhs),rhsMax =  -3.83426465356763E+01  2.00575192769410E+00
(PID.TID 0000.0001)  ploadbar=  1.01052720324370E+05
 cg2d: Sum(rhs),rhsMax =  -3.84581436781431E+01  1.99930370832373E+00
(PID.TID 0000.0001)  ploadbar=  1.01051150727015E+05
 cg2d: Sum(rhs),rhsMax =  -3.85548255891911E+01  1.99380816308643E+00
(PID.TID 0000.0001)  ploadbar=  1.01049581129661E+05
 cg2d: Sum(rhs),rhsMax =  -3.86318352646418E+01  1.98937202473046E+00
(PID.TID 0000.0001)  ploadbar=  1.01047336242152E+05
 cg2d: Sum(rhs),rhsMax =  -3.86988606623610E+01  1.98548315101565E+00
(PID.TID 0000.0001)  ploadbar=  1.01045091354643E+05
 cg2d: Sum(rhs),rhsMax =  -3.87578781598624E+01  1.98203000175991E+00
(PID.TID 0000.0001)  ploadbar=  1.01042846467134E+05
 cg2d: Sum(rhs),rhsMax =  -3.88083300989743E+01  1.97902896280238E+00
(PID.TID 0000.0001)  ploadbar=  1.01040601579626E+05
 cg2d: Sum(rhs),rhsMax =  -3.88513539570005E+01  1.97640815517800E+00
(PID.TID 0000.0001)  ploadbar=  1.01038356692117E+05
 cg2d: Sum(rhs),rhsMax =  -3.88862506232717E+01  1.97419193476189E+00
(PID.TID 0000.0001)  ploadbar=  1.01036111804608E+05
 cg2d: Sum(rhs),rhsMax =  -3.89078695745692E+01  1.97264669710744E+00
(PID.TID 0000.0001)  ploadbar=  1.01035109900464E+05
 cg2d: Sum(rhs),rhsMax =  -3.89212593187691E+01  1.97150745133845E+00
(PID.TID 0000.0001)  ploadbar=  1.01034107996320E+05
 cg2d: Sum(rhs),rhsMax =  -3.89342250890752E+01  1.97036856513250E+00
(PID.TID 0000.0001)  ploadbar=  1.01033106092177E+05
 cg2d: Sum(rhs),rhsMax =  -3.89448014291767E+01  1.96931856009341E+00
(PID.TID 0000.0001)  ploadbar=  1.01032104188033E+05
 cg2d: Sum(rhs),rhsMax =  -3.89519384823538E+01  1.96839929833433E+00
(PID.TID 0000.0001)  ploadbar=  1.01031102283889E+05
 cg2d: Sum(rhs),rhsMax =  -3.89539917137901E+01  1.96768739298340E+00
(PID.TID 0000.0001)  ploadbar=  1.01030100379745E+05
 cg2d: Sum(rhs),rhsMax =  -3.89652899764388E+01  1.96663984276404E+00
(PID.TID 0000.0001)  ploadbar=  1.01028423382047E+05
 cg2d: Sum(rhs),rhsMax =  -3.89727903368385E+01  1.96591118748769E+00
(PID.TID 0000.0001)  ploadbar=  1.01026746384350E+05
 cg2d: Sum(rhs),rhsMax =  -3.89812107253840E+01  1.96525539832011E+00
(PID.TID 0000.0001)  ploadbar=  1.01025069386652E+05
 cg2d: Sum(rhs),rhsMax =  -3.89937477805900E+01  1.96450206934033E+00
(PID.TID 0000.0001)  ploadbar=  1.01023392388955E+05
 cg2d: Sum(rhs),rhsMax =  -3.90080156637337E+01  1.96376403647849E+00
(PID.TID 0000.0001)  ploadbar=  1.01021715391257E+05
 cg2d: Sum(rhs),rhsMax =  -3.90211275431251E+01  1.96318012454554E+00
(PID.TID 0000.0001)  ploadbar=  1.01020038393559E+05
 cg2d: Sum(rhs),rhsMax =  -3.90549609204241E+01  1.96153691730046E+00
(PID.TID 0000.0001)  ploadbar=  1.01019295431439E+05
 cg2d: Sum(rhs),rhsMax =  -3.90940662881486E+01  1.95960137094401E+00
(PID.TID 0000.0001)  ploadbar=  1.01018552469318E+05
 cg2d: Sum(rhs),rhsMax =  -3.91356428626913E+01  1.95750377812788E+00
(PID.TID 0000.0001)  ploadbar=  1.01017809507197E+05
 cg2d: Sum(rhs),rhsMax =  -3.91852704501195E+01  1.95495621624446E+00
(PID.TID 0000.0001)  ploadbar=  1.01017066545077E+05
 cg2d: Sum(rhs),rhsMax =  -3.92418621075207E+01  1.95199985199110E+00
(PID.TID 0000.0001)  ploadbar=  1.01016323582956E+05
 cg2d: Sum(rhs),rhsMax =  -3.93011802828399E+01  1.94882920811161E+00
(PID.TID 0000.0001)  ploadbar=  1.01015580620836E+05
 cg2d: Sum(rhs),rhsMax =  -3.93658268380578E+01  1.94543030328734E+00
(PID.TID 0000.0001)  ploadbar=  1.01015972579118E+05
 cg2d: Sum(rhs),rhsMax =  -3.94430522938612E+01  1.94143646571888E+00
(PID.TID 0000.0001)  ploadbar=  1.01016364537401E+05
 cg2d: Sum(rhs),rhsMax =  -3.95245215258107E+01  1.93725448067314E+00
(PID.TID 0000.0001)  ploadbar=  1.01016756495684E+05
 cg2d: Sum(rhs),rhsMax =  -3.96084534309901E+01  1.93296408159214E+00
(PID.TID 0000.0001)  ploadbar=  1.01017148453967E+05
 cg2d: Sum(rhs),rhsMax =  -3.96953739521900E+01  1.92853361070206E+00
(PID.TID 0000.0001)  ploadbar=  1.01017540412250E+05
 cg2d: Sum(rhs),rhsMax =  -3.97840348142480E+01  1.92401897104936E+00
(PID.TID 0000.0001)  ploadbar=  1.01017932370533E+05
 cg2d: Sum(rhs),rhsMax =  -3.98526683136756E+01  1.92041677930656E+00
(PID.TID 0000.0001)  ploadbar=  1.01017602160565E+05
 cg2d: Sum(rhs),rhsMax =  -3.99226523807451E+01  1.91668475452209E+00
(PID.TID 0000.0001)  ploadbar=  1.01017271950597E+05
 cg2d: Sum(rhs),rhsMax =  -3.99959211281880E+01  1.91271971569460E+00
(PID.TID 0000.0001)  ploadbar=  1.01016941740629E+05
 cg2d: Sum(rhs),rhsMax =  -4.00690565277708E+01  1.90867787261117E+00
(PID.TID 0000.0001)  ploadbar=  1.01016611530661E+05
 cg2d: Sum(rhs),rhsMax =  -4.01434026647689E+01  1.90449032807796E+00
(PID.TID 0000.0001)  ploadbar=  1.01016281320693E+05
 cg2d: Sum(rhs),rhsMax =  -4.02199354523241E+01  1.90010014968093E+00
(PID.TID 0000.0001)  ploadbar=  1.01015951110726E+05
 cg2d: Sum(rhs),rhsMax =  -4.03074542418933E+01  1.89528818934896E+00
(PID.TID 0000.0001)  ploadbar=  1.01014701910369E+05
 cg2d: Sum(rhs),rhsMax =  -4.03998154440493E+01  1.89033988797911E+00
(PID.TID 0000.0001)  ploadbar=  1.01013452710013E+05
 cg2d: Sum(rhs),rhsMax =  -4.04972876010552E+01  1.88524172394815E+00
(PID.TID 0000.0001)  ploadbar=  1.01012203509657E+05
 cg2d: Sum(rhs),rhsMax =  -4.05991847254442E+01  1.88002233809792E+00
(PID.TID 0000.0001)  ploadbar=  1.01010954309301E+05
 cg2d: Sum(rhs),rhsMax =  -4.07034922165733E+01  1.87477174637068E+00
(PID.TID 0000.0001)  ploadbar=  1.01009705108945E+05
 cg2d: Sum(rhs),rhsMax =  -4.08101644986889E+01  1.86948665734969E+00
(PID.TID 0000.0001)  ploadbar=  1.01008455908588E+05
 cg2d: Sum(rhs),rhsMax =  -4.09163468993453E+01  1.86426610574874E+00
(PID.TID 0000.0001)  ploadbar=  1.01007560207399E+05
 cg2d: Sum(rhs),rhsMax =  -4.10200154006934E+01  1.85919557234672E+00
(PID.TID 0000.0001)  ploadbar=  1.01006664506210E+05
 cg2d: Sum(rhs),rhsMax =  -4.11198808720253E+01  1.85431509768065E+00
(PID.TID 0000.0001)  ploadbar=  1.01005768805020E+05
 cg2d: Sum(rhs),rhsMax =  -4.12172616117862E+01  1.84954849617385E+00
(PID.TID 0000.0001)  ploadbar=  1.01004873103831E+05
 cg2d: Sum(rhs),rhsMax =  -4.13105702082636E+01  1.84495682093526E+00
(PID.TID 0000.0001)  ploadbar=  1.01003977402641E+05
 cg2d: Sum(rhs),rhsMax =  -4.13987466157243E+01  1.84057428328148E+00
(PID.TID 0000.0001)  ploadbar=  1.01003081701452E+05
 cg2d: Sum(rhs),rhsMax =  -4.14902959671231E+01  1.83610498810719E+00
(PID.TID 0000.0001)  ploadbar=  1.01003101352415E+05
 cg2d: Sum(rhs),rhsMax =  -4.15804105580911E+01  1.83175771691748E+00
(PID.TID 0000.0001)  ploadbar=  1.01003121003377E+05
 cg2d: Sum(rhs),rhsMax =  -4.16664863116510E+01  1.82763755368286E+00
(PID.TID 0000.0001)  ploadbar=  1.01003140654340E+05
 cg2d: Sum(rhs),rhsMax =  -4.17511643330199E+01  1.82361773003094E+00
(PID.TID 0000.0001)  ploadbar=  1.01003160305303E+05
 cg2d: Sum(rhs),rhsMax =  -4.18345293428944E+01  1.81968873489805E+00
(PID.TID 0000.0001)  ploadbar=  1.01003179956265E+05
 cg2d: Sum(rhs),rhsMax =  -4.19150179814572E+01  1.81590889343683E+00
(PID.TID 0000.0001)  ploadbar=  1.01003199607228E+05
 cg2d: Sum(rhs),rhsMax =  -4.19866632165877E+01  1.81244159703567E+00
(PID.TID 0000.0001)  ploadbar=  1.01002665260871E+05
 cg2d: Sum(rhs),rhsMax =  -4.20542554228846E+01  1.80907133564337E+00
(PID.TID 0000.0001)  ploadbar=  1.01002130914514E+05
 cg2d: Sum(rhs),rhsMax =  -4.21163472452810E+01  1.80585683780173E+00
(PID.TID 0000.0001)  ploadbar=  1.01001596568157E+05
 cg2d: Sum(rhs),rhsMax =  -4.21729837344938E+01  1.80278676900088E+00
(PID.TID 0000.0001)  ploadbar=  1.01001062221800E+05
 cg2d: Sum(rhs),rhsMax =  -4.22256983269743E+01  1.79978589604114E+00
(PID.TID 0000.0001)  ploadbar=  1.01000527875443E+05
 cg2d: Sum(rhs),rhsMax =  -4.22750592771841E+01  1.79682375605261E+00
(PID.TID 0000.0001)  ploadbar=  1.00999993529086E+05
 cg2d: Sum(rhs),rhsMax =  -4.23201545085056E+01  1.79413028115414E+00
(PID.TID 0000.0001)  ploadbar=  1.00999469829190E+05
 cg2d: Sum(rhs),rhsMax =  -4.23656952475968E+01  1.79149844055526E+00
(PID.TID 0000.0001)  ploadbar=  1.00998946129293E+05
 cg2d: Sum(rhs),rhsMax =  -4.24101861860211E+01  1.78898228176343E+00
(PID.TID 0000.0001)  ploadbar=  1.00998422429396E+05
 cg2d: Sum(rhs),rhsMax =  -4.24524443509019E+01  1.78662367488884E+00
(PID.TID 0000.0001)  ploadbar=  1.00997898729499E+05
 cg2d: Sum(rhs),rhsMax =  -4.24925567458509E+01  1.78440947678361E+00
(PID.TID 0000.0001)  ploadbar=  1.00997375029603E+05
 cg2d: Sum(rhs),rhsMax =  -4.25302566204743E+01  1.78234483969618E+00
(PID.TID 0000.0001)  ploadbar=  1.00996851329706E+05
 cg2d: Sum(rhs),rhsMax =  -4.25599978115945E+01  1.78062198529158E+00
(PID.TID 0000.0001)  ploadbar=  1.00996695774068E+05
 cg2d: Sum(rhs),rhsMax =  -4.25822137641311E+01  1.77921430701903E+00
(PID.TID 0000.0001)  ploadbar=  1.00996540218430E+05
 cg2d: Sum(rhs),rhsMax =  -4.25967814138931E+01  1.77811752653237E+00
(PID.TID 0000.0001)  ploadbar=  1.00996384662792E+05
 cg2d: Sum(rhs),rhsMax =  -4.26011865743404E+01  1.77742569210941E+00
(PID.TID 0000.0001)  ploadbar=  1.00996229107153E+05
 cg2d: Sum(rhs),rhsMax =  -4.25941545695981E+01  1.77718257126859E+00
(PID.TID 0000.0001)  ploadbar=  1.00996073551515E+05
 cg2d: Sum(rhs),rhsMax =  -4.25749965346709E+01  1.77741290199777E+00
(PID.TID 0000.0001)  ploadbar=  1.00995917995877E+05
 cg2d: Sum(rhs),rhsMax =  -4.25349563262155E+01  1.77856838503141E+00
(PID.TID 0000.0001)  ploadbar=  1.00995807720141E+05
 cg2d: Sum(rhs),rhsMax =  -4.24749497246198E+01  1.78061115637713E+00
(PID.TID 0000.0001)  ploadbar=  1.00995697444404E+05
 cg2d: Sum(rhs),rhsMax =  -4.23965342742091E+01  1.78347728496891E+00
(PID.TID 0000.0001)  ploadbar=  1.00995587168667E+05
 cg2d: Sum(rhs),rhsMax =  -4.22999592396689E+01  1.78715705897607E+00
(PID.TID 0000.0001)  ploadbar=  1.00995476892930E+05
 cg2d: Sum(rhs),rhsMax =  -4.21897528954966E+01  1.79146217627552E+00
(PID.TID 0000.0001)  ploadbar=  1.00995366617194E+05
 cg2d: Sum(rhs),rhsMax =  -4.20741525476671E+01  1.79604288539839E+00
(PID.TID 0000.0001)  ploadbar=  1.00995256341457E+05
 cg2d: Sum(rhs),rhsMax =  -4.19620407586095E+01  1.80044099245747E+00
(PID.TID 0000.0001)  ploadbar=  1.00995016395679E+05
 cg2d: Sum(rhs),rhsMax =  -4.18662541117054E+01  1.80409731751338E+00
(PID.TID 0000.0001)  ploadbar=  1.00994776449900E+05
 cg2d: Sum(rhs),rhsMax =  -4.17983958271843E+01  1.80649190899701E+00
(PID.TID 0000.0001)  ploadbar=  1.00994536504122E+05
 cg2d: Sum(rhs),rhsMax =  -4.17652683775618E+01  1.80730918364278E+00
(PID.TID 0000.0001)  ploadbar=  1.00994296558344E+05
 cg2d: Sum(rhs),rhsMax =  -4.17710635845421E+01  1.80635395713838E+00
(PID.TID 0000.0001)  ploadbar=  1.00994056612566E+05
 cg2d: Sum(rhs),rhsMax =  -4.18171703461583E+01  1.80356264197388E+00
(PID.TID 0000.0001)  ploadbar=  1.00993816666787E+05
 cg2d: Sum(rhs),rhsMax =  -4.19035741190315E+01  1.79911326459483E+00
(PID.TID 0000.0001)  ploadbar=  1.00994427234728E+05
 cg2d: Sum(rhs),rhsMax =  -4.20281773302763E+01  1.79311500370102E+00
(PID.TID 0000.0001)  ploadbar=  1.00995037802669E+05
 cg2d: Sum(rhs),rhsMax =  -4.21868827959844E+01  1.78576496700006E+00
(PID.TID 0000.0001)  ploadbar=  1.00995648370610E+05
 cg2d: Sum(rhs),rhsMax =  -4.23746147655778E+01  1.77730023241629E+00
(PID.TID 0000.0001)  ploadbar=  1.00996258938551E+05
 cg2d: Sum(rhs),rhsMax =  -4.25871129509912E+01  1.76792050354632E+00
(PID.TID 0000.0001)  ploadbar=  1.00996869506492E+05
 cg2d: Sum(rhs),rhsMax =  -4.28201255052864E+01  1.75782615688153E+00
(PID.TID 0000.0001)  ploadbar=  1.00997480074433E+05
 cg2d: Sum(rhs),rhsMax =  -4.30745783255236E+01  1.74693839345650E+00
(PID.TID 0000.0001)  ploadbar=  1.00997865933147E+05
 cg2d: Sum(rhs),rhsMax =  -4.33511215280825E+01  1.73525507709274E+00
(PID.TID 0000.0001)  ploadbar=  1.00998251791860E+05
 cg2d: Sum(rhs),rhsMax =  -4.36421648458515E+01  1.72310315936970E+00
(PID.TID 0000.0001)  ploadbar=  1.00998637650573E+05
 cg2d: Sum(rhs),rhsMax =  -4.39404270682637E+01  1.71078399905502E+00
(PID.TID 0000.0001)  ploadbar=  1.00999023509286E+05
 cg2d: Sum(rhs),rhsMax =  -4.42412459400788E+01  1.69847539729093E+00
(PID.TID 0000.0001)  ploadbar=  1.00999409368000E+05
 cg2d: Sum(rhs),rhsMax =  -4.45448724042486E+01  1.68616419378368E+00
(PID.TID 0000.0001)  ploadbar=  1.00999795226713E+05
 cg2d: Sum(rhs),rhsMax =  -4.48515148091315E+01  1.67391023849809E+00
(PID.TID 0000.0001)  ploadbar=  1.01000197122718E+05
 cg2d: Sum(rhs),rhsMax =  -4.51470033956447E+01  1.66223093248072E+00
(PID.TID 0000.0001)  ploadbar=  1.01000599018723E+05
 cg2d: Sum(rhs),rhsMax =  -4.54206992315093E+01  1.65148883836754E+00
(PID.TID 0000.0001)  ploadbar=  1.01001000914728E+05
 cg2d: Sum(rhs),rhsMax =  -4.56729322738031E+01  1.64163606531378E+00
(PID.TID 0000.0001)  ploadbar=  1.01001402810732E+05
 cg2d: Sum(rhs),rhsMax =  -4.59034724530526E+01  1.63264698023827E+00
(PID.TID 0000.0001)  ploadbar=  1.01001804706737E+05
 cg2d: Sum(rhs),rhsMax =  -4.61127587473391E+01  1.62447437679792E+00
(PID.TID 0000.0001)  ploadbar=  1.01002206602742E+05
 cg2d: Sum(rhs),rhsMax =  -4.63195823515300E+01  1.61643609191379E+00
(PID.TID 0000.0001)  ploadbar=  1.01002423459436E+05
 cg2d: Sum(rhs),rhsMax =  -4.65151172791314E+01  1.60882697500624E+00
(PID.TID 0000.0001)  ploadbar=  1.01002640316129E+05
 cg2d: Sum(rhs),rhsMax =  -4.67000594320527E+01  1.60160252102351E+00
(PID.TID 0000.0001)  ploadbar=  1.01002857172823E+05
 cg2d: Sum(rhs),rhsMax =  -4.68776991688493E+01  1.59463589131420E+00
(PID.TID 0000.0001)  ploadbar=  1.01003074029517E+05
 cg2d: Sum(rhs),rhsMax =  -4.70513366134780E+01  1.58780658828051E+00
(PID.TID 0000.0001)  ploadbar=  1.01003290886210E+05
 cg2d: Sum(rhs),rhsMax =  -4.72177127611336E+01  1.58121606753527E+00
(PID.TID 0000.0001)  ploadbar=  1.01003507742904E+05
 cg2d: Sum(rhs),rhsMax =  -4.73617352365258E+01  1.57555019426405E+00
(PID.TID 0000.0001)  ploadbar=  1.01003980643882E+05
 cg2d: Sum(rhs),rhsMax =  -4.74769940671364E+01  1.57099996493484E+00
(PID.TID 0000.0001)  ploadbar=  1.01004453544861E+05
 cg2d: Sum(rhs),rhsMax =  -4.75599792517574E+01  1.56765905910720E+00
(PID.TID 0000.0001)  ploadbar=  1.01004926445839E+05
 cg2d: Sum(rhs),rhsMax =  -4.76213303932607E+01  1.56515700847759E+00
(PID.TID 0000.0001)  ploadbar=  1.01005399346818E+05
 cg2d: Sum(rhs),rhsMax =  -4.76744165963440E+01  1.56304262031267E+00
(PID.TID 0000.0001)  ploadbar=  1.01005872247796E+05
 cg2d: Sum(rhs),rhsMax =  -4.77240876738118E+01  1.56115108462345E+00
(PID.TID 0000.0001)  ploadbar=  1.01006345148774E+05
 cg2d: Sum(rhs),rhsMax =  -4.77736507145430E+01  1.55928672913061E+00
(PID.TID 0000.0001)  ploadbar=  1.01007735778799E+05
 cg2d: Sum(rhs),rhsMax =  -4.78237469350260E+01  1.55742528603854E+00
(PID.TID 0000.0001)  ploadbar=  1.01009126408824E+05
 cg2d: Sum(rhs),rhsMax =  -4.78757008370143E+01  1.55551578287267E+00
(PID.TID 0000.0001)  ploadbar=  1.01010517038849E+05
 cg2d: Sum(rhs),rhsMax =  -4.79272768751884E+01  1.55362613850225E+00
(PID.TID 0000.0001)  ploadbar=  1.01011907668874E+05
 cg2d: Sum(rhs),rhsMax =  -4.79818774586718E+01  1.55163420479147E+00
(PID.TID 0000.0001)  ploadbar=  1.01013298298898E+05
 cg2d: Sum(rhs),rhsMax =  -4.80319763761582E+01  1.54977713131233E+00
(PID.TID 0000.0001)  ploadbar=  1.01014688928923E+05
 cg2d: Sum(rhs),rhsMax =  -4.80618504599876E+01  1.54859869071212E+00
(PID.TID 0000.0001)  ploadbar=  1.01016835256053E+05
 cg2d: Sum(rhs),rhsMax =  -4.80859189117527E+01  1.54763043829449E+00
(PID.TID 0000.0001)  ploadbar=  1.01018981583184E+05
 cg2d: Sum(rhs),rhsMax =  -4.81090481722227E+01  1.54671220896600E+00
(PID.TID 0000.0001)  ploadbar=  1.01021127910314E+05
 cg2d: Sum(rhs),rhsMax =  -4.81311162569693E+01  1.54584165078170E+00
(PID.TID 0000.0001)  ploadbar=  1.01023274237444E+05
 cg2d: Sum(rhs),rhsMax =  -4.81542395619487E+01  1.54494165950038E+00
(PID.TID 0000.0001)  ploadbar=  1.01025420564574E+05
 cg2d: Sum(rhs),rhsMax =  -4.81801744305618E+01  1.54395750582764E+00
(PID.TID 0000.0001)  ploadbar=  1.01027566891704E+05
 cg2d: Sum(rhs),rhsMax =  -4.82128150954929E+01  1.54273638405976E+00
(PID.TID 0000.0001)  ploadbar=  1.01029080878060E+05
 cg2d: Sum(rhs),rhsMax =  -4.82498906221515E+01  1.54134626932073E+00
(PID.TID 0000.0001)  ploadbar=  1.01030594864417E+05
 cg2d: Sum(rhs),rhsMax =  -4.82906368758095E+01  1.53980433142262E+00
(PID.TID 0000.0001)  ploadbar=  1.01032108850773E+05
 cg2d: Sum(rhs),rhsMax =  -4.83350238258216E+01  1.53810975418650E+00
(PID.TID 0000.0001)  ploadbar=  1.01033622837129E+05
 cg2d: Sum(rhs),rhsMax =  -4.83826024710978E+01  1.53627017533299E+00
(PID.TID 0000.0001)  ploadbar=  1.01035136823485E+05
 cg2d: Sum(rhs),rhsMax =  -4.84340038031802E+01  1.53426580357600E+00
(PID.TID 0000.0001)  ploadbar=  1.01036650809841E+05
 cg2d: Sum(rhs),rhsMax =  -4.84959426529688E+01  1.53198050693324E+00
(PID.TID 0000.0001)  ploadbar=  1.01038280967635E+05
 cg2d: Sum(rhs),rhsMax =  -4.85631621037039E+01  1.52958028255464E+00
(PID.TID 0000.0001)  ploadbar=  1.01039911125430E+05
 cg2d: Sum(rhs),rhsMax =  -4.86355011505186E+01  1.52706820754893E+00
(PID.TID 0000.0001)  ploadbar=  1.01041541283224E+05
 cg2d: Sum(rhs),rhsMax =  -4.87124081993091E+01  1.52445806502832E+00
(PID.TID 0000.0001)  ploadbar=  1.01043171441018E+05
 cg2d: Sum(rhs),rhsMax =  -4.87931748106427E+01  1.52176556821833E+00
(PID.TID 0000.0001)  ploadbar=  1.01044801598813E+05
 cg2d: Sum(rhs),rhsMax =  -4.88775233925869E+01  1.51899348364982E+00
(PID.TID 0000.0001)  ploadbar=  1.01046431756607E+05
 cg2d: Sum(rhs),rhsMax =  -4.89650811361665E+01  1.51609646866329E+00
(PID.TID 0000.0001)  ploadbar=  1.01047681300825E+05
 cg2d: Sum(rhs),rhsMax =  -4.90532245429368E+01  1.51315593263556E+00
(PID.TID 0000.0001)  ploadbar=  1.01048930845042E+05
 cg2d: Sum(rhs),rhsMax =  -4.91410223955656E+01  1.51019408591193E+00
(PID.TID 0000.0001)  ploadbar=  1.01050180389260E+05
 cg2d: Sum(rhs),rhsMax =  -4.92285396863278E+01  1.50719267254884E+00
(PID.TID 0000.0001)  ploadbar=  1.01051429933477E+05
 cg2d: Sum(rhs),rhsMax =  -4.93161908560577E+01  1.50413546890143E+00
(PID.TID 0000.0001)  ploadbar=  1.01052679477695E+05
 cg2d: Sum(rhs),rhsMax =  -4.94036255314020E+01  1.50102928701677E+00
(PID.TID 0000.0001)  ploadbar=  1.01053929021912E+05
 cg2d: Sum(rhs),rhsMax =  -4.94938469973222E+01  1.49787636651363E+00
(PID.TID 0000.0001)  ploadbar=  1.01055539226437E+05
 cg2d: Sum(rhs),rhsMax =  -4.95872581956883E+01  1.49466231368223E+00
(PID.TID 0000.0001)  ploadbar=  1.01057149430961E+05
 cg2d: Sum(rhs),rhsMax =  -4.96834801523239E+01  1.49139733984049E+00
(PID.TID 0000.0001)  ploadbar=  1.01058759635485E+05
 cg2d: Sum(rhs),rhsMax =  -4.97820773217937E+01  1.48809028659395E+00
(PID.TID 0000.0001)  ploadbar=  1.01060369840010E+05
 cg2d: Sum(rhs),rhsMax =  -4.98821832306509E+01  1.48476018483563E+00
(PID.TID 0000.0001)  ploadbar=  1.01061980044534E+05
 cg2d: Sum(rhs),rhsMax =  -4.99825504275376E+01  1.48143344861526E+00
(PID.TID 0000.0001)  ploadbar=  1.01063590249058E+05
 cg2d: Sum(rhs),rhsMax =  -5.00788733791797E+01  1.47817960054724E+00
(PID.TID 0000.0001)  ploadbar=  1.01065602515062E+05
 cg2d: Sum(rhs),rhsMax =  -5.01708077737839E+01  1.47500211088330E+00
(PID.TID 0000.0001)  ploadbar=  1.01067614781066E+05
 cg2d: Sum(rhs),rhsMax =  -5.02584166037172E+01  1.47189126977959E+00
(PID.TID 0000.0001)  ploadbar=  1.01069627047071E+05
 cg2d: Sum(rhs),rhsMax =  -5.03430349108771E+01  1.46880647048684E+00
(PID.TID 0000.0001)  ploadbar=  1.01071639313075E+05
 cg2d: Sum(rhs),rhsMax =  -5.04245225319139E+01  1.46574969918926E+00
(PID.TID 0000.0001)  ploadbar=  1.01073651579079E+05
 cg2d: Sum(rhs),rhsMax =  -5.05022467038713E+01  1.46273846197237E+00
(PID.TID 0000.0001)  ploadbar=  1.01075663845083E+05
 cg2d: Sum(rhs),rhsMax =  -5.05826566028874E+01  1.45972998675819E+00
(PID.TID 0000.0001)  ploadbar=  1.01078624763073E+05
 cg2d: Sum(rhs),rhsMax =  -5.06658281018274E+01  1.45672126027502E+00
(PID.TID 0000.0001)  ploadbar=  1.01081585681062E+05
 cg2d: Sum(rhs),rhsMax =  -5.07492660531918E+01  1.45378021603194E+00
(PID.TID 0000.0001)  ploadbar=  1.01084546599052E+05
 cg2d: Sum(rhs),rhsMax =  -5.08327648847145E+01  1.45090430910909E+00
(PID.TID 0000.0001)  ploadbar=  1.01087507517042E+05
 cg2d: Sum(rhs),rhsMax =  -5.09155415987858E+01  1.44810909371188E+00
(PID.TID 0000.0001)  ploadbar=  1.01090468435031E+05
 cg2d: Sum(rhs),rhsMax =  -5.09970415077775E+01  1.44540193435460E+00
(PID.TID 0000.0001)  ploadbar=  1.01093429353021E+05
 cg2d: Sum(rhs),rhsMax =  -5.10760729691484E+01  1.44276008906387E+00
(PID.TID 0000.0001)  ploadbar=  1.01094999971839E+05
 cg2d: Sum(rhs),rhsMax =  -5.11642810354857E+01  1.43985175178863E+00
(PID.TID 0000.0001)  ploadbar=  1.01096570590657E+05
 cg2d: Sum(rhs),rhsMax =  -5.12501873735421E+01  1.43700021332361E+00
(PID.TID 0000.0001)  ploadbar=  1.01098141209474E+05
 cg2d: Sum(rhs),rhsMax =  -5.13336484198317E+01  1.43420543457602E+00
(PID.TID 0000.0001)  ploadbar=  1.01099711828292E+05
 cg2d: Sum(rhs),rhsMax =  -5.14141106054988E+01  1.43147886864559E+00
(PID.TID 0000.0001)  ploadbar=  1.01101282447110E+05
 cg2d: Sum(rhs),rhsMax =  -5.14918803796693E+01  1.42880823120342E+00
(PID.TID 0000.0001)  ploadbar=  1.01102853065928E+05
 cg2d: Sum(rhs),rhsMax =  -5.15678935589918E+01  1.42620631073550E+00
(PID.TID 0000.0001)  ploadbar=  1.01104088696930E+05
 cg2d: Sum(rhs),rhsMax =  -5.16445766301496E+01  1.42360344849606E+00
(PID.TID 0000.0001)  ploadbar=  1.01105324327931E+05
 cg2d: Sum(rhs),rhsMax =  -5.17193198178466E+01  1.42106961643164E+00
(PID.TID 0000.0001)  ploadbar=  1.01106559958933E+05
 cg2d: Sum(rhs),rhsMax =  -5.17934105633882E+01  1.41856552542862E+00
(PID.TID 0000.0001)  ploadbar=  1.01107795589934E+05
 cg2d: Sum(rhs),rhsMax =  -5.18668186576410E+01  1.41608584595715E+00
(PID.TID 0000.0001)  ploadbar=  1.01109031220936E+05
 cg2d: Sum(rhs),rhsMax =  -5.19392375770700E+01  1.41363393415532E+00
(PID.TID 0000.0001)  ploadbar=  1.01110266851938E+05
 cg2d: Sum(rhs),rhsMax =  -5.20070587418396E+01  1.41128400779707E+00
(PID.TID 0000.0001)  ploadbar=  1.01111962750336E+05
 cg2d: Sum(rhs),rhsMax =  -5.20714425215728E+01  1.40900072169561E+00
(PID.TID 0000.0001)  ploadbar=  1.01113658648733E+05
 cg2d: Sum(rhs),rhsMax =  -5.21347359378901E+01  1.40671083165343E+00
(PID.TID 0000.0001)  ploadbar=  1.01115354547131E+05
 cg2d: Sum(rhs),rhsMax =  -5.21961503151031E+01  1.40443014555436E+00
(PID.TID 0000.0001)  ploadbar=  1.01117050445529E+05
 cg2d: Sum(rhs),rhsMax =  -5.22549639312530E+01  1.40217627335014E+00
(PID.TID 0000.0001)  ploadbar=  1.01118746343927E+05
 cg2d: Sum(rhs),rhsMax =  -5.23120300667372E+01  1.39992449459958E+00
(PID.TID 0000.0001)  ploadbar=  1.01120442242325E+05
 cg2d: Sum(rhs),rhsMax =  -5.23682901760231E+01  1.39772905036276E+00
(PID.TID 0000.0001)  ploadbar=  1.01122507542328E+05
 cg2d: Sum(rhs),rhsMax =  -5.24254354117923E+01  1.39554118194677E+00
(PID.TID 0000.0001)  ploadbar=  1.01124572842331E+05
 cg2d: Sum(rhs),rhsMax =  -5.24812984134971E+01  1.39341537442320E+00
(PID.TID 0000.0001)  ploadbar=  1.01126638142334E+05
 cg2d: Sum(rhs),rhsMax =  -5.25365431781405E+01  1.39132716083139E+00
(PID.TID 0000.0001)  ploadbar=  1.01128703442338E+05
 cg2d: Sum(rhs),rhsMax =  -5.25907328183388E+01  1.38927998551529E+00
(PID.TID 0000.0001)  ploadbar=  1.01130768742341E+05
 cg2d: Sum(rhs),rhsMax =  -5.26434504568977E+01  1.38727132823821E+00
(PID.TID 0000.0001)  ploadbar=  1.01132834042344E+05
 cg2d: Sum(rhs),rhsMax =  -5.26957743816945E+01  1.38526442231284E+00
(PID.TID 0000.0001)  ploadbar=  1.01134205595920E+05
 cg2d: Sum(rhs),rhsMax =  -5.27479113826255E+01  1.38324908056700E+00
(PID.TID 0000.0001)  ploadbar=  1.01135577149496E+05
 cg2d: Sum(rhs),rhsMax =  -5.28023237965101E+01  1.38115505099390E+00
(PID.TID 0000.0001)  ploadbar=  1.01136948703072E+05
 cg2d: Sum(rhs),rhsMax =  -5.28575908853841E+01  1.37901190708956E+00
(PID.TID 0000.0001)  ploadbar=  1.01138320256649E+05
 cg2d: Sum(rhs),rhsMax =  -5.29136530845541E+01  1.37681334185266E+00
(PID.TID 0000.0001)  ploadbar=  1.01139691810225E+05
 cg2d: Sum(rhs),rhsMax =  -5.29714001103063E+01  1.37453353246684E+00
(PID.TID 0000.0001)  ploadbar=  1.01141063363801E+05
 cg2d: Sum(rhs),rhsMax =  -5.30379879745403E+01  1.37208927799459E+00
(PID.TID 0000.0001)  ploadbar=  1.01142482329036E+05
 cg2d: Sum(rhs),rhsMax =  -5.31137038071533E+01  1.36947302192165E+00
(PID.TID 0000.0001)  ploadbar=  1.01143901294270E+05
 cg2d: Sum(rhs),rhsMax =  -5.31969406019817E+01  1.36672545165390E+00
(PID.TID 0000.0001)  ploadbar=  1.01145320259505E+05
 cg2d: Sum(rhs),rhsMax =  -5.32856271829582E+01  1.36389619030131E+00
(PID.TID 0000.0001)  ploadbar=  1.01146739224740E+05
 cg2d: Sum(rhs),rhsMax =  -5.33799869196499E+01  1.36097683295179E+00
(PID.TID 0000.0001)  ploadbar=  1.01148158189974E+05
 cg2d: Sum(rhs),rhsMax =  -5.34798754273221E+01  1.35796626912010E+00
(PID.TID 0000.0001)  ploadbar=  1.01149577155209E+05
 cg2d: Sum(rhs),rhsMax =  -5.35859816239142E+01  1.35480502964722E+00
(PID.TID 0000.0001)  ploadbar=  1.01149711572316E+05
 cg2d: Sum(rhs),rhsMax =  -5.36989450151154E+01  1.35147284204506E+00
(PID.TID 0000.0001)  ploadbar=  1.01149845989422E+05
 cg2d: Sum(rhs),rhsMax =  -5.38153655982390E+01  1.34804688217828E+00
(PID.TID 0000.0001)  ploadbar=  1.01149980406529E+05
 cg2d: Sum(rhs),rhsMax =  -5.39342627316994E+01  1.34454776833976E+00
(PID.TID 0000.0001)  ploadbar=  1.01150114823636E+05
 cg2d: Sum(rhs),rhsMax =  -5.40554041099082E+01  1.34098114056921E+00
(PID.TID 0000.0001)  ploadbar=  1.01150249240743E+05
 cg2d: Sum(rhs),rhsMax =  -5.41775695218136E+01  1.33737696712230E+00
(PID.TID 0000.0001)  ploadbar=  1.01150383657849E+05
 cg2d: Sum(rhs),rhsMax =  -5.42921155194758E+01  1.33404152671497E+00
(PID.TID 0000.0001)  ploadbar=  1.01150980379183E+05
 cg2d: Sum(rhs),rhsMax =  -5.44097304900315E+01  1.33070952010142E+00
(PID.TID 0000.0001)  ploadbar=  1.01151577100516E+05
 cg2d: Sum(rhs),rhsMax =  -5.45319176746764E+01  1.32733939915086E+00
(PID.TID 0000.0001)  ploadbar=  1.01152173821850E+05
 cg2d: Sum(rhs),rhsMax =  -5.46553154333819E+01  1.32400741879687E+00
(PID.TID 0000.0001)  ploadbar=  1.01152770543183E+05
 cg2d: Sum(rhs),rhsMax =  -5.47792560852794E+01  1.32072594693319E+00
(PID.TID 0000.0001)  ploadbar=  1.01153367264516E+05
 cg2d: Sum(rhs),rhsMax =  -5.49028346834727E+01  1.31751170545969E+00
(PID.TID 0000.0001)  ploadbar=  1.01153963985850E+05
 cg2d: Sum(rhs),rhsMax =  -5.50377233399588E+01  1.31404919506779E+00
(PID.TID 0000.0001)  ploadbar=  1.01154139387446E+05
 cg2d: Sum(rhs),rhsMax =  -5.51746105622376E+01  1.31056170382026E+00
(PID.TID 0000.0001)  ploadbar=  1.01154314789042E+05
 cg2d: Sum(rhs),rhsMax =  -5.53131976275438E+01  1.30705494300425E+00
(PID.TID 0000.0001)  ploadbar=  1.01154490190638E+05
 cg2d: Sum(rhs),rhsMax =  -5.54560895371953E+01  1.30346218107230E+00
(PID.TID 0000.0001)  ploadbar=  1.01154665592234E+05
 cg2d: Sum(rhs),rhsMax =  -5.56027907757235E+01  1.29979295087262E+00
(PID.TID 0000.0001)  ploadbar=  1.01154840993831E+05
 cg2d: Sum(rhs),rhsMax =  -5.57529828824848E+01  1.29605508455306E+00
(PID.TID 0000.0001)  ploadbar=  1.01155016395427E+05
 cg2d: Sum(rhs),rhsMax =  -5.59085312969735E+01  1.29223917579605E+00
(PID.TID 0000.0001)  ploadbar=  1.01155917175552E+05
 cg2d: Sum(rhs),rhsMax =  -5.60663747020316E+01  1.28841577972673E+00
(PID.TID 0000.0001)  ploadbar=  1.01156817955678E+05
 cg2d: Sum(rhs),rhsMax =  -5.62226842159331E+01  1.28466761022360E+00
(PID.TID 0000.0001)  ploadbar=  1.01157718735804E+05
 cg2d: Sum(rhs),rhsMax =  -5.63766110546048E+01  1.28100781981268E+00
(PID.TID 0000.0001)  ploadbar=  1.01158619515929E+05
 cg2d: Sum(rhs),rhsMax =  -5.65281518266672E+01  1.27743093310217E+00
(PID.TID 0000.0001)  ploadbar=  1.01159520296055E+05
 cg2d: Sum(rhs),rhsMax =  -5.66770054650505E+01  1.27393736206062E+00
(PID.TID 0000.0001)  ploadbar=  1.01160421076181E+05
 cg2d: Sum(rhs),rhsMax =  -5.68175388332735E+01  1.27061058942825E+00
(PID.TID 0000.0001)  ploadbar=  1.01159660229993E+05
 cg2d: Sum(rhs),rhsMax =  -5.69555389848989E+01  1.26730809693668E+00
(PID.TID 0000.0001)  ploadbar=  1.01158899383805E+05
 cg2d: Sum(rhs),rhsMax =  -5.70914613505845E+01  1.26401637558912E+00
(PID.TID 0000.0001)  ploadbar=  1.01158138537617E+05
 cg2d: Sum(rhs),rhsMax =  -5.72253980761038E+01  1.26073144454226E+00
(PID.TID 0000.0001)  ploadbar=  1.01157377691429E+05
 cg2d: Sum(rhs),rhsMax =  -5.73573395229289E+01  1.25745034955810E+00
(PID.TID 0000.0001)  ploadbar=  1.01156616845241E+05
 cg2d: Sum(rhs),rhsMax =  -5.74871332159847E+01  1.25417518939779E+00
(PID.TID 0000.0001)  ploadbar=  1.01155855999054E+05
 cg2d: Sum(rhs),rhsMax =  -5.76117673962396E+01  1.25109019612139E+00
(PID.TID 0000.0001)  ploadbar=  1.01154196820837E+05
 cg2d: Sum(rhs),rhsMax =  -5.77374956345052E+01  1.24805781882486E+00
(PID.TID 0000.0001)  ploadbar=  1.01152537642620E+05
 cg2d: Sum(rhs),rhsMax =  -5.78629318401333E+01  1.24510529967107E+00
(PID.TID 0000.0001)  ploadbar=  1.01150878464403E+05
 cg2d: Sum(rhs),rhsMax =  -5.79869123854585E+01  1.24225451012486E+00
(PID.TID 0000.0001)  ploadbar=  1.01149219286187E+05
 cg2d: Sum(rhs),rhsMax =  -5.81093907951282E+01  1.23949980913398E+00
(PID.TID 0000.0001)  ploadbar=  1.01147560107970E+05
 cg2d: Sum(rhs),rhsMax =  -5.82287363365936E+01  1.23686696714677E+00
(PID.TID 0000.0001)  ploadbar=  1.01145900929753E+05
 cg2d: Sum(rhs),rhsMax =  -5.83432706642538E+01  1.23432830650351E+00
(PID.TID 0000.0001)  ploadbar=  1.01145984775287E+05
 cg2d: Sum(rhs),rhsMax =  -5.84473816590701E+01  1.23199744335453E+00
(PID.TID 0000.0001)  ploadbar=  1.01146068620820E+05
 cg2d: Sum(rhs),rhsMax =  -5.85410435733500E+01  1.22986740711703E+00
(PID.TID 0000.0001)  ploadbar=  1.01146152466354E+05
 cg2d: Sum(rhs),rhsMax =  -5.86261725430112E+01  1.22789160710211E+00
(PID.TID 0000.0001)  ploadbar=  1.01146236311888E+05
 cg2d: Sum(rhs),rhsMax =  -5.87013079757990E+01  1.22609610507504E+00
(PID.TID 0000.0001)  ploadbar=  1.01146320157421E+05
 cg2d: Sum(rhs),rhsMax =  -5.87664655435466E+01  1.22447515387805E+00
(PID.TID 0000.0001)  ploadbar=  1.01146404002955E+05
 cg2d: Sum(rhs),rhsMax =  -5.88232496547882E+01  1.22302017755727E+00
(PID.TID 0000.0001)  ploadbar=  1.01147332448759E+05
 cg2d: Sum(rhs),rhsMax =  -5.88688464930281E+01  1.22178637716826E+00
(PID.TID 0000.0001)  ploadbar=  1.01148260894563E+05
 cg2d: Sum(rhs),rhsMax =  -5.89051722819826E+01  1.22073249065224E+00
(PID.TID 0000.0001)  ploadbar=  1.01149189340367E+05
 cg2d: Sum(rhs),rhsMax =  -5.89353966195543E+01  1.21978416815700E+00
(PID.TID 0000.0001)  ploadbar=  1.01150117786171E+05
 cg2d: Sum(rhs),rhsMax =  -5.89611465254029E+01  1.21890345238387E+00
(PID.TID 0000.0001)  ploadbar=  1.01151046231976E+05
 cg2d: Sum(rhs),rhsMax =  -5.89830190785744E+01  1.21806803603390E+00
(PID.TID 0000.0001)  ploadbar=  1.01151974677780E+05
 cg2d: Sum(rhs),rhsMax =  -5.90139884123795E+01  1.21704190600490E+00
(PID.TID 0000.0001)  ploadbar=  1.01152414175913E+05
 cg2d: Sum(rhs),rhsMax =  -5.90413025855922E+01  1.21608370925957E+00
(PID.TID 0000.0001)  ploadbar=  1.01152853674047E+05
 cg2d: Sum(rhs),rhsMax =  -5.90618941347205E+01  1.21525581331399E+00
(PID.TID 0000.0001)  ploadbar=  1.01153293172180E+05
 cg2d: Sum(rhs),rhsMax =  -5.90779461427320E+01  1.21451031746100E+00
(PID.TID 0000.0001)  ploadbar=  1.01153732670314E+05
 cg2d: Sum(rhs),rhsMax =  -5.90890556053531E+01  1.21385221763313E+00
(PID.TID 0000.0001)  ploadbar=  1.01154172168447E+05
 cg2d: Sum(rhs),rhsMax =  -5.90948064246988E+01  1.21328665387343E+00
(PID.TID 0000.0001)  ploadbar=  1.01154611666581E+05
 cg2d: Sum(rhs),rhsMax =  -5.90905020171656E+01  1.21297481123271E+00
(PID.TID 0000.0001)  ploadbar=  1.01155633202438E+05
 cg2d: Sum(rhs),rhsMax =  -5.90828226325055E+01  1.21277579547387E+00
(PID.TID 0000.0001)  ploadbar=  1.01156654738294E+05
 cg2d: Sum(rhs),rhsMax =  -5.90765859924094E+01  1.21258947328728E+00
(PID.TID 0000.0001)  ploadbar=  1.01157676274151E+05
 cg2d: Sum(rhs),rhsMax =  -5.90668241520717E+01  1.21251459695635E+00
(PID.TID 0000.0001)  ploadbar=  1.01158697810007E+05
 cg2d: Sum(rhs),rhsMax =  -5.90519672280625E+01  1.21257833537245E+00
(PID.TID 0000.0001)  ploadbar=  1.01159719345864E+05
 cg2d: Sum(rhs),rhsMax =  -5.90315638989462E+01  1.21278098679857E+00
(PID.TID 0000.0001)  ploadbar=  1.01160740881720E+05
 cg2d: Sum(rhs),rhsMax =  -5.90080627572573E+01  1.21304592661452E+00
(PID.TID 0000.0001)  ploadbar=  1.01160328741133E+05
 cg2d: Sum(rhs),rhsMax =  -5.89801034593440E+01  1.21339787979958E+00
(PID.TID 0000.0001)  ploadbar=  1.01159916600547E+05
 cg2d: Sum(rhs),rhsMax =  -5.89460124025246E+01  1.21386314749668E+00
(PID.TID 0000.0001)  ploadbar=  1.01159504459960E+05
 cg2d: Sum(rhs),rhsMax =  -5.89072169042666E+01  1.21440552290084E+00
(PID.TID 0000.0001)  ploadbar=  1.01159092319373E+05
 cg2d: Sum(rhs),rhsMax =  -5.88659076262003E+01  1.21497346234029E+00
(PID.TID 0000.0001)  ploadbar=  1.01158680178786E+05
 cg2d: Sum(rhs),rhsMax =  -5.88229269128176E+01  1.21554573977818E+00
(PID.TID 0000.0001)  ploadbar=  1.01158268038200E+05
 cg2d: Sum(rhs),rhsMax =  -5.87701397270756E+01  1.21634134026759E+00
(PID.TID 0000.0001)  ploadbar=  1.01157250891005E+05
 cg2d: Sum(rhs),rhsMax =  -5.87164494434097E+01  1.21717414198455E+00
(PID.TID 0000.0001)  ploadbar=  1.01156233743810E+05
 cg2d: Sum(rhs),rhsMax =  -5.86690412348279E+01  1.21789190330987E+00
(PID.TID 0000.0001)  ploadbar=  1.01155216596616E+05
 cg2d: Sum(rhs),rhsMax =  -5.86250577732455E+01  1.21854501373931E+00
(PID.TID 0000.0001)  ploadbar=  1.01154199449421E+05
 cg2d: Sum(rhs),rhsMax =  -5.85858768164742E+01  1.21909888459239E+00
(PID.TID 0000.0001)  ploadbar=  1.01153182302226E+05
 cg2d: Sum(rhs),rhsMax =  -5.85548184411241E+01  1.21947740629318E+00
(PID.TID 0000.0001)  ploadbar=  1.01152165155031E+05
 cg2d: Sum(rhs),rhsMax =  -5.85474862047657E+01  1.21930437865948E+00
(PID.TID 0000.0001)  ploadbar=  1.01151734585887E+05
 cg2d: Sum(rhs),rhsMax =  -5.85602282214585E+01  1.21865242343429E+00
(PID.TID 0000.0001)  ploadbar=  1.01151304016742E+05
 cg2d: Sum(rhs),rhsMax =  -5.80387271361995E+01  1.22915014498531E+00
(PID.TID 0000.0001)  ploadbar=  1.01150873447598E+05
 cg2d: Sum(rhs),rhsMax =  -5.67260764164113E+01  1.25706344170840E+00
(PID.TID 0000.0001)  ploadbar=  1.01150442878454E+05
 cg2d: Sum(rhs),rhsMax =  -5.54708507091471E+01  1.28489560823600E+00
(PID.TID 0000.0001)  ploadbar=  1.01150012309309E+05
 cg2d: Sum(rhs),rhsMax =  -5.42935171175325E+01  1.31205783912031E+00
(PID.TID 0000.0001)  ploadbar=  1.01149581740165E+05
 cg2d: Sum(rhs),rhsMax =  -5.32521426935187E+01  1.33708377305752E+00
(PID.TID 0000.0001)  ploadbar=  1.01149070617488E+05
 cg2d: Sum(rhs),rhsMax =  -5.23288798816535E+01  1.36011031873876E+00
(PID.TID 0000.0001)  ploadbar=  1.01148559494811E+05
 cg2d: Sum(rhs),rhsMax =  -5.16464158560317E+01  1.37758834885090E+00
(PID.TID 0000.0001)  ploadbar=  1.01148048372135E+05
 cg2d: Sum(rhs),rhsMax =  -5.11447565261574E+01  1.39067739101327E+00
(PID.TID 0000.0001)  ploadbar=  1.01147537249458E+05
 cg2d: Sum(rhs),rhsMax =  -5.07415980755845E+01  1.40137189129509E+00
(PID.TID 0000.0001)  ploadbar=  1.01147026126781E+05
 cg2d: Sum(rhs),rhsMax =  -5.03749605944645E+01  1.41127638402827E+00
(PID.TID 0000.0001)  ploadbar=  1.01146515004104E+05
 cg2d: Sum(rhs),rhsMax =  -4.99651728377667E+01  1.42258188804184E+00
(PID.TID 0000.0001)  ploadbar=  1.01145398191748E+05
 cg2d: Sum(rhs),rhsMax =  -4.95028076322073E+01  1.43561418175723E+00
(PID.TID 0000.0001)  ploadbar=  1.01144281379393E+05
 cg2d: Sum(rhs),rhsMax =  -4.89991049938442E+01  1.45012544126868E+00
(PID.TID 0000.0001)  ploadbar=  1.01143164567037E+05
 cg2d: Sum(rhs),rhsMax =  -4.84803606341027E+01  1.46539951919831E+00
(PID.TID 0000.0001)  ploadbar=  1.01142047754681E+05
 cg2d: Sum(rhs),rhsMax =  -4.79380312734832E+01  1.48173546837987E+00
(PID.TID 0000.0001)  ploadbar=  1.01140930942325E+05
 cg2d: Sum(rhs),rhsMax =  -4.74350373454004E+01  1.49720445269592E+00
(PID.TID 0000.0001)  ploadbar=  1.01139814129970E+05
 cg2d: Sum(rhs),rhsMax =  -4.69903998010346E+01  1.51111101183407E+00
(PID.TID 0000.0001)  ploadbar=  1.01139931359417E+05
 cg2d: Sum(rhs),rhsMax =  -4.66267110647341E+01  1.52261632799277E+00
(PID.TID 0000.0001)  ploadbar=  1.01140048588864E+05
 cg2d: Sum(rhs),rhsMax =  -4.63476163598984E+01  1.53147972984657E+00
(PID.TID 0000.0001)  ploadbar=  1.01140165818311E+05
 cg2d: Sum(rhs),rhsMax =  -4.61445454637159E+01  1.53788263078274E+00
(PID.TID 0000.0001)  ploadbar=  1.01140283047758E+05
 cg2d: Sum(rhs),rhsMax =  -4.60055105804436E+01  1.54215449919954E+00
(PID.TID 0000.0001)  ploadbar=  1.01140400277205E+05
 cg2d: Sum(rhs),rhsMax =  -4.59145734702154E+01  1.54478770056847E+00
(PID.TID 0000.0001)  ploadbar=  1.01140517506652E+05
 cg2d: Sum(rhs),rhsMax =  -4.58635091443195E+01  1.54603096577880E+00
(PID.TID 0000.0001)  ploadbar=  1.01140714940362E+05
 cg2d: Sum(rhs),rhsMax =  -4.58236747736107E+01  1.54683912917151E+00
(PID.TID 0000.0001)  ploadbar=  1.01140912374071E+05
 cg2d: Sum(rhs),rhsMax =  -4.57874715014708E+01  1.54746282913101E+00
(PID.TID 0000.0001)  ploadbar=  1.01141109807781E+05
 cg2d: Sum(rhs),rhsMax =  -4.57501709043077E+01  1.54805696692769E+00
(PID.TID 0000.0001)  ploadbar=  1.01141307241490E+05
 cg2d: Sum(rhs),rhsMax =  -4.57105143263071E+01  1.54866403301576E+00
(PID.TID 0000.0001)  ploadbar=  1.01141504675200E+05
 cg2d: Sum(rhs),rhsMax =  -4.56703341533599E+01  1.54922124894544E+00
(PID.TID 0000.0001)  ploadbar=  1.01141702108910E+05
 cg2d: Sum(rhs),rhsMax =  -4.56129487876563E+01  1.55043727798033E+00
(PID.TID 0000.0001)  ploadbar=  1.01141320733737E+05
 cg2d: Sum(rhs),rhsMax =  -4.55388306042154E+01  1.55229555964217E+00
(PID.TID 0000.0001)  ploadbar=  1.01140939358565E+05
 cg2d: Sum(rhs),rhsMax =  -4.54569702864809E+01  1.55449108637855E+00
(PID.TID 0000.0001)  ploadbar=  1.01140557983392E+05
 cg2d: Sum(rhs),rhsMax =  -4.55953116822416E+01  1.54923722488071E+00
(PID.TID 0000.0001)  ploadbar=  1.01140176608219E+05
 cg2d: Sum(rhs),rhsMax =  -4.58336366498342E+01  1.54070291833450E+00
(PID.TID 0000.0001)  ploadbar=  1.01139795233047E+05
 cg2d: Sum(rhs),rhsMax =  -4.61216534138215E+01  1.53065326895008E+00
(PID.TID 0000.0001)  ploadbar=  1.01139413857874E+05
 cg2d: Sum(rhs),rhsMax =  -4.64407515908611E+01  1.51973308423987E+00
(PID.TID 0000.0001)  ploadbar=  1.01138831493154E+05
 cg2d: Sum(rhs),rhsMax =  -4.67867826901259E+01  1.50810348195240E+00
(PID.TID 0000.0001)  ploadbar=  1.01138249128433E+05
 cg2d: Sum(rhs),rhsMax =  -4.71601036016248E+01  1.49578567159466E+00
(PID.TID 0000.0001)  ploadbar=  1.01137666763713E+05
 cg2d: Sum(rhs),rhsMax =  -4.75583826966188E+01  1.48288677387483E+00
(PID.TID 0000.0001)  ploadbar=  1.01137084398992E+05
 cg2d: Sum(rhs),rhsMax =  -4.79966785294198E+01  1.46897689828745E+00
(PID.TID 0000.0001)  ploadbar=  1.01136502034272E+05
 cg2d: Sum(rhs),rhsMax =  -4.85233742307139E+01  1.45266308513186E+00
(PID.TID 0000.0001)  ploadbar=  1.01135919669552E+05
 cg2d: Sum(rhs),rhsMax =  -4.90400780633814E+01  1.43699555676103E+00
(PID.TID 0000.0001)  ploadbar=  1.01135696235600E+05
 cg2d: Sum(rhs),rhsMax =  -4.95678044909421E+01  1.42133896752055E+00
(PID.TID 0000.0001)  ploadbar=  1.01135472801648E+05
 cg2d: Sum(rhs),rhsMax =  -5.01188111694102E+01  1.40535434623780E+00
(PID.TID 0000.0001)  ploadbar=  1.01135249367696E+05
 cg2d: Sum(rhs),rhsMax =  -5.07089613334663E+01  1.38863537546990E+00
(PID.TID 0000.0001)  ploadbar=  1.01135025933744E+05
 cg2d: Sum(rhs),rhsMax =  -5.13478697101696E+01  1.37098136142116E+00
(PID.TID 0000.0001)  ploadbar=  1.01134802499792E+05
 cg2d: Sum(rhs),rhsMax =  -5.20406653862667E+01  1.35233652321026E+00
(PID.TID 0000.0001)  ploadbar=  1.01134579065840E+05
 cg2d: Sum(rhs),rhsMax =  -5.26787368755624E+01  1.33555021990117E+00
(PID.TID 0000.0001)  ploadbar=  1.01133836001612E+05
 cg2d: Sum(rhs),rhsMax =  -5.32683637653790E+01  1.32034347527956E+00
(PID.TID 0000.0001)  ploadbar=  1.01133092937385E+05
 cg2d: Sum(rhs),rhsMax =  -5.38355789978711E+01  1.30598898144435E+00
(PID.TID 0000.0001)  ploadbar=  1.01132349873157E+05
 cg2d: Sum(rhs),rhsMax =  -5.44210481268417E+01  1.29147434055041E+00
(PID.TID 0000.0001)  ploadbar=  1.01131606808929E+05
 cg2d: Sum(rhs),rhsMax =  -5.50695319765546E+01  1.27577923827070E+00
(PID.TID 0000.0001)  ploadbar=  1.01130863744701E+05
 cg2d: Sum(rhs),rhsMax =  -5.58206306876546E+01  1.25810387000738E+00
(PID.TID 0000.0001)  ploadbar=  1.01130120680473E+05
 cg2d: Sum(rhs),rhsMax =  -5.65578287846697E+01  1.24124815514640E+00
(PID.TID 0000.0001)  ploadbar=  1.01129803542803E+05
 cg2d: Sum(rhs),rhsMax =  -5.73528756314774E+01  1.22363199917054E+00
(PID.TID 0000.0001)  ploadbar=  1.01129486405133E+05
 cg2d: Sum(rhs),rhsMax =  -5.81461757416206E+01  1.20657028762130E+00
(PID.TID 0000.0001)  ploadbar=  1.01129169267463E+05
 cg2d: Sum(rhs),rhsMax =  -5.89238340827509E+01  1.19031557013903E+00
(PID.TID 0000.0001)  ploadbar=  1.01128852129794E+05
 cg2d: Sum(rhs),rhsMax =  -5.95693299185098E+01  1.17711866345362E+00
(PID.TID 0000.0001)  ploadbar=  1.01128534992124E+05
 cg2d: Sum(rhs),rhsMax =  -6.00211899562357E+01  1.16798172828061E+00
(PID.TID 0000.0001)  ploadbar=  1.01128217854454E+05
 cg2d: Sum(rhs),rhsMax =  -6.03703305869149E+01  1.16097284488429E+00
(PID.TID 0000.0001)  ploadbar=  1.01127231719532E+05
 cg2d: Sum(rhs),rhsMax =  -6.06501037091443E+01  1.15538094966727E+00
(PID.TID 0000.0001)  ploadbar=  1.01126245584610E+05
 cg2d: Sum(rhs),rhsMax =  -6.07281430916084E+01  1.15367437677788E+00
(PID.TID 0000.0001)  ploadbar=  1.01125259449688E+05
 cg2d: Sum(rhs),rhsMax =  -5.99512793791572E+01  1.16840980794145E+00
(PID.TID 0000.0001)  ploadbar=  1.01124273314766E+05
 cg2d: Sum(rhs),rhsMax =  -5.90781463740949E+01  1.18546775855505E+00
(PID.TID 0000.0001)  ploadbar=  1.01123287179844E+05
 cg2d: Sum(rhs),rhsMax =  -5.81223885486179E+01  1.20474960933541E+00
(PID.TID 0000.0001)  ploadbar=  1.01122301044922E+05
 cg2d: Sum(rhs),rhsMax =  -5.70294708023525E+01  1.22761787630056E+00
(PID.TID 0000.0001)  ploadbar=  1.01122453575512E+05
 cg2d: Sum(rhs),rhsMax =  -5.59265685210438E+01  1.25159695417306E+00
(PID.TID 0000.0001)  ploadbar=  1.01122606106102E+05
 cg2d: Sum(rhs),rhsMax =  -5.48372495806597E+01  1.27621342187804E+00
(PID.TID 0000.0001)  ploadbar=  1.01122758636691E+05
 cg2d: Sum(rhs),rhsMax =  -5.37563683664764E+01  1.30161037621211E+00
(PID.TID 0000.0001)  ploadbar=  1.01122911167281E+05
 cg2d: Sum(rhs),rhsMax =  -5.26904169691520E+01  1.32765650257616E+00
(PID.TID 0000.0001)  ploadbar=  1.01123063697871E+05
 cg2d: Sum(rhs),rhsMax =  -5.16367004739847E+01  1.35443386001859E+00
(PID.TID 0000.0001)  ploadbar=  1.01123216228460E+05
 cg2d: Sum(rhs),rhsMax =  -5.07459243560368E+01  1.37785808157816E+00
(PID.TID 0000.0001)  ploadbar=  1.01122750044224E+05
 cg2d: Sum(rhs),rhsMax =  -5.01972268935019E+01  1.39253289512091E+00
(PID.TID 0000.0001)  ploadbar=  1.01122283859988E+05
 cg2d: Sum(rhs),rhsMax =  -4.97746463101201E+01  1.40393166906774E+00
(PID.TID 0000.0001)  ploadbar=  1.01121817675751E+05
 cg2d: Sum(rhs),rhsMax =  -4.94316312577595E+01  1.41321121559472E+00
(PID.TID 0000.0001)  ploadbar=  1.01121351491515E+05
 cg2d: Sum(rhs),rhsMax =  -4.90156933021233E+01  1.42469801029876E+00
(PID.TID 0000.0001)  ploadbar=  1.01120885307279E+05
 cg2d: Sum(rhs),rhsMax =  -4.86939621008008E+01  1.43356208997286E+00
(PID.TID 0000.0001)  ploadbar=  1.01120419123042E+05
 cg2d: Sum(rhs),rhsMax =  -4.85569888634919E+01  1.43710346769578E+00
(PID.TID 0000.0001)  ploadbar=  1.01121045662023E+05
 cg2d: Sum(rhs),rhsMax =  -4.86321073256534E+01  1.43442394811022E+00
(PID.TID 0000.0001)  ploadbar=  1.01121672201004E+05
 cg2d: Sum(rhs),rhsMax =  -4.87661948164881E+01  1.43006075309510E+00
(PID.TID 0000.0001)  ploadbar=  1.01122298739984E+05
 cg2d: Sum(rhs),rhsMax =  -4.89819409726914E+01  1.42338274775806E+00
(PID.TID 0000.0001)  ploadbar=  1.01122925278965E+05
 cg2d: Sum(rhs),rhsMax =  -4.92222800831433E+01  1.41608983796131E+00
(PID.TID 0000.0001)  ploadbar=  1.01123551817946E+05
 cg2d: Sum(rhs),rhsMax =  -4.94444474923505E+01  1.40941190386747E+00
(PID.TID 0000.0001)  ploadbar=  1.01124178356926E+05
 cg2d: Sum(rhs),rhsMax =  -4.95265270040191E+01  1.40676375762532E+00
(PID.TID 0000.0001)  ploadbar=  1.01124805063512E+05
 cg2d: Sum(rhs),rhsMax =  -4.95934503857202E+01  1.40455359101299E+00
(PID.TID 0000.0001)  ploadbar=  1.01125431770097E+05
 cg2d: Sum(rhs),rhsMax =  -4.96640024121750E+01  1.40224251393177E+00
(PID.TID 0000.0001)  ploadbar=  1.01126058476682E+05
 cg2d: Sum(rhs),rhsMax =  -4.97311773929329E+01  1.40002720914544E+00
(PID.TID 0000.0001)  ploadbar=  1.01126685183268E+05
 cg2d: Sum(rhs),rhsMax =  -4.98018688104451E+01  1.39770975543337E+00
(PID.TID 0000.0001)  ploadbar=  1.01127311889853E+05
 cg2d: Sum(rhs),rhsMax =  -4.98814759060225E+01  1.39513534713143E+00
(PID.TID 0000.0001)  ploadbar=  1.01127938596438E+05
 cg2d: Sum(rhs),rhsMax =  -4.99336575485681E+01  1.39333760868909E+00
(PID.TID 0000.0001)  ploadbar=  1.01128126306179E+05
 cg2d: Sum(rhs),rhsMax =  -5.00235467168928E+01  1.39049243497696E+00
(PID.TID 0000.0001)  ploadbar=  1.01128314015919E+05
 cg2d: Sum(rhs),rhsMax =  -5.01817233091557E+01  1.38576374162717E+00
(PID.TID 0000.0001)  ploadbar=  1.01128501725659E+05
 cg2d: Sum(rhs),rhsMax =  -5.04374053314270E+01  1.37838438947045E+00
(PID.TID 0000.0001)  ploadbar=  1.01128689435399E+05
 cg2d: Sum(rhs),rhsMax =  -5.08194633391048E+01  1.36765614570358E+00
(PID.TID 0000.0001)  ploadbar=  1.01128877145139E+05
 cg2d: Sum(rhs),rhsMax =  -5.13527991476402E+01  1.35307202766403E+00
(PID.TID 0000.0001)  ploadbar=  1.01129064854880E+05
 cg2d: Sum(rhs),rhsMax =  -5.19264793861494E+01  1.33771055579767E+00
(PID.TID 0000.0001)  ploadbar=  1.01129288456005E+05
 cg2d: Sum(rhs),rhsMax =  -5.25273673440829E+01  1.32196222230104E+00
(PID.TID 0000.0001)  ploadbar=  1.01129512057130E+05
 cg2d: Sum(rhs),rhsMax =  -5.31130474184186E+01  1.30690674785543E+00
(PID.TID 0000.0001)  ploadbar=  1.01129735658255E+05
 cg2d: Sum(rhs),rhsMax =  -5.36822332631944E+01  1.29253752162865E+00
(PID.TID 0000.0001)  ploadbar=  1.01129959259380E+05
 cg2d: Sum(rhs),rhsMax =  -5.42504472260587E+01  1.27845103114082E+00
(PID.TID 0000.0001)  ploadbar=  1.01130182860506E+05
 cg2d: Sum(rhs),rhsMax =  -5.48374028508769E+01  1.26418145950762E+00
(PID.TID 0000.0001)  ploadbar=  1.01130406461631E+05
 cg2d: Sum(rhs),rhsMax =  -5.56474406225565E+01  1.24529862101449E+00
(PID.TID 0000.0001)  ploadbar=  1.01130340233188E+05
 cg2d: Sum(rhs),rhsMax =  -5.64339105544442E+01  1.22756080116484E+00
(PID.TID 0000.0001)  ploadbar=  1.01130274004746E+05
 cg2d: Sum(rhs),rhsMax =  -5.71581294819392E+01  1.21171527963006E+00
(PID.TID 0000.0001)  ploadbar=  1.01130207776304E+05
 cg2d: Sum(rhs),rhsMax =  -5.77200242993613E+01  1.19971276441112E+00
(PID.TID 0000.0001)  ploadbar=  1.01130141547861E+05
 cg2d: Sum(rhs),rhsMax =  -5.81432667685226E+01  1.19085286522653E+00
(PID.TID 0000.0001)  ploadbar=  1.01130075319419E+05
 cg2d: Sum(rhs),rhsMax =  -5.84735501864013E+01  1.18407262872553E+00
(PID.TID 0000.0001)  ploadbar=  1.01130009090977E+05
 cg2d: Sum(rhs),rhsMax =  -5.86912868094735E+01  1.17960623506535E+00
(PID.TID 0000.0001)  ploadbar=  1.01129859640716E+05
 cg2d: Sum(rhs),rhsMax =  -5.89122417054121E+01  1.17508282663208E+00
(PID.TID 0000.0001)  ploadbar=  1.01129710190454E+05
 cg2d: Sum(rhs),rhsMax =  -5.91163612475141E+01  1.17089880504494E+00
(PID.TID 0000.0001)  ploadbar=  1.01129560740193E+05
 cg2d: Sum(rhs),rhsMax =  -5.93112183753710E+01  1.16689748926521E+00
(PID.TID 0000.0001)  ploadbar=  1.01129411289932E+05
 cg2d: Sum(rhs),rhsMax =  -5.94846603574783E+01  1.16331134635247E+00
(PID.TID 0000.0001)  ploadbar=  1.01129261839671E+05
 cg2d: Sum(rhs),rhsMax =  -5.96214726098093E+01  1.16042628053075E+00
(PID.TID 0000.0001)  ploadbar=  1.01129112389409E+05
 cg2d: Sum(rhs),rhsMax =  -5.95355207087803E+01  1.16188703384544E+00
(PID.TID 0000.0001)  ploadbar=  1.01129549914557E+05
 cg2d: Sum(rhs),rhsMax =  -5.94835026861941E+01  1.16268823388480E+00
(PID.TID 0000.0001)  ploadbar=  1.01129987439705E+05
 cg2d: Sum(rhs),rhsMax =  -5.94544066831997E+01  1.16304022018896E+00
(PID.TID 0000.0001)  ploadbar=  1.01130424964853E+05
 cg2d: Sum(rhs),rhsMax =  -5.94126766277477E+01  1.16363310976728E+00
(PID.TID 0000.0001)  ploadbar=  1.01130862490000E+05
 cg2d: Sum(rhs),rhsMax =  -5.93740378844610E+01  1.16415501480879E+00
(PID.TID 0000.0001)  ploadbar=  1.01131300015148E+05
 cg2d: Sum(rhs),rhsMax =  -5.94111943980086E+01  1.16317709870231E+00
(PID.TID 0000.0001)  ploadbar=  1.01131737540296E+05
 cg2d: Sum(rhs),rhsMax =  -5.96174440396920E+01  1.15889081134320E+00
(PID.TID 0000.0001)  ploadbar=  1.01130988179612E+05
 cg2d: Sum(rhs),rhsMax =  -5.98824191860375E+01  1.15348885172819E+00
(PID.TID 0000.0001)  ploadbar=  1.01130238818927E+05
 cg2d: Sum(rhs),rhsMax =  -6.01996658684916E+01  1.14712241051068E+00
(PID.TID 0000.0001)  ploadbar=  1.01129489458243E+05
 cg2d: Sum(rhs),rhsMax =  -6.05514775505845E+01  1.14015706742103E+00
(PID.TID 0000.0001)  ploadbar=  1.01128740097559E+05
 cg2d: Sum(rhs),rhsMax =  -6.09179294725585E+01  1.13298645022695E+00
(PID.TID 0000.0001)  ploadbar=  1.01127990736875E+05
 cg2d: Sum(rhs),rhsMax =  -6.11205571788917E+01  1.12890582578478E+00
(PID.TID 0000.0001)  ploadbar=  1.01127241376190E+05
 cg2d: Sum(rhs),rhsMax =  -6.14511771168534E+01  1.12254829113082E+00
(PID.TID 0000.0001)  ploadbar=  1.01125499179574E+05
 cg2d: Sum(rhs),rhsMax =  -6.18523374133556E+01  1.11501879590683E+00
(PID.TID 0000.0001)  ploadbar=  1.01123756982957E+05
 cg2d: Sum(rhs),rhsMax =  -6.23396607799113E+01  1.10608725670563E+00
(PID.TID 0000.0001)  ploadbar=  1.01122014786341E+05
 cg2d: Sum(rhs),rhsMax =  -6.29311977201990E+01  1.09550759440908E+00
(PID.TID 0000.0001)  ploadbar=  1.01120272589725E+05
 cg2d: Sum(rhs),rhsMax =  -6.33451805933238E+01  1.08819714047031E+00
(PID.TID 0000.0001)  ploadbar=  1.01118530393108E+05
 cg2d: Sum(rhs),rhsMax =  -6.34510772343186E+01  1.08625849524824E+00
(PID.TID 0000.0001)  ploadbar=  1.01116788196492E+05
 cg2d: Sum(rhs),rhsMax =  -6.35645415397560E+01  1.08419273166757E+00
(PID.TID 0000.0001)  ploadbar=  1.01116852702411E+05
 cg2d: Sum(rhs),rhsMax =  -6.36801257836452E+01  1.08209201149453E+00
(PID.TID 0000.0001)  ploadbar=  1.01116917208330E+05
 cg2d: Sum(rhs),rhsMax =  -6.37907880336948E+01  1.08007434005300E+00
(PID.TID 0000.0001)  ploadbar=  1.01116981714248E+05
 cg2d: Sum(rhs),rhsMax =  -6.38962240965897E+01  1.07814139578281E+00
(PID.TID 0000.0001)  ploadbar=  1.01117046220167E+05
 cg2d: Sum(rhs),rhsMax =  -6.39946206779813E+01  1.07631952302548E+00
(PID.TID 0000.0001)  ploadbar=  1.01117110726086E+05
 cg2d: Sum(rhs),rhsMax =  -6.40852213008170E+01  1.07461656076886E+00
(PID.TID 0000.0001)  ploadbar=  1.01117175232005E+05
 cg2d: Sum(rhs),rhsMax =  -6.41747930570353E+01  1.07295423926828E+00
(PID.TID 0000.0001)  ploadbar=  1.01118487521576E+05
 cg2d: Sum(rhs),rhsMax =  -6.42708918496121E+01  1.07120373180578E+00
(PID.TID 0000.0001)  ploadbar=  1.01119799811146E+05
 cg2d: Sum(rhs),rhsMax =  -6.43615120195009E+01  1.06956337669689E+00
(PID.TID 0000.0001)  ploadbar=  1.01121112100717E+05
 cg2d: Sum(rhs),rhsMax =  -6.44496274563282E+01  1.06798175852652E+00
(PID.TID 0000.0001)  ploadbar=  1.01122424390288E+05
 cg2d: Sum(rhs),rhsMax =  -6.45338059957641E+01  1.06647926190547E+00
(PID.TID 0000.0001)  ploadbar=  1.01123736679859E+05
 cg2d: Sum(rhs),rhsMax =  -6.46089841889668E+01  1.06513194434253E+00
(PID.TID 0000.0001)  ploadbar=  1.01125048969429E+05
 cg2d: Sum(rhs),rhsMax =  -6.46821322464463E+01  1.06379204813070E+00
(PID.TID 0000.0001)  ploadbar=  1.01125769583376E+05
 cg2d: Sum(rhs),rhsMax =  -6.47634493967289E+01  1.06229101618896E+00
(PID.TID 0000.0001)  ploadbar=  1.01126490197322E+05
 cg2d: Sum(rhs),rhsMax =  -6.48494782581786E+01  1.06068475187702E+00
(PID.TID 0000.0001)  ploadbar=  1.01127210811269E+05
 cg2d: Sum(rhs),rhsMax =  -6.49407986672925E+01  1.05896302438613E+00
(PID.TID 0000.0001)  ploadbar=  1.01127931425216E+05
 cg2d: Sum(rhs),rhsMax =  -6.50367396961217E+01  1.05713612924861E+00
(PID.TID 0000.0001)  ploadbar=  1.01128652039162E+05
 cg2d: Sum(rhs),rhsMax =  -6.51351666622203E+01  1.05523722015704E+00
(PID.TID 0000.0001)  ploadbar=  1.01129372653109E+05
 cg2d: Sum(rhs),rhsMax =  -6.52798317271680E+01  1.05266096593238E+00
(PID.TID 0000.0001)  ploadbar=  1.01129733617350E+05
 cg2d: Sum(rhs),rhsMax =  -6.54344849442563E+01  1.04999644734155E+00
(PID.TID 0000.0001)  ploadbar=  1.01130094581592E+05
 cg2d: Sum(rhs),rhsMax =  -6.56041575092322E+01  1.04716373559582E+00
(PID.TID 0000.0001)  ploadbar=  1.01130455545833E+05
 cg2d: Sum(rhs),rhsMax =  -6.57812978765942E+01  1.04428369801297E+00
(PID.TID 0000.0001)  ploadbar=  1.01130816510075E+05
 cg2d: Sum(rhs),rhsMax =  -6.59576128671694E+01  1.04148626776792E+00
(PID.TID 0000.0001)  ploadbar=  1.01131177474316E+05
 cg2d: Sum(rhs),rhsMax =  -6.61279608447344E+01  1.03884962804953E+00
(PID.TID 0000.0001)  ploadbar=  1.01131538438558E+05
 cg2d: Sum(rhs),rhsMax =  -6.62689900899048E+01  1.03668219895085E+00
(PID.TID 0000.0001)  ploadbar=  1.01131894109103E+05
 cg2d: Sum(rhs),rhsMax =  -6.64036969807439E+01  1.03461613963064E+00
(PID.TID 0000.0001)  ploadbar=  1.01132249779649E+05
 cg2d: Sum(rhs),rhsMax =  -6.65504384859160E+01  1.03236422599062E+00
(PID.TID 0000.0001)  ploadbar=  1.01132605450194E+05
 cg2d: Sum(rhs),rhsMax =  -6.67038331121930E+01  1.03000848244727E+00
(PID.TID 0000.0001)  ploadbar=  1.01132961120739E+05
 cg2d: Sum(rhs),rhsMax =  -6.68643582031421E+01  1.02753770152120E+00
(PID.TID 0000.0001)  ploadbar=  1.01133316791284E+05
 cg2d: Sum(rhs),rhsMax =  -6.70370910362753E+01  1.02487268439404E+00
(PID.TID 0000.0001)  ploadbar=  1.01133672461829E+05
 cg2d: Sum(rhs),rhsMax =  -6.72969239376202E+01  1.02091296255905E+00
(PID.TID 0000.0001)  ploadbar=  1.01134885946353E+05
 cg2d: Sum(rhs),rhsMax =  -6.75686265887119E+01  1.01681766057626E+00
(PID.TID 0000.0001)  ploadbar=  1.01136099430877E+05
 cg2d: Sum(rhs),rhsMax =  -6.78517910011057E+01  1.01259001221977E+00
(PID.TID 0000.0001)  ploadbar=  1.01137312915400E+05
 cg2d: Sum(rhs),rhsMax =  -6.81552690982263E+01  1.00809783356589E+00
(PID.TID 0000.0001)  ploadbar=  1.01138526399924E+05
 cg2d: Sum(rhs),rhsMax =  -6.84850957498428E+01  1.00325707639896E+00
(PID.TID 0000.0001)  ploadbar=  1.01139739884447E+05
 cg2d: Sum(rhs),rhsMax =  -6.88514047298652E+01  9.97927416341985E-01
(PID.TID 0000.0001)  ploadbar=  1.01140953368971E+05
 cg2d: Sum(rhs),rhsMax =  -6.91651584691562E+01  9.93354951664520E-01
(PID.TID 0000.0001)  ploadbar=  1.01140354532123E+05
 cg2d: Sum(rhs),rhsMax =  -6.94794541041465E+01  9.88761220234986E-01
(PID.TID 0000.0001)  ploadbar=  1.01139755695275E+05
 cg2d: Sum(rhs),rhsMax =  -6.97933749779922E+01  9.84158605897636E-01
(PID.TID 0000.0001)  ploadbar=  1.01139156858427E+05
 cg2d: Sum(rhs),rhsMax =  -7.00947614671750E+01  9.79715773165866E-01
(PID.TID 0000.0001)  ploadbar=  1.01138558021579E+05
 cg2d: Sum(rhs),rhsMax =  -7.03859284373012E+01  9.75394569447468E-01
(PID.TID 0000.0001)  ploadbar=  1.01137959184731E+05
 cg2d: Sum(rhs),rhsMax =  -7.06653312455493E+01  9.71212585140785E-01
(PID.TID 0000.0001)  ploadbar=  1.01137360347883E+05
 cg2d: Sum(rhs),rhsMax =  -7.08707966254260E+01  9.68101922139674E-01
(PID.TID 0000.0001)  ploadbar=  1.01137710124583E+05
 cg2d: Sum(rhs),rhsMax =  -7.10667519006742E+01  9.65165642401926E-01
(PID.TID 0000.0001)  ploadbar=  1.01138059901282E+05
 cg2d: Sum(rhs),rhsMax =  -7.12752968807615E+01  9.62099550047701E-01
(PID.TID 0000.0001)  ploadbar=  1.01138409677981E+05
 cg2d: Sum(rhs),rhsMax =  -7.14850031253878E+01  9.59055987745107E-01
(PID.TID 0000.0001)  ploadbar=  1.01138759454680E+05
 cg2d: Sum(rhs),rhsMax =  -7.16899470204367E+01  9.56111996838314E-01
(PID.TID 0000.0001)  ploadbar=  1.01139109231379E+05
 cg2d: Sum(rhs),rhsMax =  -7.18849188194415E+01  9.53332217545076E-01
(PID.TID 0000.0001)  ploadbar=  1.01139459008078E+05
 cg2d: Sum(rhs),rhsMax =  -7.20470627595639E+01  9.51010688468294E-01
(PID.TID 0000.0001)  ploadbar=  1.01139039124933E+05
 cg2d: Sum(rhs),rhsMax =  -7.21705451476825E+01  9.49214573905615E-01
(PID.TID 0000.0001)  ploadbar=  1.01138619241788E+05
 cg2d: Sum(rhs),rhsMax =  -7.22468907525414E+01  9.48047585140702E-01
(PID.TID 0000.0001)  ploadbar=  1.01138199358643E+05
 cg2d: Sum(rhs),rhsMax =  -7.22954352351058E+01  9.47251209814811E-01
(PID.TID 0000.0001)  ploadbar=  1.01137779475498E+05
 cg2d: Sum(rhs),rhsMax =  -7.23243667050815E+01  9.46715863574573E-01
(PID.TID 0000.0001)  ploadbar=  1.01137359592353E+05
 cg2d: Sum(rhs),rhsMax =  -7.23359467643680E+01  9.46409409368965E-01
(PID.TID 0000.0001)  ploadbar=  1.01136939709208E+05
 cg2d: Sum(rhs),rhsMax =  -7.24141603476704E+01  9.45240060338143E-01
(PID.TID 0000.0001)  ploadbar=  1.01138474762085E+05
 cg2d: Sum(rhs),rhsMax =  -7.25160497862531E+01  9.43768525879849E-01
(PID.TID 0000.0001)  ploadbar=  1.01140009814961E+05
 cg2d: Sum(rhs),rhsMax =  -7.26287043234145E+01  9.42159794725461E-01
(PID.TID 0000.0001)  ploadbar=  1.01141544867837E+05
 cg2d: Sum(rhs),rhsMax =  -7.27584620761332E+01  9.40329969280989E-01
(PID.TID 0000.0001)  ploadbar=  1.01143079920713E+05
 cg2d: Sum(rhs),rhsMax =  -7.29028892436321E+01  9.38311635957200E-01
(PID.TID 0000.0001)  ploadbar=  1.01144614973590E+05
 cg2d: Sum(rhs),rhsMax =  -7.30593651616909E+01  9.36138838583491E-01
(PID.TID 0000.0001)  ploadbar=  1.01146150026466E+05
 cg2d: Sum(rhs),rhsMax =  -7.32938566587636E+01  9.32959318856489E-01
(PID.TID 0000.0001)  ploadbar=  1.01145852031405E+05
 cg2d: Sum(rhs),rhsMax =  -7.35576909959834E+01  9.29406939722805E-01
(PID.TID 0000.0001)  ploadbar=  1.01145554036344E+05
 cg2d: Sum(rhs),rhsMax =  -7.38571050901861E+01  9.25411278220023E-01
(PID.TID 0000.0001)  ploadbar=  1.01145256041283E+05
 cg2d: Sum(rhs),rhsMax =  -7.42041934363407E+01  9.20832098523464E-01
(PID.TID 0000.0001)  ploadbar=  1.01144958046222E+05
 cg2d: Sum(rhs),rhsMax =  -7.46111136763566E+01  9.15536819767784E-01
(PID.TID 0000.0001)  ploadbar=  1.01144660051161E+05
 cg2d: Sum(rhs),rhsMax =  -7.50905649352212E+01  9.09394571799647E-01
(PID.TID 0000.0001)  ploadbar=  1.01144362056100E+05
 cg2d: Sum(rhs),rhsMax =  -7.55701271560797E+01  9.03367012133338E-01
(PID.TID 0000.0001)  ploadbar=  1.01144043623650E+05
 cg2d: Sum(rhs),rhsMax =  -7.60992586692794E+01  8.96867543916533E-01
(PID.TID 0000.0001)  ploadbar=  1.01143725191201E+05
 cg2d: Sum(rhs),rhsMax =  -7.33394524054774E+01  9.30427295311298E-01
(PID.TID 0000.0001)  ploadbar=  1.01143406758752E+05
 cg2d: Sum(rhs),rhsMax =  -7.02542572601287E+01  9.71124730356598E-01
(PID.TID 0000.0001)  ploadbar=  1.01143088326303E+05
 cg2d: Sum(rhs),rhsMax =  -6.73680506102894E+01  1.01259472247014E+00
(PID.TID 0000.0001)  ploadbar=  1.01142769893853E+05
 cg2d: Sum(rhs),rhsMax =  -6.47401057972981E+01  1.05358690986279E+00
(PID.TID 0000.0001)  ploadbar=  1.01142451461404E+05
 cg2d: Sum(rhs),rhsMax =  -6.26138231651140E+01  1.08928224808098E+00
(PID.TID 0000.0001)  ploadbar=  1.01140919505926E+05
 cg2d: Sum(rhs),rhsMax =  -6.08841505918945E+01  1.12017341883304E+00
(PID.TID 0000.0001)  ploadbar=  1.01139387550449E+05
 cg2d: Sum(rhs),rhsMax =  -5.94793562546047E+01  1.14660314934951E+00
(PID.TID 0000.0001)  ploadbar=  1.01137855594971E+05
 cg2d: Sum(rhs),rhsMax =  -5.84058179553862E+01  1.16767923468530E+00
(PID.TID 0000.0001)  ploadbar=  1.01136323639493E+05
 cg2d: Sum(rhs),rhsMax =  -5.76631565105314E+01  1.18274602044270E+00
(PID.TID 0000.0001)  ploadbar=  1.01134791684015E+05
 cg2d: Sum(rhs),rhsMax =  -5.71704408400506E+01  1.19299252441578E+00
(PID.TID 0000.0001)  ploadbar=  1.01133259728537E+05
 cg2d: Sum(rhs),rhsMax =  -5.68329019601979E+01  1.20012835672033E+00
(PID.TID 0000.0001)  ploadbar=  1.01131319470125E+05
 cg2d: Sum(rhs),rhsMax =  -5.65281278507232E+01  1.20664086635723E+00
(PID.TID 0000.0001)  ploadbar=  1.01129379211712E+05
 cg2d: Sum(rhs),rhsMax =  -5.62438736550061E+01  1.21276661311687E+00
(PID.TID 0000.0001)  ploadbar=  1.01127438953299E+05
 cg2d: Sum(rhs),rhsMax =  -5.59850313088468E+01  1.21838392554482E+00
(PID.TID 0000.0001)  ploadbar=  1.01125498694887E+05
 cg2d: Sum(rhs),rhsMax =  -5.57645196272719E+01  1.22319000211252E+00
(PID.TID 0000.0001)  ploadbar=  1.01123558436474E+05
 cg2d: Sum(rhs),rhsMax =  -5.55935960873996E+01  1.22691379622316E+00
(PID.TID 0000.0001)  ploadbar=  1.01121618178061E+05
 cg2d: Sum(rhs),rhsMax =  -5.54521376039455E+01  1.22997047374955E+00
(PID.TID 0000.0001)  ploadbar=  1.01119780079373E+05
 cg2d: Sum(rhs),rhsMax =  -5.53732155283306E+01  1.23161203140470E+00
(PID.TID 0000.0001)  ploadbar=  1.01117941980684E+05
 cg2d: Sum(rhs),rhsMax =  -5.53431987344674E+01  1.23212916291354E+00
(PID.TID 0000.0001)  ploadbar=  1.01116103881996E+05
 cg2d: Sum(rhs),rhsMax =  -5.53414410211707E+01  1.23197565636417E+00
(PID.TID 0000.0001)  ploadbar=  1.01114265783308E+05
 cg2d: Sum(rhs),rhsMax =  -5.53460332943461E+01  1.23163230790444E+00
(PID.TID 0000.0001)  ploadbar=  1.01112427684620E+05
 cg2d: Sum(rhs),rhsMax =  -5.53290496594742E+01  1.23172015871136E+00
(PID.TID 0000.0001)  ploadbar=  1.01110589585931E+05
 cg2d: Sum(rhs),rhsMax =  -5.52275368097345E+01  1.23376827116255E+00
(PID.TID 0000.0001)  ploadbar=  1.01109603580876E+05
 cg2d: Sum(rhs),rhsMax =  -5.51761031893446E+01  1.23477468127719E+00
(PID.TID 0000.0001)  ploadbar=  1.01108617575820E+05
 cg2d: Sum(rhs),rhsMax =  -5.51619799631981E+01  1.23501635960524E+00
(PID.TID 0000.0001)  ploadbar=  1.01107631570765E+05
 cg2d: Sum(rhs),rhsMax =  -5.51894508418782E+01  1.23439260817377E+00
(PID.TID 0000.0001)  ploadbar=  1.01106645565709E+05
 cg2d: Sum(rhs),rhsMax =  -5.52595830146320E+01  1.23287818259976E+00
(PID.TID 0000.0001)  ploadbar=  1.01105659560653E+05
 cg2d: Sum(rhs),rhsMax =  -5.53867992211913E+01  1.23015713547753E+00
(PID.TID 0000.0001)  ploadbar=  1.01104673555598E+05
 cg2d: Sum(rhs),rhsMax =  -5.55515991112864E+01  1.22660424532636E+00
(PID.TID 0000.0001)  ploadbar=  1.01103958698674E+05
 cg2d: Sum(rhs),rhsMax =  -5.57716382947886E+01  1.22184300361732E+00
(PID.TID 0000.0001)  ploadbar=  1.01103243841751E+05
 cg2d: Sum(rhs),rhsMax =  -5.60521920643303E+01  1.21578616015024E+00
(PID.TID 0000.0001)  ploadbar=  1.01102528984827E+05
 cg2d: Sum(rhs),rhsMax =  -5.64110802260733E+01  1.20808790698705E+00
(PID.TID 0000.0001)  ploadbar=  1.01101814127903E+05
 cg2d: Sum(rhs),rhsMax =  -5.68563610752633E+01  1.19863688131300E+00
(PID.TID 0000.0001)  ploadbar=  1.01101099270980E+05
 cg2d: Sum(rhs),rhsMax =  -5.73867764231154E+01  1.18753985587394E+00
(PID.TID 0000.0001)  ploadbar=  1.01100384414056E+05
 cg2d: Sum(rhs),rhsMax =  -5.79639231008884E+01  1.17567617004429E+00
(PID.TID 0000.0001)  ploadbar=  1.01098876136126E+05
 cg2d: Sum(rhs),rhsMax =  -5.86110932811165E+01  1.16262956681342E+00
(PID.TID 0000.0001)  ploadbar=  1.01097367858196E+05
 cg2d: Sum(rhs),rhsMax =  -5.93154101687095E+01  1.14872889367354E+00
(PID.TID 0000.0001)  ploadbar=  1.01095859580266E+05
 cg2d: Sum(rhs),rhsMax =  -6.00938176794998E+01  1.13372070127683E+00
(PID.TID 0000.0001)  ploadbar=  1.01094351302336E+05
 cg2d: Sum(rhs),rhsMax =  -6.09369693691812E+01  1.11787111027449E+00
(PID.TID 0000.0001)  ploadbar=  1.01092843024406E+05
 cg2d: Sum(rhs),rhsMax =  -6.04878867987511E+01  1.12596773060711E+00
(PID.TID 0000.0001)  ploadbar=  1.01091334746476E+05
 cg2d: Sum(rhs),rhsMax =  -5.93907794755715E+01  1.14652769256847E+00
(PID.TID 0000.0001)  ploadbar=  1.01090510690710E+05
 cg2d: Sum(rhs),rhsMax =  -5.82855367938386E+01  1.16799013115042E+00
(PID.TID 0000.0001)  ploadbar=  1.01089686634944E+05
 cg2d: Sum(rhs),rhsMax =  -5.71882765650672E+01  1.19007994968658E+00
(PID.TID 0000.0001)  ploadbar=  1.01088862579178E+05
 cg2d: Sum(rhs),rhsMax =  -5.61022280100496E+01  1.21274896782136E+00
(PID.TID 0000.0001)  ploadbar=  1.01088038523413E+05
 cg2d: Sum(rhs),rhsMax =  -5.50373752324601E+01  1.23578832530732E+00
(PID.TID 0000.0001)  ploadbar=  1.01087214467647E+05
 cg2d: Sum(rhs),rhsMax =  -5.40061338156722E+01  1.25890224168378E+00
(PID.TID 0000.0001)  ploadbar=  1.01086390411881E+05
 cg2d: Sum(rhs),rhsMax =  -5.30690620056629E+01  1.28071653213605E+00
(PID.TID 0000.0001)  ploadbar=  1.01085996581884E+05
 cg2d: Sum(rhs),rhsMax =  -5.22190921097140E+01  1.30121609883199E+00
(PID.TID 0000.0001)  ploadbar=  1.01085602751887E+05
 cg2d: Sum(rhs),rhsMax =  -5.14607382640352E+01  1.32010739500056E+00
(PID.TID 0000.0001)  ploadbar=  1.01085208921889E+05
 cg2d: Sum(rhs),rhsMax =  -5.07833802101075E+01  1.33748889765783E+00
(PID.TID 0000.0001)  ploadbar=  1.01084815091892E+05
 cg2d: Sum(rhs),rhsMax =  -5.01730109048327E+01  1.35358473848877E+00
(PID.TID 0000.0001)  ploadbar=  1.01084421261895E+05
 cg2d: Sum(rhs),rhsMax =  -4.96147769535119E+01  1.36868336457576E+00
(PID.TID 0000.0001)  ploadbar=  1.01084027431897E+05
 cg2d: Sum(rhs),rhsMax =  -4.90698232944108E+01  1.38376114719602E+00
(PID.TID 0000.0001)  ploadbar=  1.01083930055933E+05
 cg2d: Sum(rhs),rhsMax =  -4.85491200849096E+01  1.39848345024807E+00
(PID.TID 0000.0001)  ploadbar=  1.01083832679969E+05
 cg2d: Sum(rhs),rhsMax =  -4.80601431150097E+01  1.41259510992202E+00
(PID.TID 0000.0001)  ploadbar=  1.01083735304004E+05
 cg2d: Sum(rhs),rhsMax =  -4.75946368818109E+01  1.42629484056371E+00
(PID.TID 0000.0001)  ploadbar=  1.01083637928040E+05
 cg2d: Sum(rhs),rhsMax =  -4.71482208377046E+01  1.43968117780494E+00
(PID.TID 0000.0001)  ploadbar=  1.01083540552075E+05
 cg2d: Sum(rhs),rhsMax =  -4.67185279277930E+01  1.45279797125254E+00
(PID.TID 0000.0001)  ploadbar=  1.01083443176111E+05
 cg2d: Sum(rhs),rhsMax =  -4.63339398098931E+01  1.46471415120312E+00
(PID.TID 0000.0001)  ploadbar=  1.01083004729416E+05
 cg2d: Sum(rhs),rhsMax =  -4.59795333911991E+01  1.47583791490397E+00
(PID.TID 0000.0001)  ploadbar=  1.01082566282721E+05
 cg2d: Sum(rhs),rhsMax =  -4.56556220223472E+01  1.48611464836394E+00
(PID.TID 0000.0001)  ploadbar=  1.01082127836026E+05
 cg2d: Sum(rhs),rhsMax =  -4.53646958234243E+01  1.49541877177969E+00
(PID.TID 0000.0001)  ploadbar=  1.01081689389330E+05
 cg2d: Sum(rhs),rhsMax =  -4.51050080647686E+01  1.50376438939734E+00
(PID.TID 0000.0001)  ploadbar=  1.01081250942635E+05
 cg2d: Sum(rhs),rhsMax =  -4.48743730751647E+01  1.51118722091256E+00
(PID.TID 0000.0001)  ploadbar=  1.01080812495940E+05
 cg2d: Sum(rhs),rhsMax =  -4.46504096192145E+01  1.51841905791117E+00
(PID.TID 0000.0001)  ploadbar=  1.01080532984969E+05
 cg2d: Sum(rhs),rhsMax =  -4.44392939560429E+01  1.52523410192496E+00
(PID.TID 0000.0001)  ploadbar=  1.01080253473999E+05
 cg2d: Sum(rhs),rhsMax =  -4.42427441092242E+01  1.53154769821630E+00
(PID.TID 0000.0001)  ploadbar=  1.01079973963028E+05
 cg2d: Sum(rhs),rhsMax =  -4.40596549500766E+01  1.53737906109653E+00
(PID.TID 0000.0001)  ploadbar=  1.01079694452057E+05
 cg2d: Sum(rhs),rhsMax =  -4.38910874480524E+01  1.54267481936806E+00
(PID.TID 0000.0001)  ploadbar=  1.01079414941086E+05
 cg2d: Sum(rhs),rhsMax =  -4.37392693375267E+01  1.54734891093387E+00
(PID.TID 0000.0001)  ploadbar=  1.01079135430116E+05
 cg2d: Sum(rhs),rhsMax =  -4.36064986232810E+01  1.55148132706194E+00
(PID.TID 0000.0001)  ploadbar=  1.01077883336689E+05
 cg2d: Sum(rhs),rhsMax =  -4.35038382094601E+01  1.55466504284202E+00
(PID.TID 0000.0001)  ploadbar=  1.01076631243261E+05
 cg2d: Sum(rhs),rhsMax =  -4.34258274439673E+01  1.55707555804946E+00
(PID.TID 0000.0001)  ploadbar=  1.01075379149834E+05
 cg2d: Sum(rhs),rhsMax =  -4.33688136457274E+01  1.55882242544451E+00
(PID.TID 0000.0001)  ploadbar=  1.01074127056407E+05
 cg2d: Sum(rhs),rhsMax =  -4.33287590189115E+01  1.56003363288835E+00
(PID.TID 0000.0001)  ploadbar=  1.01072874962980E+05
 cg2d: Sum(rhs),rhsMax =  -4.32999820223977E+01  1.56089288992213E+00
(PID.TID 0000.0001)  ploadbar=  1.01071622869553E+05
 cg2d: Sum(rhs),rhsMax =  -4.32794977776602E+01  1.56139764822623E+00
(PID.TID 0000.0001)  ploadbar=  1.01071646639080E+05
 cg2d: Sum(rhs),rhsMax =  -4.32627012610104E+01  1.56170548916275E+00
(PID.TID 0000.0001)  ploadbar=  1.01071670408606E+05
 cg2d: Sum(rhs),rhsMax =  -4.32551947997533E+01  1.56160925569850E+00
(PID.TID 0000.0001)  ploadbar=  1.01071694178133E+05
 cg2d: Sum(rhs),rhsMax =  -4.32637094622288E+01  1.56086446207988E+00
(PID.TID 0000.0001)  ploadbar=  1.01071717947660E+05
 cg2d: Sum(rhs),rhsMax =  -4.32929379883848E+01  1.55929591119250E+00
(PID.TID 0000.0001)  ploadbar=  1.01071741717186E+05
 cg2d: Sum(rhs),rhsMax =  -4.33451245066135E+01  1.55682253976391E+00
(PID.TID 0000.0001)  ploadbar=  1.01071765486713E+05
 cg2d: Sum(rhs),rhsMax =  -4.34390686875222E+01  1.55288979290522E+00
(PID.TID 0000.0001)  ploadbar=  1.01071777061769E+05
 cg2d: Sum(rhs),rhsMax =  -4.35474732357988E+01  1.54847537011386E+00
(PID.TID 0000.0001)  ploadbar=  1.01071788636826E+05
 cg2d: Sum(rhs),rhsMax =  -4.36680113806216E+01  1.54365735722057E+00
(PID.TID 0000.0001)  ploadbar=  1.01071800211882E+05
 cg2d: Sum(rhs),rhsMax =  -4.38017605862336E+01  1.53840033473564E+00
(PID.TID 0000.0001)  ploadbar=  1.01071811786938E+05
 cg2d: Sum(rhs),rhsMax =  -4.39363861220702E+01  1.53313643111918E+00
(PID.TID 0000.0001)  ploadbar=  1.01071823361994E+05
 cg2d: Sum(rhs),rhsMax =  -4.40777477772610E+01  1.52765426754263E+00
(PID.TID 0000.0001)  ploadbar=  1.01071834937050E+05
 cg2d: Sum(rhs),rhsMax =  -4.42270338983699E+01  1.52187568288405E+00
(PID.TID 0000.0001)  ploadbar=  1.01071747452683E+05
 cg2d: Sum(rhs),rhsMax =  -4.43841564850516E+01  1.51580012679332E+00
(PID.TID 0000.0001)  ploadbar=  1.01071659968316E+05
 cg2d: Sum(rhs),rhsMax =  -4.45490300124027E+01  1.50942828560980E+00
(PID.TID 0000.0001)  ploadbar=  1.01071572483949E+05
 cg2d: Sum(rhs),rhsMax =  -4.47216649212100E+01  1.50275018968025E+00
(PID.TID 0000.0001)  ploadbar=  1.01071484999582E+05
 cg2d: Sum(rhs),rhsMax =  -4.49021624868188E+01  1.49576488313683E+00
(PID.TID 0000.0001)  ploadbar=  1.01071397515215E+05
 cg2d: Sum(rhs),rhsMax =  -4.50893674194279E+01  1.48852142234330E+00
(PID.TID 0000.0001)  ploadbar=  1.01071310030848E+05
 cg2d: Sum(rhs),rhsMax =  -4.52778683999385E+01  1.48141412047865E+00
(PID.TID 0000.0001)  ploadbar=  1.01070367543600E+05
 cg2d: Sum(rhs),rhsMax =  -4.54734690579503E+01  1.47425115519032E+00
(PID.TID 0000.0001)  ploadbar=  1.01069425056353E+05
 cg2d: Sum(rhs),rhsMax =  -4.56772247791868E+01  1.46699801738377E+00
(PID.TID 0000.0001)  ploadbar=  1.01068482569105E+05
 cg2d: Sum(rhs),rhsMax =  -4.58843856704184E+01  1.45980281976880E+00
(PID.TID 0000.0001)  ploadbar=  1.01067540081858E+05
 cg2d: Sum(rhs),rhsMax =  -4.46994780092544E+01  1.49800560249473E+00
(PID.TID 0000.0001)  ploadbar=  1.01066597594610E+05
 cg2d: Sum(rhs),rhsMax =  -4.33791859930780E+01  1.54317898764451E+00
(PID.TID 0000.0001)  ploadbar=  1.01065655107363E+05
 cg2d: Sum(rhs),rhsMax =  -4.22097238515548E+01  1.58547548972610E+00
(PID.TID 0000.0001)  ploadbar=  1.01064799105323E+05
 cg2d: Sum(rhs),rhsMax =  -4.11728617307372E+01  1.62489304291937E+00
(PID.TID 0000.0001)  ploadbar=  1.01063943103282E+05
 cg2d: Sum(rhs),rhsMax =  -4.02780464713635E+01  1.66041952978484E+00
(PID.TID 0000.0001)  ploadbar=  1.01063087101242E+05
 cg2d: Sum(rhs),rhsMax =  -3.95336579716762E+01  1.69104629717840E+00
(PID.TID 0000.0001)  ploadbar=  1.01062231099201E+05
 cg2d: Sum(rhs),rhsMax =  -3.89063849229485E+01  1.71760193744411E+00
(PID.TID 0000.0001)  ploadbar=  1.01061375097161E+05
 cg2d: Sum(rhs),rhsMax =  -3.84081517680421E+01  1.73909934735722E+00
(PID.TID 0000.0001)  ploadbar=  1.01060519095121E+05
 cg2d: Sum(rhs),rhsMax =  -3.81692100294454E+01  1.74927171494883E+00
(PID.TID 0000.0001)  ploadbar=  1.01059895293362E+05
 cg2d: Sum(rhs),rhsMax =  -3.80984229741545E+01  1.75187672905889E+00
(PID.TID 0000.0001)  ploadbar=  1.01059271491602E+05
 cg2d: Sum(rhs),rhsMax =  -3.81689039580573E+01  1.74805937479488E+00
(PID.TID 0000.0001)  ploadbar=  1.01058647689843E+05
 cg2d: Sum(rhs),rhsMax =  -3.83387374442045E+01  1.73978965106311E+00
(PID.TID 0000.0001)  ploadbar=  1.01058023888084E+05
 cg2d: Sum(rhs),rhsMax =  -3.85733046940335E+01  1.72873806794371E+00
(PID.TID 0000.0001)  ploadbar=  1.01057400086325E+05
 cg2d: Sum(rhs),rhsMax =  -3.88381999400144E+01  1.71652499166268E+00
(PID.TID 0000.0001)  ploadbar=  1.01056776284566E+05
 cg2d: Sum(rhs),rhsMax =  -3.89658465114592E+01  1.71042831118887E+00
(PID.TID 0000.0001)  ploadbar=  1.01056694400296E+05
 cg2d: Sum(rhs),rhsMax =  -3.90768304727903E+01  1.70504681281909E+00
(PID.TID 0000.0001)  ploadbar=  1.01056612516026E+05
 cg2d: Sum(rhs),rhsMax =  -3.91632417765821E+01  1.70070306614453E+00
(PID.TID 0000.0001)  ploadbar=  1.01056530631756E+05
 cg2d: Sum(rhs),rhsMax =  -3.92264018512519E+01  1.69732331166967E+00
(PID.TID 0000.0001)  ploadbar=  1.01056448747487E+05
 cg2d: Sum(rhs),rhsMax =  -3.92678105892594E+01  1.69483038843252E+00
(PID.TID 0000.0001)  ploadbar=  1.01056366863217E+05
 cg2d: Sum(rhs),rhsMax =  -3.92914104606825E+01  1.69304443155770E+00
(PID.TID 0000.0001)  ploadbar=  1.01056284978947E+05
 cg2d: Sum(rhs),rhsMax =  -3.92140891055274E+01  1.69574239968067E+00
(PID.TID 0000.0001)  ploadbar=  1.01055968081138E+05
 cg2d: Sum(rhs),rhsMax =  -3.91357100491604E+01  1.69862351820077E+00
(PID.TID 0000.0001)  ploadbar=  1.01055651183329E+05
 cg2d: Sum(rhs),rhsMax =  -3.90557355214908E+01  1.70171210893395E+00
(PID.TID 0000.0001)  ploadbar=  1.01055334285519E+05
 cg2d: Sum(rhs),rhsMax =  -3.89794185812257E+01  1.70477273929790E+00
(PID.TID 0000.0001)  ploadbar=  1.01055017387710E+05
 cg2d: Sum(rhs),rhsMax =  -3.89054087071723E+01  1.70785021153119E+00
(PID.TID 0000.0001)  ploadbar=  1.01054700489901E+05
 cg2d: Sum(rhs),rhsMax =  -3.88343691949595E+01  1.71090677052297E+00
(PID.TID 0000.0001)  ploadbar=  1.01054383592092E+05
 cg2d: Sum(rhs),rhsMax =  -3.88647443203559E+01  1.70946963013696E+00
(PID.TID 0000.0001)  ploadbar=  1.01054798138970E+05
 cg2d: Sum(rhs),rhsMax =  -3.89011096785828E+01  1.70773077709248E+00
(PID.TID 0000.0001)  ploadbar=  1.01055212685849E+05
 cg2d: Sum(rhs),rhsMax =  -3.89339142979880E+01  1.70610380268134E+00
(PID.TID 0000.0001)  ploadbar=  1.01055627232728E+05
 cg2d: Sum(rhs),rhsMax =  -3.89662538467550E+01  1.70444541317773E+00
(PID.TID 0000.0001)  ploadbar=  1.01056041779606E+05
 cg2d: Sum(rhs),rhsMax =  -3.89988387262888E+01  1.70272251638442E+00
(PID.TID 0000.0001)  ploadbar=  1.01056456326485E+05
 cg2d: Sum(rhs),rhsMax =  -3.90308098594778E+01  1.70096894516967E+00
(PID.TID 0000.0001)  ploadbar=  1.01056870873363E+05
 cg2d: Sum(rhs),rhsMax =  -3.90416114862493E+01  1.70018635871993E+00
(PID.TID 0000.0001)  ploadbar=  1.01057985636577E+05
 cg2d: Sum(rhs),rhsMax =  -3.90532347532220E+01  1.69940915657135E+00
(PID.TID 0000.0001)  ploadbar=  1.01059100399791E+05
 cg2d: Sum(rhs),rhsMax =  -3.90669317845917E+01  1.69857555537439E+00
(PID.TID 0000.0001)  ploadbar=  1.01060215163006E+05
 cg2d: Sum(rhs),rhsMax =  -3.90812530263705E+01  1.69774393355906E+00
(PID.TID 0000.0001)  ploadbar=  1.01061329926220E+05
 cg2d: Sum(rhs),rhsMax =  -3.90970083611087E+01  1.69687314935203E+00
(PID.TID 0000.0001)  ploadbar=  1.01062444689434E+05
 cg2d: Sum(rhs),rhsMax =  -3.91135222447528E+01  1.69598913945169E+00
(PID.TID 0000.0001)  ploadbar=  1.01063559452648E+05
 cg2d: Sum(rhs),rhsMax =  -3.91207103811689E+01  1.69543452458096E+00
(PID.TID 0000.0001)  ploadbar=  1.01064955965281E+05
 cg2d: Sum(rhs),rhsMax =  -3.91337483884889E+01  1.69454694737919E+00
(PID.TID 0000.0001)  ploadbar=  1.01066352477913E+05
 cg2d: Sum(rhs),rhsMax =  -3.91438463158746E+01  1.69370518051433E+00
(PID.TID 0000.0001)  ploadbar=  1.01067748990546E+05
 cg2d: Sum(rhs),rhsMax =  -3.91542827923719E+01  1.69276462310842E+00
(PID.TID 0000.0001)  ploadbar=  1.01069145503179E+05
 cg2d: Sum(rhs),rhsMax =  -3.91690649683550E+01  1.69154853499709E+00
(PID.TID 0000.0001)  ploadbar=  1.01070542015811E+05
 cg2d: Sum(rhs),rhsMax =  -3.91858416089007E+01  1.69015658519241E+00
(PID.TID 0000.0001)  ploadbar=  1.01071938528444E+05
 cg2d: Sum(rhs),rhsMax =  -3.92290347028807E+01  1.68775930601591E+00
(PID.TID 0000.0001)  ploadbar=  1.01074157361816E+05
 cg2d: Sum(rhs),rhsMax =  -3.92715948049125E+01  1.68552340390465E+00
(PID.TID 0000.0001)  ploadbar=  1.01076376195187E+05
 cg2d: Sum(rhs),rhsMax =  -3.93209626275030E+01  1.68312714974925E+00
(PID.TID 0000.0001)  ploadbar=  1.01078595028559E+05
 cg2d: Sum(rhs),rhsMax =  -3.93731066523001E+01  1.68073507752464E+00
(PID.TID 0000.0001)  ploadbar=  1.01080813861930E+05
 cg2d: Sum(rhs),rhsMax =  -3.94272769834654E+01  1.67836757985483E+00
(PID.TID 0000.0001)  ploadbar=  1.01083032695302E+05
 cg2d: Sum(rhs),rhsMax =  -3.94830307693738E+01  1.67603430315700E+00
(PID.TID 0000.0001)  ploadbar=  1.01085251528673E+05
 cg2d: Sum(rhs),rhsMax =  -3.95184556237602E+01  1.67452829990447E+00
(PID.TID 0000.0001)  ploadbar=  1.01087341469830E+05
 cg2d: Sum(rhs),rhsMax =  -3.95501890936614E+01  1.67312542958388E+00
(PID.TID 0000.0001)  ploadbar=  1.01089431410987E+05
 cg2d: Sum(rhs),rhsMax =  -3.95807704825304E+01  1.67171094334628E+00
(PID.TID 0000.0001)  ploadbar=  1.01091521352144E+05
 cg2d: Sum(rhs),rhsMax =  -3.96072461408605E+01  1.67040557184988E+00
(PID.TID 0000.0001)  ploadbar=  1.01093611293301E+05
 cg2d: Sum(rhs),rhsMax =  -3.96296647986380E+01  1.66920059277507E+00
(PID.TID 0000.0001)  ploadbar=  1.01095701234458E+05
 cg2d: Sum(rhs),rhsMax =  -3.96484669086011E+01  1.66807332680784E+00
(PID.TID 0000.0001)  ploadbar=  1.01097791175615E+05
 cg2d: Sum(rhs),rhsMax =  -3.96655048508275E+01  1.66706433758551E+00
(PID.TID 0000.0001)  ploadbar=  1.01099971274169E+05
 cg2d: Sum(rhs),rhsMax =  -3.96781941473771E+01  1.66627839776050E+00
(PID.TID 0000.0001)  ploadbar=  1.01102151372723E+05
 cg2d: Sum(rhs),rhsMax =  -3.96889981473077E+01  1.66560023451601E+00
(PID.TID 0000.0001)  ploadbar=  1.01104331471277E+05
 cg2d: Sum(rhs),rhsMax =  -3.96990909415954E+01  1.66497219545033E+00
(PID.TID 0000.0001)  ploadbar=  1.01106511569831E+05
 cg2d: Sum(rhs),rhsMax =  -3.97080326785752E+01  1.66440601254099E+00
(PID.TID 0000.0001)  ploadbar=  1.01108691668385E+05
 cg2d: Sum(rhs),rhsMax =  -3.97158582170184E+01  1.66389219654125E+00
(PID.TID 0000.0001)  ploadbar=  1.01110871766939E+05
 cg2d: Sum(rhs),rhsMax =  -3.97302461849376E+01  1.66302618154014E+00
(PID.TID 0000.0001)  ploadbar=  1.01111685215701E+05
 cg2d: Sum(rhs),rhsMax =  -3.97374166295069E+01  1.66237707314856E+00
(PID.TID 0000.0001)  ploadbar=  1.01112498664463E+05
 cg2d: Sum(rhs),rhsMax =  -3.97387350439250E+01  1.66188541342139E+00
(PID.TID 0000.0001)  ploadbar=  1.01113312113225E+05
 cg2d: Sum(rhs),rhsMax =  -3.97344220150095E+01  1.66153738455381E+00
(PID.TID 0000.0001)  ploadbar=  1.01114125561987E+05
 cg2d: Sum(rhs),rhsMax =  -3.97237538459991E+01  1.66136201711364E+00
(PID.TID 0000.0001)  ploadbar=  1.01114939010749E+05
 cg2d: Sum(rhs),rhsMax =  -3.97067513084717E+01  1.66135550438831E+00
(PID.TID 0000.0001)  ploadbar=  1.01115752459511E+05
 cg2d: Sum(rhs),rhsMax =  -3.96760389522126E+01  1.66201814307608E+00
(PID.TID 0000.0001)  ploadbar=  1.01116741777957E+05
 cg2d: Sum(rhs),rhsMax =  -3.96359381581887E+01  1.66316273652123E+00
(PID.TID 0000.0001)  ploadbar=  1.01117731096404E+05
 cg2d: Sum(rhs),rhsMax =  -3.95943260044103E+01  1.66445436422605E+00
(PID.TID 0000.0001)  ploadbar=  1.01118720414850E+05
 cg2d: Sum(rhs),rhsMax =  -3.95505710121148E+01  1.66591452042579E+00
(PID.TID 0000.0001)  ploadbar=  1.01119709733296E+05
 cg2d: Sum(rhs),rhsMax =  -3.95033212005047E+01  1.66759288031042E+00
(PID.TID 0000.0001)  ploadbar=  1.01120699051743E+05
 cg2d: Sum(rhs),rhsMax =  -3.94509462053494E+01  1.66954492312392E+00
(PID.TID 0000.0001)  ploadbar=  1.01121688370189E+05
 cg2d: Sum(rhs),rhsMax =  -3.93837030921706E+01  1.67209983658868E+00
(PID.TID 0000.0001)  ploadbar=  1.01121819752288E+05
 cg2d: Sum(rhs),rhsMax =  -3.93088630773310E+01  1.67494887024221E+00
(PID.TID 0000.0001)  ploadbar=  1.01121951134387E+05
 cg2d: Sum(rhs),rhsMax =  -3.92282644001904E+01  1.67800768822259E+00
(PID.TID 0000.0001)  ploadbar=  1.01122082516486E+05
 cg2d: Sum(rhs),rhsMax =  -3.91424101881870E+01  1.68124559721532E+00
(PID.TID 0000.0001)  ploadbar=  1.01122213898585E+05
 cg2d: Sum(rhs),rhsMax =  -3.90509820492996E+01  1.68467023197152E+00
(PID.TID 0000.0001)  ploadbar=  1.01122345280684E+05
 cg2d: Sum(rhs),rhsMax =  -3.89544741240211E+01  1.68825012404835E+00
(PID.TID 0000.0001)  ploadbar=  1.01122476662783E+05
 cg2d: Sum(rhs),rhsMax =  -3.88910665054795E+01  1.69043703490678E+00
(PID.TID 0000.0001)  ploadbar=  1.01121801712918E+05
 cg2d: Sum(rhs),rhsMax =  -3.88241307517055E+01  1.69280428832062E+00
(PID.TID 0000.0001)  ploadbar=  1.01121126763053E+05
 cg2d: Sum(rhs),rhsMax =  -3.87578135802795E+01  1.69516171680836E+00
(PID.TID 0000.0001)  ploadbar=  1.01120451813188E+05
 cg2d: Sum(rhs),rhsMax =  -3.86924141113750E+01  1.69747980013174E+00
(PID.TID 0000.0001)  ploadbar=  1.01119776863323E+05
 cg2d: Sum(rhs),rhsMax =  -3.86300370168697E+01  1.69964752832325E+00
(PID.TID 0000.0001)  ploadbar=  1.01119101913459E+05
 cg2d: Sum(rhs),rhsMax =  -3.85728140012636E+01  1.70155684501893E+00
(PID.TID 0000.0001)  ploadbar=  1.01118426963594E+05
 cg2d: Sum(rhs),rhsMax =  -3.85208466278756E+01  1.70321074514128E+00
(PID.TID 0000.0001)  ploadbar=  1.01118367182500E+05
 cg2d: Sum(rhs),rhsMax =  -3.84915162686691E+01  1.70383409476903E+00
(PID.TID 0000.0001)  ploadbar=  1.01118307401407E+05
 cg2d: Sum(rhs),rhsMax =  -3.84764192375528E+01  1.70379306592323E+00
(PID.TID 0000.0001)  ploadbar=  1.01118247620313E+05
 cg2d: Sum(rhs),rhsMax =  -3.84771424725922E+01  1.70301523502665E+00
(PID.TID 0000.0001)  ploadbar=  1.01118187839219E+05
 cg2d: Sum(rhs),rhsMax =  -3.84926525431338E+01  1.70154471188932E+00
(PID.TID 0000.0001)  ploadbar=  1.01118128058126E+05
 cg2d: Sum(rhs),rhsMax =  -3.85179459839743E+01  1.69960034449088E+00
(PID.TID 0000.0001)  ploadbar=  1.01118068277032E+05
 cg2d: Sum(rhs),rhsMax =  -3.85214653755461E+01  1.69869498938278E+00
(PID.TID 0000.0001)  ploadbar=  1.01118148900964E+05
 cg2d: Sum(rhs),rhsMax =  -3.85208973497556E+01  1.69803629495540E+00
(PID.TID 0000.0001)  ploadbar=  1.01118229524896E+05
 cg2d: Sum(rhs),rhsMax =  -3.85100072903269E+01  1.69789616866926E+00
(PID.TID 0000.0001)  ploadbar=  1.01118310148828E+05
 cg2d: Sum(rhs),rhsMax =  -3.84924787240483E+01  1.69810791446219E+00
(PID.TID 0000.0001)  ploadbar=  1.01118390772761E+05
 cg2d: Sum(rhs),rhsMax =  -3.84739567967406E+01  1.69841488363047E+00
(PID.TID 0000.0001)  ploadbar=  1.01118471396693E+05
 cg2d: Sum(rhs),rhsMax =  -3.84588444622368E+01  1.69861296149411E+00
(PID.TID 0000.0001)  ploadbar=  1.01118552020625E+05
 cg2d: Sum(rhs),rhsMax =  -3.84547387916314E+01  1.69834106498679E+00
(PID.TID 0000.0001)  ploadbar=  1.01117786163803E+05
 cg2d: Sum(rhs),rhsMax =  -3.84546440884523E+01  1.69789967107734E+00
(PID.TID 0000.0001)  ploadbar=  1.01117020306982E+05
 cg2d: Sum(rhs),rhsMax =  -3.84566995463178E+01  1.69735595275764E+00
(PID.TID 0000.0001)  ploadbar=  1.01116254450161E+05
 cg2d: Sum(rhs),rhsMax =  -3.84619699183301E+01  1.69665482880938E+00
(PID.TID 0000.0001)  ploadbar=  1.01115488593339E+05
 cg2d: Sum(rhs),rhsMax =  -3.84686058548617E+01  1.69586527696850E+00
(PID.TID 0000.0001)  ploadbar=  1.01114722736518E+05
 cg2d: Sum(rhs),rhsMax =  -3.84750939191712E+01  1.69504398320768E+00
(PID.TID 0000.0001)  ploadbar=  1.01113956879696E+05
 cg2d: Sum(rhs),rhsMax =  -3.84515499164367E+01  1.69563997881377E+00
(PID.TID 0000.0001)  ploadbar=  1.01113547689723E+05
 cg2d: Sum(rhs),rhsMax =  -3.84309619306818E+01  1.69619265086786E+00
(PID.TID 0000.0001)  ploadbar=  1.01113138499750E+05
 cg2d: Sum(rhs),rhsMax =  -3.84126479900663E+01  1.69672098675875E+00
(PID.TID 0000.0001)  ploadbar=  1.01112729309777E+05
 cg2d: Sum(rhs),rhsMax =  -3.83928039319354E+01  1.69737673346110E+00
(PID.TID 0000.0001)  ploadbar=  1.01112320119805E+05
 cg2d: Sum(rhs),rhsMax =  -3.83689879089909E+01  1.69825778722208E+00
(PID.TID 0000.0001)  ploadbar=  1.01111910929832E+05
 cg2d: Sum(rhs),rhsMax =  -3.83427012485779E+01  1.69928354472498E+00
(PID.TID 0000.0001)  ploadbar=  1.01111501739859E+05
 cg2d: Sum(rhs),rhsMax =  -3.83306826234836E+01  1.69963367120611E+00
(PID.TID 0000.0001)  ploadbar=  1.01111018444716E+05
 cg2d: Sum(rhs),rhsMax =  -3.83137718130130E+01  1.70015562880248E+00
(PID.TID 0000.0001)  ploadbar=  1.01110535149573E+05
 cg2d: Sum(rhs),rhsMax =  -3.82986193924533E+01  1.70055126944431E+00
(PID.TID 0000.0001)  ploadbar=  1.01110051854430E+05
 cg2d: Sum(rhs),rhsMax =  -3.82868925534644E+01  1.70074432479531E+00
(PID.TID 0000.0001)  ploadbar=  1.01109568559287E+05
 cg2d: Sum(rhs),rhsMax =  -3.82788341643942E+01  1.70072594354611E+00
(PID.TID 0000.0001)  ploadbar=  1.01109085264144E+05
 cg2d: Sum(rhs),rhsMax =  -3.82747406853450E+01  1.70048131442915E+00
(PID.TID 0000.0001)  ploadbar=  1.01108601969001E+05
 cg2d: Sum(rhs),rhsMax =  -3.82759129240828E+01  1.70010005127330E+00
(PID.TID 0000.0001)  ploadbar=  1.01107578744919E+05
 cg2d: Sum(rhs),rhsMax =  -3.82815123616709E+01  1.69960815275100E+00
(PID.TID 0000.0001)  ploadbar=  1.01106555520837E+05
 cg2d: Sum(rhs),rhsMax =  -3.82941128607782E+01  1.69888650497612E+00
(PID.TID 0000.0001)  ploadbar=  1.01105532296754E+05
 cg2d: Sum(rhs),rhsMax =  -3.83140352662270E+01  1.69791877554639E+00
(PID.TID 0000.0001)  ploadbar=  1.01104509072672E+05
 cg2d: Sum(rhs),rhsMax =  -3.83436865441572E+01  1.69659774671637E+00
(PID.TID 0000.0001)  ploadbar=  1.01103485848590E+05
 cg2d: Sum(rhs),rhsMax =  -3.83857916201906E+01  1.69479384559572E+00
(PID.TID 0000.0001)  ploadbar=  1.01102462624508E+05
 cg2d: Sum(rhs),rhsMax =  -3.84473589497895E+01  1.69209897685813E+00
(PID.TID 0000.0001)  ploadbar=  1.01102334025642E+05
 cg2d: Sum(rhs),rhsMax =  -3.85252714033618E+01  1.68865359480257E+00
(PID.TID 0000.0001)  ploadbar=  1.01102205426777E+05
 cg2d: Sum(rhs),rhsMax =  -3.86167516725148E+01  1.68458162420540E+00
(PID.TID 0000.0001)  ploadbar=  1.01102076827911E+05
 cg2d: Sum(rhs),rhsMax =  -3.87267049960354E+01  1.67967335339530E+00
(PID.TID 0000.0001)  ploadbar=  1.01101948229046E+05
 cg2d: Sum(rhs),rhsMax =  -3.88615863115904E+01  1.67366136956247E+00
(PID.TID 0000.0001)  ploadbar=  1.01101819630180E+05
 cg2d: Sum(rhs),rhsMax =  -3.90249686851935E+01  1.66641399151663E+00
(PID.TID 0000.0001)  ploadbar=  1.01101691031315E+05
 cg2d: Sum(rhs),rhsMax =  -3.92214204403053E+01  1.65781583034597E+00
(PID.TID 0000.0001)  ploadbar=  1.01101555925063E+05
 cg2d: Sum(rhs),rhsMax =  -3.94437648875603E+01  1.64820738495614E+00
(PID.TID 0000.0001)  ploadbar=  1.01101420818810E+05
 cg2d: Sum(rhs),rhsMax =  -3.96857283501535E+01  1.63787819908026E+00
(PID.TID 0000.0001)  ploadbar=  1.01101285712558E+05
 cg2d: Sum(rhs),rhsMax =  -3.99443769594205E+01  1.62696701525601E+00
(PID.TID 0000.0001)  ploadbar=  1.01101150606306E+05
 cg2d: Sum(rhs),rhsMax =  -4.02164779404329E+01  1.61561600780151E+00
(PID.TID 0000.0001)  ploadbar=  1.01101015500054E+05
 cg2d: Sum(rhs),rhsMax =  -4.04996754553357E+01  1.60392193412906E+00
(PID.TID 0000.0001)  ploadbar=  1.01100880393801E+05
 cg2d: Sum(rhs),rhsMax =  -4.07780141058628E+01  1.59251739970893E+00
(PID.TID 0000.0001)  ploadbar=  1.01100123687476E+05
 cg2d: Sum(rhs),rhsMax =  -4.10504058198367E+01  1.58143493075161E+00
(PID.TID 0000.0001)  ploadbar=  1.01099366981150E+05
 cg2d: Sum(rhs),rhsMax =  -4.13148585078652E+01  1.57073710394608E+00
(PID.TID 0000.0001)  ploadbar=  1.01098610274825E+05
 cg2d: Sum(rhs),rhsMax =  -4.15751112837715E+01  1.56026603240306E+00
(PID.TID 0000.0001)  ploadbar=  1.01097853568499E+05
 cg2d: Sum(rhs),rhsMax =  -4.17452938738234E+01  1.55320422179069E+00
(PID.TID 0000.0001)  ploadbar=  1.01097096862174E+05
 cg2d: Sum(rhs),rhsMax =  -4.18510054417865E+01  1.54851478772547E+00
(PID.TID 0000.0001)  ploadbar=  1.01096340155848E+05
 cg2d: Sum(rhs),rhsMax =  -4.19046028878789E+01  1.54587307912164E+00
(PID.TID 0000.0001)  ploadbar=  1.01095142609924E+05
 cg2d: Sum(rhs),rhsMax =  -4.18366503296966E+01  1.54781868522160E+00
(PID.TID 0000.0001)  ploadbar=  1.01093945064000E+05
 cg2d: Sum(rhs),rhsMax =  -4.17787594945040E+01  1.54949353248649E+00
(PID.TID 0000.0001)  ploadbar=  1.01092747518076E+05
 cg2d: Sum(rhs),rhsMax =  -4.18507070831999E+01  1.54645268954781E+00
(PID.TID 0000.0001)  ploadbar=  1.01091549972151E+05
 cg2d: Sum(rhs),rhsMax =  -4.16364939833399E+01  1.55411450987970E+00
(PID.TID 0000.0001)  ploadbar=  1.01090352426227E+05
 cg2d: Sum(rhs),rhsMax =  -4.12375709274016E+01  1.56892339611570E+00
(PID.TID 0000.0001)  ploadbar=  1.01089154880303E+05
 cg2d: Sum(rhs),rhsMax =  -4.08156603659495E+01  1.58494687521787E+00
(PID.TID 0000.0001)  ploadbar=  1.01089068997920E+05
 cg2d: Sum(rhs),rhsMax =  -4.03865540628042E+01  1.60161779831493E+00
(PID.TID 0000.0001)  ploadbar=  1.01088983115538E+05
 cg2d: Sum(rhs),rhsMax =  -3.99723978807928E+01  1.61805895512566E+00
(PID.TID 0000.0001)  ploadbar=  1.01088897233155E+05
 cg2d: Sum(rhs),rhsMax =  -3.95815136185146E+01  1.63388594029913E+00
(PID.TID 0000.0001)  ploadbar=  1.01088811350773E+05
 cg2d: Sum(rhs),rhsMax =  -3.92148739686273E+01  1.64900313337845E+00
(PID.TID 0000.0001)  ploadbar=  1.01088725468390E+05
 cg2d: Sum(rhs),rhsMax =  -3.88714841903234E+01  1.66339738929043E+00
(PID.TID 0000.0001)  ploadbar=  1.01088639586008E+05
 cg2d: Sum(rhs),rhsMax =  -3.85640822592905E+01  1.67650668470092E+00
(PID.TID 0000.0001)  ploadbar=  1.01088964295826E+05
 cg2d: Sum(rhs),rhsMax =  -3.82762135087303E+01  1.68898400288947E+00
(PID.TID 0000.0001)  ploadbar=  1.01089289005644E+05
 cg2d: Sum(rhs),rhsMax =  -3.80025238977100E+01  1.70102405914461E+00
(PID.TID 0000.0001)  ploadbar=  1.01089613715463E+05
 cg2d: Sum(rhs),rhsMax =  -3.77430232408059E+01  1.71259690937180E+00
(PID.TID 0000.0001)  ploadbar=  1.01089938425281E+05
 cg2d: Sum(rhs),rhsMax =  -3.74959141833440E+01  1.72375187946549E+00
(PID.TID 0000.0001)  ploadbar=  1.01090263135099E+05
 cg2d: Sum(rhs),rhsMax =  -3.72617500345787E+01  1.73443429831190E+00
(PID.TID 0000.0001)  ploadbar=  1.01090587844917E+05
 cg2d: Sum(rhs),rhsMax =  -3.70528592468268E+01  1.74404384912912E+00
(PID.TID 0000.0001)  ploadbar=  1.01091423636497E+05
 cg2d: Sum(rhs),rhsMax =  -3.68588130139862E+01  1.75303539282382E+00
(PID.TID 0000.0001)  ploadbar=  1.01092259428076E+05
 cg2d: Sum(rhs),rhsMax =  -3.66847753571723E+01  1.76113728577434E+00
(PID.TID 0000.0001)  ploadbar=  1.01093095219655E+05
 cg2d: Sum(rhs),rhsMax =  -3.65291985444550E+01  1.76839695210890E+00
(PID.TID 0000.0001)  ploadbar=  1.01093931011234E+05
 cg2d: Sum(rhs),rhsMax =  -3.63903053452688E+01  1.77488117496459E+00
(PID.TID 0000.0001)  ploadbar=  1.01094766802813E+05
 cg2d: Sum(rhs),rhsMax =  -3.62666748728738E+01  1.78063958070897E+00
(PID.TID 0000.0001)  ploadbar=  1.01095602594392E+05
 cg2d: Sum(rhs),rhsMax =  -3.61470215899473E+01  1.78632242121741E+00
(PID.TID 0000.0001)  ploadbar=  1.01096222823048E+05
 cg2d: Sum(rhs),rhsMax =  -3.60346880191641E+01  1.79175658412694E+00
(PID.TID 0000.0001)  ploadbar=  1.01096843051704E+05
 cg2d: Sum(rhs),rhsMax =  -3.59263735749005E+01  1.79709561433281E+00
(PID.TID 0000.0001)  ploadbar=  1.01097463280360E+05
 cg2d: Sum(rhs),rhsMax =  -3.58182994448461E+01  1.80252117410715E+00
(PID.TID 0000.0001)  ploadbar=  1.01098083509016E+05
 cg2d: Sum(rhs),rhsMax =  -3.57084016940503E+01  1.80812665431129E+00
(PID.TID 0000.0001)  ploadbar=  1.01098703737672E+05
 cg2d: Sum(rhs),rhsMax =  -3.55943845107655E+01  1.81401386126811E+00
(PID.TID 0000.0001)  ploadbar=  1.01099323966328E+05
 cg2d: Sum(rhs),rhsMax =  -3.54899424150028E+01  1.81944802991036E+00
(PID.TID 0000.0001)  ploadbar=  1.01100348389267E+05
 cg2d: Sum(rhs),rhsMax =  -3.53770170425663E+01  1.82532898400504E+00
(PID.TID 0000.0001)  ploadbar=  1.01101372812206E+05
 cg2d: Sum(rhs),rhsMax =  -3.52564241089403E+01  1.83159934864580E+00
(PID.TID 0000.0001)  ploadbar=  1.01102397235146E+05
 cg2d: Sum(rhs),rhsMax =  -3.51210211060716E+01  1.83863100837822E+00
(PID.TID 0000.0001)  ploadbar=  1.01103421658085E+05
 cg2d: Sum(rhs),rhsMax =  -3.49608394268554E+01  1.84696477459476E+00
(PID.TID 0000.0001)  ploadbar=  1.01104446081025E+05
 cg2d: Sum(rhs),rhsMax =  -3.47641371992539E+01  1.85725660324652E+00
(PID.TID 0000.0001)  ploadbar=  1.01105470503964E+05
 cg2d: Sum(rhs),rhsMax =  -3.45478348773420E+01  1.86873084071518E+00
(PID.TID 0000.0001)  ploadbar=  1.01106141543152E+05
 cg2d: Sum(rhs),rhsMax =  -3.43203226455412E+01  1.88096512292454E+00
(PID.TID 0000.0001)  ploadbar=  1.01106812582340E+05
 cg2d: Sum(rhs),rhsMax =  -3.40898426689427E+01  1.89351892643852E+00
(PID.TID 0000.0001)  ploadbar=  1.01107483621528E+05
 cg2d: Sum(rhs),rhsMax =  -3.38619749879750E+01  1.90607535490232E+00
(PID.TID 0000.0001)  ploadbar=  1.01108154660716E+05
 cg2d: Sum(rhs),rhsMax =  -3.36391126261381E+01  1.91848427793842E+00
(PID.TID 0000.0001)  ploadbar=  1.01108825699904E+05
 cg2d: Sum(rhs),rhsMax =  -3.34204639515740E+01  1.93076859839190E+00
(PID.TID 0000.0001)  ploadbar=  1.01109496739092E+05
 cg2d: Sum(rhs),rhsMax =  -3.32138780038208E+01  1.94247189400968E+00
(PID.TID 0000.0001)  ploadbar=  1.01111659513205E+05
 cg2d: Sum(rhs),rhsMax =  -3.30180903970044E+01  1.95363805543180E+00
(PID.TID 0000.0001)  ploadbar=  1.01113822287317E+05
 cg2d: Sum(rhs),rhsMax =  -3.28291926664663E+01  1.96447633579713E+00
(PID.TID 0000.0001)  ploadbar=  1.01115985061430E+05
 cg2d: Sum(rhs),rhsMax =  -3.26486881999980E+01  1.97487743506201E+00
(PID.TID 0000.0001)  ploadbar=  1.01118147835542E+05
 cg2d: Sum(rhs),rhsMax =  -3.24779077095513E+01  1.98474382459573E+00
(PID.TID 0000.0001)  ploadbar=  1.01120310609654E+05
 cg2d: Sum(rhs),rhsMax =  -3.23166164498296E+01  1.99407187252924E+00
(PID.TID 0000.0001)  ploadbar=  1.01122473383767E+05
 cg2d: Sum(rhs),rhsMax =  -3.21616459149719E+01  2.00321027434774E+00
(PID.TID 0000.0001)  ploadbar=  1.01122488344493E+05
 cg2d: Sum(rhs),rhsMax =  -3.20213565134151E+01  2.01161990667450E+00
(PID.TID 0000.0001)  ploadbar=  1.01122503305219E+05
 cg2d: Sum(rhs),rhsMax =  -3.18911009042967E+01  2.01956795829615E+00
(PID.TID 0000.0001)  ploadbar=  1.01122518265945E+05
 cg2d: Sum(rhs),rhsMax =  -3.17702129158058E+01  2.02708015072431E+00
(PID.TID 0000.0001)  ploadbar=  1.01122533226671E+05
 cg2d: Sum(rhs),rhsMax =  -3.16590446360651E+01  2.03411287615221E+00
(PID.TID 0000.0001)  ploadbar=  1.01122548187398E+05
 cg2d: Sum(rhs),rhsMax =  -3.15572355858944E+01  2.04066220368311E+00
(PID.TID 0000.0001)  ploadbar=  1.01122563148124E+05
 cg2d: Sum(rhs),rhsMax =  -3.14704134738875E+01  2.04628794101334E+00
(PID.TID 0000.0001)  ploadbar=  1.01123765120838E+05
 cg2d: Sum(rhs),rhsMax =  -3.13961441511958E+01  2.05111043999077E+00
(PID.TID 0000.0001)  ploadbar=  1.01124967093553E+05
 cg2d: Sum(rhs),rhsMax =  -3.13302188148624E+01  2.05538507350669E+00
(PID.TID 0000.0001)  ploadbar=  1.01126169066267E+05
 cg2d: Sum(rhs),rhsMax =  -3.12735006700420E+01  2.05904440506137E+00
(PID.TID 0000.0001)  ploadbar=  1.01127371038981E+05
 cg2d: Sum(rhs),rhsMax =  -3.12256706159371E+01  2.06209521151148E+00
(PID.TID 0000.0001)  ploadbar=  1.01128573011696E+05
 cg2d: Sum(rhs),rhsMax =  -3.11866077358829E+01  2.06453541014256E+00
(PID.TID 0000.0001)  ploadbar=  1.01129774984410E+05
 cg2d: Sum(rhs),rhsMax =  -3.11566302337868E+01  2.06638061265622E+00
(PID.TID 0000.0001)  ploadbar=  1.01131624570225E+05
 cg2d: Sum(rhs),rhsMax =  -3.11380311163933E+01  2.06746846731212E+00
(PID.TID 0000.0001)  ploadbar=  1.01133474156040E+05
 cg2d: Sum(rhs),rhsMax =  -3.11296862033363E+01  2.06786491003928E+00
(PID.TID 0000.0001)  ploadbar=  1.01135323741855E+05
 cg2d: Sum(rhs),rhsMax =  -3.11300143598583E+01  2.06766416560248E+00
(PID.TID 0000.0001)  ploadbar=  1.01137173327670E+05
 cg2d: Sum(rhs),rhsMax =  -3.11378730242078E+01  2.06693673635225E+00
(PID.TID 0000.0001)  ploadbar=  1.01139022913485E+05
 cg2d: Sum(rhs),rhsMax =  -3.11529564374019E+01  2.06569497381512E+00
(PID.TID 0000.0001)  ploadbar=  1.01140872499300E+05
 cg2d: Sum(rhs),rhsMax =  -3.11727822381116E+01  2.06410477611887E+00
(PID.TID 0000.0001)  ploadbar=  1.01143066438089E+05
 cg2d: Sum(rhs),rhsMax =  -3.11982944377445E+01  2.06210011423262E+00
(PID.TID 0000.0001)  ploadbar=  1.01145260376879E+05
 cg2d: Sum(rhs),rhsMax =  -3.12294615075361E+01  2.05968425355973E+00
(PID.TID 0000.0001)  ploadbar=  1.01147454315669E+05
 cg2d: Sum(rhs),rhsMax =  -3.12668253684557E+01  2.05681865773445E+00
(PID.TID 0000.0001)  ploadbar=  1.01149648254459E+05
 cg2d: Sum(rhs),rhsMax =  -3.13095086402109E+01  2.05356252154953E+00
(PID.TID 0000.0001)  ploadbar=  1.01151842193248E+05
 cg2d: Sum(rhs),rhsMax =  -3.13564025875196E+01  2.04999383115000E+00
(PID.TID 0000.0001)  ploadbar=  1.01154036132038E+05
 cg2d: Sum(rhs),rhsMax =  -3.14088454956126E+01  2.04621562421873E+00
(PID.TID 0000.0001)  ploadbar=  1.01155806791723E+05
 cg2d: Sum(rhs),rhsMax =  -3.14650655271459E+01  2.04233467181971E+00
(PID.TID 0000.0001)  ploadbar=  1.01157577451408E+05
 cg2d: Sum(rhs),rhsMax =  -3.15236227496911E+01  2.03844185868845E+00
(PID.TID 0000.0001)  ploadbar=  1.01159348111092E+05
 cg2d: Sum(rhs),rhsMax =  -3.15839710611537E+01  2.03457426338080E+00
(PID.TID 0000.0001)  ploadbar=  1.01161118770777E+05
 cg2d: Sum(rhs),rhsMax =  -3.16431066596447E+01  2.03092336575170E+00
(PID.TID 0000.0001)  ploadbar=  1.01162889430462E+05
 cg2d: Sum(rhs),rhsMax =  -3.17000590282659E+01  2.02753893186047E+00
(PID.TID 0000.0001)  ploadbar=  1.01164660090147E+05
 cg2d: Sum(rhs),rhsMax =  -3.17490246968926E+01  2.02463915821346E+00
(PID.TID 0000.0001)  ploadbar=  1.01166069779088E+05
 cg2d: Sum(rhs),rhsMax =  -3.17956342468310E+01  2.02184245358208E+00
(PID.TID 0000.0001)  ploadbar=  1.01167479468029E+05
 cg2d: Sum(rhs),rhsMax =  -3.18427550545639E+01  2.01895613157376E+00
(PID.TID 0000.0001)  ploadbar=  1.01168889156970E+05
 cg2d: Sum(rhs),rhsMax =  -3.18929463284662E+01  2.01581624067766E+00
(PID.TID 0000.0001)  ploadbar=  1.01170298845910E+05
 cg2d: Sum(rhs),rhsMax =  -3.19478319548934E+01  2.01231671170852E+00
(PID.TID 0000.0001)  ploadbar=  1.01171708534851E+05
 cg2d: Sum(rhs),rhsMax =  -3.20091605026003E+01  2.00834411621018E+00
(PID.TID 0000.0001)  ploadbar=  1.01173118223792E+05
 cg2d: Sum(rhs),rhsMax =  -3.20771057801191E+01  2.00403572203050E+00
(PID.TID 0000.0001)  ploadbar=  1.01173478769719E+05
 cg2d: Sum(rhs),rhsMax =  -3.21572730008083E+01  1.99903276724932E+00
(PID.TID 0000.0001)  ploadbar=  1.01173839315645E+05
 cg2d: Sum(rhs),rhsMax =  -3.22532048449284E+01  1.99311898539493E+00
(PID.TID 0000.0001)  ploadbar=  1.01174199861571E+05
 cg2d: Sum(rhs),rhsMax =  -3.23676273752472E+01  1.98613534014081E+00
(PID.TID 0000.0001)  ploadbar=  1.01174560407498E+05
 cg2d: Sum(rhs),rhsMax =  -3.25019040375356E+01  1.97801105840736E+00
(PID.TID 0000.0001)  ploadbar=  1.01174920953424E+05
 cg2d: Sum(rhs),rhsMax =  -3.26559536235414E+01  1.96877519482123E+00
(PID.TID 0000.0001)  ploadbar=  1.01175281499350E+05
 cg2d: Sum(rhs),rhsMax =  -3.28250750504869E+01  1.95873314520438E+00
(PID.TID 0000.0001)  ploadbar=  1.01174877572982E+05
 cg2d: Sum(rhs),rhsMax =  -3.30124238927343E+01  1.94772365125771E+00
(PID.TID 0000.0001)  ploadbar=  1.01174473646614E+05
 cg2d: Sum(rhs),rhsMax =  -3.32230231739818E+01  1.93548698921240E+00
(PID.TID 0000.0001)  ploadbar=  1.01174069720246E+05
 cg2d: Sum(rhs),rhsMax =  -3.34578904460754E+01  1.92201558448686E+00
(PID.TID 0000.0001)  ploadbar=  1.01173665793878E+05
 cg2d: Sum(rhs),rhsMax =  -3.37172113948477E+01  1.90735445183136E+00
(PID.TID 0000.0001)  ploadbar=  1.01173261867510E+05
 cg2d: Sum(rhs),rhsMax =  -3.40008573143734E+01  1.89156977505583E+00
(PID.TID 0000.0001)  ploadbar=  1.01172857941142E+05
 cg2d: Sum(rhs),rhsMax =  -3.42871340543525E+01  1.87597183651469E+00
(PID.TID 0000.0001)  ploadbar=  1.01171076550907E+05
 cg2d: Sum(rhs),rhsMax =  -3.45852158072323E+01  1.86005997804601E+00
(PID.TID 0000.0001)  ploadbar=  1.01169295160672E+05
 cg2d: Sum(rhs),rhsMax =  -3.48947071065720E+01  1.84387449254176E+00
(PID.TID 0000.0001)  ploadbar=  1.01167513770437E+05
 cg2d: Sum(rhs),rhsMax =  -3.52089211800629E+01  1.82778363883307E+00
(PID.TID 0000.0001)  ploadbar=  1.01165732380203E+05
 cg2d: Sum(rhs),rhsMax =  -3.55239766676765E+01  1.81198411671625E+00
(PID.TID 0000.0001)  ploadbar=  1.01163950989968E+05
 cg2d: Sum(rhs),rhsMax =  -3.58371744980134E+01  1.79659727282370E+00
(PID.TID 0000.0001)  ploadbar=  1.01162169599733E+05
 cg2d: Sum(rhs),rhsMax =  -3.61512442346136E+01  1.78132499910912E+00
(PID.TID 0000.0001)  ploadbar=  1.01161473262575E+05
 cg2d: Sum(rhs),rhsMax =  -3.64635930800196E+01  1.76627548992867E+00
(PID.TID 0000.0001)  ploadbar=  1.01160776925417E+05
 cg2d: Sum(rhs),rhsMax =  -3.67913170532834E+01  1.75061655629623E+00
(PID.TID 0000.0001)  ploadbar=  1.01160080588258E+05
 cg2d: Sum(rhs),rhsMax =  -3.71524308288601E+01  1.73353849720511E+00
(PID.TID 0000.0001)  ploadbar=  1.01159384251100E+05
 cg2d: Sum(rhs),rhsMax =  -3.75628782752205E+01  1.71439281395694E+00
(PID.TID 0000.0001)  ploadbar=  1.01158687913942E+05
 cg2d: Sum(rhs),rhsMax =  -3.80329348051624E+01  1.69285935550947E+00
(PID.TID 0000.0001)  ploadbar=  1.01157991576783E+05
 cg2d: Sum(rhs),rhsMax =  -3.85725092983798E+01  1.66887456281611E+00
(PID.TID 0000.0001)  ploadbar=  1.01156358325538E+05
 cg2d: Sum(rhs),rhsMax =  -3.91716423781350E+01  1.64307240501832E+00
(PID.TID 0000.0001)  ploadbar=  1.01154725074292E+05
 cg2d: Sum(rhs),rhsMax =  -3.98149876052253E+01  1.61626379180212E+00
(PID.TID 0000.0001)  ploadbar=  1.01153091823047E+05
 cg2d: Sum(rhs),rhsMax =  -4.04949016403256E+01  1.58887371488884E+00
(PID.TID 0000.0001)  ploadbar=  1.01151458571801E+05
 cg2d: Sum(rhs),rhsMax =  -4.12031384660947E+01  1.56130923405372E+00
(PID.TID 0000.0001)  ploadbar=  1.01149825320556E+05
 cg2d: Sum(rhs),rhsMax =  -4.19372813252240E+01  1.53371915691675E+00
(PID.TID 0000.0001)  ploadbar=  1.01148192069310E+05
 cg2d: Sum(rhs),rhsMax =  -4.26992420906869E+01  1.50601970997820E+00
(PID.TID 0000.0001)  ploadbar=  1.01147804059550E+05
 cg2d: Sum(rhs),rhsMax =  -4.34612916603943E+01  1.47921456549731E+00
(PID.TID 0000.0001)  ploadbar=  1.01147416049790E+05
 cg2d: Sum(rhs),rhsMax =  -4.42139482395499E+01  1.45356502444969E+00
(PID.TID 0000.0001)  ploadbar=  1.01147028040031E+05
 cg2d: Sum(rhs),rhsMax =  -4.49534841379558E+01  1.42911361993947E+00
(PID.TID 0000.0001)  ploadbar=  1.01146640030271E+05
 cg2d: Sum(rhs),rhsMax =  -4.56774261638875E+01  1.40585686973214E+00
(PID.TID 0000.0001)  ploadbar=  1.01146252020511E+05
 cg2d: Sum(rhs),rhsMax =  -4.65590656924363E+01  1.37856790096885E+00
(PID.TID 0000.0001)  ploadbar=  1.01145864010751E+05
 cg2d: Sum(rhs),rhsMax =  -4.74460673095644E+01  1.35225925240824E+00
(PID.TID 0000.0001)  ploadbar=  1.01145368764307E+05
 cg2d: Sum(rhs),rhsMax =  -4.83041401066520E+01  1.32782593241819E+00
(PID.TID 0000.0001)  ploadbar=  1.01144873517863E+05
 cg2d: Sum(rhs),rhsMax =  -4.91372954700188E+01  1.30501857471297E+00
(PID.TID 0000.0001)  ploadbar=  1.01144378271418E+05
 cg2d: Sum(rhs),rhsMax =  -4.99476056498631E+01  1.28366530605352E+00
(PID.TID 0000.0001)  ploadbar=  1.01143883024974E+05
 cg2d: Sum(rhs),rhsMax =  -5.07353996795540E+01  1.26365378813115E+00
(PID.TID 0000.0001)  ploadbar=  1.01143387778529E+05
 cg2d: Sum(rhs),rhsMax =  -5.14948527806119E+01  1.24503308070312E+00
(PID.TID 0000.0001)  ploadbar=  1.01142892532085E+05
 cg2d: Sum(rhs),rhsMax =  -5.15797317011964E+01  1.24296519342299E+00
(PID.TID 0000.0001)  ploadbar=  1.01142632435181E+05
 cg2d: Sum(rhs),rhsMax =  -5.14820514375970E+01  1.24526474625152E+00
(PID.TID 0000.0001)  ploadbar=  1.01142372338277E+05
 cg2d: Sum(rhs),rhsMax =  -5.13907642531428E+01  1.24737517079345E+00
(PID.TID 0000.0001)  ploadbar=  1.01142112241374E+05
 cg2d: Sum(rhs),rhsMax =  -5.13037396250366E+01  1.24934322332919E+00
(PID.TID 0000.0001)  ploadbar=  1.01141852144470E+05
 cg2d: Sum(rhs),rhsMax =  -5.12205451166811E+01  1.25117402565172E+00
(PID.TID 0000.0001)  ploadbar=  1.01141592047566E+05
 cg2d: Sum(rhs),rhsMax =  -5.11404664414183E+01  1.25287564901816E+00
(PID.TID 0000.0001)  ploadbar=  1.01141331950663E+05
 cg2d: Sum(rhs),rhsMax =  -5.10823532265595E+01  1.25404972190317E+00
(PID.TID 0000.0001)  ploadbar=  1.01141597837655E+05
 cg2d: Sum(rhs),rhsMax =  -5.10263565238756E+01  1.25517549551201E+00
(PID.TID 0000.0001)  ploadbar=  1.01141863724647E+05
 cg2d: Sum(rhs),rhsMax =  -5.09716952938986E+01  1.25626306639674E+00
(PID.TID 0000.0001)  ploadbar=  1.01142129611638E+05
 cg2d: Sum(rhs),rhsMax =  -5.09211858988993E+01  1.25723578068708E+00
(PID.TID 0000.0001)  ploadbar=  1.01142395498630E+05
 cg2d: Sum(rhs),rhsMax =  -5.08742902847560E+01  1.25809629829503E+00
(PID.TID 0000.0001)  ploadbar=  1.01142661385622E+05
 cg2d: Sum(rhs),rhsMax =  -5.08321537700539E+01  1.25880592428895E+00
(PID.TID 0000.0001)  ploadbar=  1.01142927272614E+05
 cg2d: Sum(rhs),rhsMax =  -5.07986144293809E+01  1.25925005676035E+00
(PID.TID 0000.0001)  ploadbar=  1.01143908037788E+05
 cg2d: Sum(rhs),rhsMax =  -5.07740386525681E+01  1.25941649857890E+00
(PID.TID 0000.0001)  ploadbar=  1.01144888802962E+05
 cg2d: Sum(rhs),rhsMax =  -5.07562481392921E+01  1.25935748286434E+00
(PID.TID 0000.0001)  ploadbar=  1.01145869568136E+05
 cg2d: Sum(rhs),rhsMax =  -5.07447933684417E+01  1.25908047394994E+00
(PID.TID 0000.0001)  ploadbar=  1.01146850333309E+05
 cg2d: Sum(rhs),rhsMax =  -5.07400734647115E+01  1.25857364280101E+00
(PID.TID 0000.0001)  ploadbar=  1.01147831098483E+05
 cg2d: Sum(rhs),rhsMax =  -5.07405507316229E+01  1.25787171139890E+00
(PID.TID 0000.0001)  ploadbar=  1.01148811863657E+05
 cg2d: Sum(rhs),rhsMax =  -5.07463311452499E+01  1.25714185201286E+00
(PID.TID 0000.0001)  ploadbar=  1.01149735332444E+05
 cg2d: Sum(rhs),rhsMax =  -5.07585790978847E+01  1.25634993078479E+00
(PID.TID 0000.0001)  ploadbar=  1.01150658801232E+05
 cg2d: Sum(rhs),rhsMax =  -5.07783852731221E+01  1.25546111916532E+00
(PID.TID 0000.0001)  ploadbar=  1.01151582270019E+05
 cg2d: Sum(rhs),rhsMax =  -5.08028516765871E+01  1.25453641908903E+00
(PID.TID 0000.0001)  ploadbar=  1.01152505738807E+05
 cg2d: Sum(rhs),rhsMax =  -5.08310266228042E+01  1.25359231200963E+00
(PID.TID 0000.0001)  ploadbar=  1.01153429207594E+05
 cg2d: Sum(rhs),rhsMax =  -5.08615788423368E+01  1.25265084649114E+00
(PID.TID 0000.0001)  ploadbar=  1.01154352676382E+05
 cg2d: Sum(rhs),rhsMax =  -5.08844260893108E+01  1.25188256369953E+00
(PID.TID 0000.0001)  ploadbar=  1.01154778556639E+05
 cg2d: Sum(rhs),rhsMax =  -5.09027158528971E+01  1.25120316457314E+00
(PID.TID 0000.0001)  ploadbar=  1.01155204436897E+05
 cg2d: Sum(rhs),rhsMax =  -5.09167099672124E+01  1.25060236101108E+00
(PID.TID 0000.0001)  ploadbar=  1.01155630317154E+05
 cg2d: Sum(rhs),rhsMax =  -5.09274004789330E+01  1.25004745209110E+00
(PID.TID 0000.0001)  ploadbar=  1.01156056197412E+05
 cg2d: Sum(rhs),rhsMax =  -5.09375523189281E+01  1.24946281563693E+00
(PID.TID 0000.0001)  ploadbar=  1.01156482077669E+05
 cg2d: Sum(rhs),rhsMax =  -5.09505929002611E+01  1.24876169333090E+00
(PID.TID 0000.0001)  ploadbar=  1.01156907957927E+05
 cg2d: Sum(rhs),rhsMax =  -5.09734334777438E+01  1.24788549533075E+00
(PID.TID 0000.0001)  ploadbar=  1.01155639887326E+05
 cg2d: Sum(rhs),rhsMax =  -5.10121100003681E+01  1.24667907260847E+00
(PID.TID 0000.0001)  ploadbar=  1.01154371816726E+05
 cg2d: Sum(rhs),rhsMax =  -5.10625578439990E+01  1.24523212265322E+00
(PID.TID 0000.0001)  ploadbar=  1.01153103746125E+05
 cg2d: Sum(rhs),rhsMax =  -5.11220370918854E+01  1.24360076413660E+00
(PID.TID 0000.0001)  ploadbar=  1.01151835675525E+05
 cg2d: Sum(rhs),rhsMax =  -5.11884751172672E+01  1.24182901084419E+00
(PID.TID 0000.0001)  ploadbar=  1.01150567604925E+05
 cg2d: Sum(rhs),rhsMax =  -5.12614344501509E+01  1.23992214248251E+00
(PID.TID 0000.0001)  ploadbar=  1.01149299534324E+05
 cg2d: Sum(rhs),rhsMax =  -5.13421033216200E+01  1.23783186233284E+00
(PID.TID 0000.0001)  ploadbar=  1.01149919317773E+05
 cg2d: Sum(rhs),rhsMax =  -5.14326106949849E+01  1.23550622191017E+00
(PID.TID 0000.0001)  ploadbar=  1.01150539101221E+05
 cg2d: Sum(rhs),rhsMax =  -5.15285664607794E+01  1.23304894228915E+00
(PID.TID 0000.0001)  ploadbar=  1.01151158884669E+05
 cg2d: Sum(rhs),rhsMax =  -5.16278764831403E+01  1.23050929141832E+00
(PID.TID 0000.0001)  ploadbar=  1.01151778668118E+05
 cg2d: Sum(rhs),rhsMax =  -5.17309351580926E+01  1.22787476138970E+00
(PID.TID 0000.0001)  ploadbar=  1.01152398451566E+05
 cg2d: Sum(rhs),rhsMax =  -5.18363524946797E+01  1.22517597591624E+00
(PID.TID 0000.0001)  ploadbar=  1.01153018235015E+05
 cg2d: Sum(rhs),rhsMax =  -5.19488009903310E+01  1.22240371111274E+00
(PID.TID 0000.0001)  ploadbar=  1.01152100380805E+05
 cg2d: Sum(rhs),rhsMax =  -5.20668486666678E+01  1.21958696111000E+00
(PID.TID 0000.0001)  ploadbar=  1.01151182526595E+05
 cg2d: Sum(rhs),rhsMax =  -5.21999021234616E+01  1.21650549931223E+00
(PID.TID 0000.0001)  ploadbar=  1.01150264672385E+05
 cg2d: Sum(rhs),rhsMax =  -5.23512215649781E+01  1.21308377043155E+00
(PID.TID 0000.0001)  ploadbar=  1.01149346818176E+05
 cg2d: Sum(rhs),rhsMax =  -5.25269611661356E+01  1.20917890483496E+00
(PID.TID 0000.0001)  ploadbar=  1.01148428963966E+05
 cg2d: Sum(rhs),rhsMax =  -5.27375670238273E+01  1.20455590334438E+00
(PID.TID 0000.0001)  ploadbar=  1.01147511109756E+05
 cg2d: Sum(rhs),rhsMax =  -5.30061519940626E+01  1.19860957802821E+00
(PID.TID 0000.0001)  ploadbar=  1.01147683406164E+05
 cg2d: Sum(rhs),rhsMax =  -5.33497723507772E+01  1.19099503294816E+00
(PID.TID 0000.0001)  ploadbar=  1.01147855702572E+05
 cg2d: Sum(rhs),rhsMax =  -5.37898030310559E+01  1.18130158132655E+00
(PID.TID 0000.0001)  ploadbar=  1.01148027998979E+05
 cg2d: Sum(rhs),rhsMax =  -5.43414748686249E+01  1.16929871404906E+00
(PID.TID 0000.0001)  ploadbar=  1.01148200295387E+05
 cg2d: Sum(rhs),rhsMax =  -5.49903826269514E+01  1.15542581384083E+00
(PID.TID 0000.0001)  ploadbar=  1.01148372591795E+05
 cg2d: Sum(rhs),rhsMax =  -5.57085468115048E+01  1.14039178694122E+00
(PID.TID 0000.0001)  ploadbar=  1.01148544888203E+05
 cg2d: Sum(rhs),rhsMax =  -5.64231224154896E+01  1.12582490907934E+00
(PID.TID 0000.0001)  ploadbar=  1.01147592168743E+05
 cg2d: Sum(rhs),rhsMax =  -5.71882516845069E+01  1.11064474351106E+00
(PID.TID 0000.0001)  ploadbar=  1.01146639449282E+05
 cg2d: Sum(rhs),rhsMax =  -5.63569505927133E+01  1.12690685351039E+00
(PID.TID 0000.0001)  ploadbar=  1.01145686729822E+05
 cg2d: Sum(rhs),rhsMax =  -5.52772979948286E+01  1.14878704108351E+00
(PID.TID 0000.0001)  ploadbar=  1.01144734010362E+05
 cg2d: Sum(rhs),rhsMax =  -5.42655099009604E+01  1.17006175023289E+00
(PID.TID 0000.0001)  ploadbar=  1.01143781290902E+05
 cg2d: Sum(rhs),rhsMax =  -5.33181788547985E+01  1.19069327619718E+00
(PID.TID 0000.0001)  ploadbar=  1.01142828571442E+05
 cg2d: Sum(rhs),rhsMax =  -5.23989404305785E+01  1.21139579280586E+00
(PID.TID 0000.0001)  ploadbar=  1.01142522505295E+05
 cg2d: Sum(rhs),rhsMax =  -5.15553115502803E+01  1.23100182861850E+00
(PID.TID 0000.0001)  ploadbar=  1.01142216439148E+05
 cg2d: Sum(rhs),rhsMax =  -5.07901631987085E+01  1.24929824502615E+00
(PID.TID 0000.0001)  ploadbar=  1.01141910373001E+05
 cg2d: Sum(rhs),rhsMax =  -5.01143448088309E+01  1.26586784602522E+00
(PID.TID 0000.0001)  ploadbar=  1.01141604306854E+05
 cg2d: Sum(rhs),rhsMax =  -4.95269103624377E+01  1.28057762017442E+00
(PID.TID 0000.0001)  ploadbar=  1.01141298240707E+05
 cg2d: Sum(rhs),rhsMax =  -4.90354976995076E+01  1.29308156235489E+00
(PID.TID 0000.0001)  ploadbar=  1.01140992174560E+05
 cg2d: Sum(rhs),rhsMax =  -4.86186631184288E+01  1.30394119911403E+00
(PID.TID 0000.0001)  ploadbar=  1.01140737216294E+05
 cg2d: Sum(rhs),rhsMax =  -4.82798020715102E+01  1.31296898042254E+00
(PID.TID 0000.0001)  ploadbar=  1.01140482258027E+05
 cg2d: Sum(rhs),rhsMax =  -4.80226983954323E+01  1.31997636242682E+00
(PID.TID 0000.0001)  ploadbar=  1.01140227299760E+05
 cg2d: Sum(rhs),rhsMax =  -4.78554022990180E+01  1.32466848950675E+00
(PID.TID 0000.0001)  ploadbar=  1.01139972341494E+05
 cg2d: Sum(rhs),rhsMax =  -4.77810183836707E+01  1.32690737512278E+00
(PID.TID 0000.0001)  ploadbar=  1.01139717383227E+05
 cg2d: Sum(rhs),rhsMax =  -4.78048296416635E+01  1.32651802271767E+00
(PID.TID 0000.0001)  ploadbar=  1.01139462424960E+05
 cg2d: Sum(rhs),rhsMax =  -4.79442888857561E+01  1.32291184940604E+00
(PID.TID 0000.0001)  ploadbar=  1.01139110885650E+05
 cg2d: Sum(rhs),rhsMax =  -4.82087461344464E+01  1.31588190308844E+00
(PID.TID 0000.0001)  ploadbar=  1.01138759346339E+05
 cg2d: Sum(rhs),rhsMax =  -4.86074172751180E+01  1.30528617090426E+00
(PID.TID 0000.0001)  ploadbar=  1.01138407807028E+05
 cg2d: Sum(rhs),rhsMax =  -4.91558349788875E+01  1.29088620431988E+00
(PID.TID 0000.0001)  ploadbar=  1.01138056267718E+05
 cg2d: Sum(rhs),rhsMax =  -5.00778713440550E+01  1.26724206254749E+00
(PID.TID 0000.0001)  ploadbar=  1.01137704728407E+05
 cg2d: Sum(rhs),rhsMax =  -4.82453661781121E+01  1.31546363954952E+00
(PID.TID 0000.0001)  ploadbar=  1.01137353189096E+05
 cg2d: Sum(rhs),rhsMax =  -4.61474610270449E+01  1.37535966240973E+00
(PID.TID 0000.0001)  ploadbar=  1.01135433671031E+05
 cg2d: Sum(rhs),rhsMax =  -4.43017415615037E+01  1.43275811551018E+00
(PID.TID 0000.0001)  ploadbar=  1.01133514152965E+05
 cg2d: Sum(rhs),rhsMax =  -4.26719297754773E+01  1.48757862126945E+00
(PID.TID 0000.0001)  ploadbar=  1.01131594634899E+05
 cg2d: Sum(rhs),rhsMax =  -4.12337198285881E+01  1.53955816040982E+00
(PID.TID 0000.0001)  ploadbar=  1.01129675116834E+05
 cg2d: Sum(rhs),rhsMax =  -3.99662987795610E+01  1.58846234700377E+00
(PID.TID 0000.0001)  ploadbar=  1.01127755598768E+05
 cg2d: Sum(rhs),rhsMax =  -3.88452256452282E+01  1.63436604856955E+00
(PID.TID 0000.0001)  ploadbar=  1.01125836080702E+05
 cg2d: Sum(rhs),rhsMax =  -3.78437503806312E+01  1.67753030072318E+00
(PID.TID 0000.0001)  ploadbar=  1.01123952432413E+05
 cg2d: Sum(rhs),rhsMax =  -3.69613179661966E+01  1.71733794015367E+00
(PID.TID 0000.0001)  ploadbar=  1.01122068784124E+05
 cg2d: Sum(rhs),rhsMax =  -3.61862731402946E+01  1.75371354729596E+00
(PID.TID 0000.0001)  ploadbar=  1.01120185135835E+05
 cg2d: Sum(rhs),rhsMax =  -3.55074777410639E+01  1.78666065786746E+00
(PID.TID 0000.0001)  ploadbar=  1.01118301487545E+05
 cg2d: Sum(rhs),rhsMax =  -3.49192045636393E+01  1.81600444319345E+00
(PID.TID 0000.0001)  ploadbar=  1.01116417839256E+05
 cg2d: Sum(rhs),rhsMax =  -3.44168252783957E+01  1.84157775123253E+00
(PID.TID 0000.0001)  ploadbar=  1.01114534190967E+05
 cg2d: Sum(rhs),rhsMax =  -3.39833271615126E+01  1.86424290440268E+00
(PID.TID 0000.0001)  ploadbar=  1.01112714093351E+05
 cg2d: Sum(rhs),rhsMax =  -3.36267539420223E+01  1.88329177518643E+00
(PID.TID 0000.0001)  ploadbar=  1.01110893995734E+05
 cg2d: Sum(rhs),rhsMax =  -3.33411929328838E+01  1.89880571763488E+00
(PID.TID 0000.0001)  ploadbar=  1.01109073898118E+05
 cg2d: Sum(rhs),rhsMax =  -3.31815356423925E+01  1.90742617022769E+00
(PID.TID 0000.0001)  ploadbar=  1.01107253800501E+05
 cg2d: Sum(rhs),rhsMax =  -3.30793908363063E+01  1.91289957341103E+00
(PID.TID 0000.0001)  ploadbar=  1.01105433702885E+05
 cg2d: Sum(rhs),rhsMax =  -3.30334065618490E+01  1.91524005537768E+00
(PID.TID 0000.0001)  ploadbar=  1.01103613605269E+05
 cg2d: Sum(rhs),rhsMax =  -3.30425463542586E+01  1.91432196427679E+00
(PID.TID 0000.0001)  ploadbar=  1.01103125396296E+05
 cg2d: Sum(rhs),rhsMax =  -3.31150883534832E+01  1.90966626521014E+00
(PID.TID 0000.0001)  ploadbar=  1.01102637187323E+05
 cg2d: Sum(rhs),rhsMax =  -3.32224880973076E+01  1.90294554905943E+00
(PID.TID 0000.0001)  ploadbar=  1.01102148978350E+05
 cg2d: Sum(rhs),rhsMax =  -3.33559133109649E+01  1.89468953323218E+00
(PID.TID 0000.0001)  ploadbar=  1.01101660769377E+05
 cg2d: Sum(rhs),rhsMax =  -3.38562186709171E+01  1.86594728230992E+00
(PID.TID 0000.0001)  ploadbar=  1.01101172560404E+05
 cg2d: Sum(rhs),rhsMax =  -3.43423194020957E+01  1.83868421263773E+00
(PID.TID 0000.0001)  ploadbar=  1.01100684351431E+05
 cg2d: Sum(rhs),rhsMax =  -3.47815371091099E+01  1.81469879249973E+00
(PID.TID 0000.0001)  ploadbar=  1.01099224848596E+05
 cg2d: Sum(rhs),rhsMax =  -3.51994784400714E+01  1.79246406163684E+00
(PID.TID 0000.0001)  ploadbar=  1.01097765345762E+05
 cg2d: Sum(rhs),rhsMax =  -3.55952907000164E+01  1.77191412620154E+00
(PID.TID 0000.0001)  ploadbar=  1.01096305842927E+05
 cg2d: Sum(rhs),rhsMax =  -3.59570375736660E+01  1.75352951031241E+00
(PID.TID 0000.0001)  ploadbar=  1.01094846340093E+05
 cg2d: Sum(rhs),rhsMax =  -3.63016932349120E+01  1.73637212717935E+00
(PID.TID 0000.0001)  ploadbar=  1.01093386837258E+05
 cg2d: Sum(rhs),rhsMax =  -3.66328568680097E+01  1.72020773112427E+00
(PID.TID 0000.0001)  ploadbar=  1.01091927334424E+05
 cg2d: Sum(rhs),rhsMax =  -3.69902323260722E+01  1.70311813048091E+00
(PID.TID 0000.0001)  ploadbar=  1.01090487436766E+05
 cg2d: Sum(rhs),rhsMax =  -3.73381880329337E+01  1.68677031094401E+00
(PID.TID 0000.0001)  ploadbar=  1.01089047539108E+05
 cg2d: Sum(rhs),rhsMax =  -3.76779169017004E+01  1.67107628799978E+00
(PID.TID 0000.0001)  ploadbar=  1.01087607641450E+05
 cg2d: Sum(rhs),rhsMax =  -3.80026640607378E+01  1.65630328016458E+00
(PID.TID 0000.0001)  ploadbar=  1.01086167743792E+05
 cg2d: Sum(rhs),rhsMax =  -3.83003821402024E+01  1.64292669592960E+00
(PID.TID 0000.0001)  ploadbar=  1.01084727846134E+05
 cg2d: Sum(rhs),rhsMax =  -3.85636054700828E+01  1.63120266381697E+00
(PID.TID 0000.0001)  ploadbar=  1.01083287948476E+05
 cg2d: Sum(rhs),rhsMax =  -3.88194107747136E+01  1.62005356727341E+00
(PID.TID 0000.0001)  ploadbar=  1.01083396012160E+05
 cg2d: Sum(rhs),rhsMax =  -3.90429645058207E+01  1.61048087544034E+00
(PID.TID 0000.0001)  ploadbar=  1.01083504075844E+05
 cg2d: Sum(rhs),rhsMax =  -3.92408334378339E+01  1.60215868372823E+00
(PID.TID 0000.0001)  ploadbar=  1.01083612139528E+05
 cg2d: Sum(rhs),rhsMax =  -3.94202993518942E+01  1.59475342153774E+00
(PID.TID 0000.0001)  ploadbar=  1.01083720203212E+05
 cg2d: Sum(rhs),rhsMax =  -3.95895018669178E+01  1.58791360441824E+00
(PID.TID 0000.0001)  ploadbar=  1.01083828266896E+05
 cg2d: Sum(rhs),rhsMax =  -3.97588692627282E+01  1.58120688254529E+00
(PID.TID 0000.0001)  ploadbar=  1.01083936330580E+05
 cg2d: Sum(rhs),rhsMax =  -3.99735273555268E+01  1.57270728584792E+00
(PID.TID 0000.0001)  ploadbar=  1.01082435624897E+05
 cg2d: Sum(rhs),rhsMax =  -4.02234405797029E+01  1.56285290189080E+00
(PID.TID 0000.0001)  ploadbar=  1.01080934919214E+05
 cg2d: Sum(rhs),rhsMax =  -4.05342994079738E+01  1.55070064016799E+00
(PID.TID 0000.0001)  ploadbar=  1.01079434213531E+05
 cg2d: Sum(rhs),rhsMax =  -4.03560637614583E+01  1.55728526026143E+00
(PID.TID 0000.0001)  ploadbar=  1.01077933507848E+05
 cg2d: Sum(rhs),rhsMax =  -4.00803362782839E+01  1.56762919752181E+00
(PID.TID 0000.0001)  ploadbar=  1.01076432802165E+05
 cg2d: Sum(rhs),rhsMax =  -3.97874965890645E+01  1.57868577999186E+00
(PID.TID 0000.0001)  ploadbar=  1.01074932096482E+05
 cg2d: Sum(rhs),rhsMax =  -3.94579339015377E+01  1.59146455192522E+00
(PID.TID 0000.0001)  ploadbar=  1.01071664570980E+05
 cg2d: Sum(rhs),rhsMax =  -3.91138077929158E+01  1.60513180145049E+00
(PID.TID 0000.0001)  ploadbar=  1.01068397045478E+05
 cg2d: Sum(rhs),rhsMax =  -3.87662129384821E+01  1.61925590100113E+00
(PID.TID 0000.0001)  ploadbar=  1.01065129519975E+05
 cg2d: Sum(rhs),rhsMax =  -3.84234749162534E+01  1.63349246999045E+00
(PID.TID 0000.0001)  ploadbar=  1.01061861994473E+05
 cg2d: Sum(rhs),rhsMax =  -3.81182719454390E+01  1.64642585649598E+00
(PID.TID 0000.0001)  ploadbar=  1.01058594468971E+05
 cg2d: Sum(rhs),rhsMax =  -3.78466545805800E+01  1.65814907697739E+00
(PID.TID 0000.0001)  ploadbar=  1.01055326943469E+05
 cg2d: Sum(rhs),rhsMax =  -3.75918260818408E+01  1.66928596066401E+00
(PID.TID 0000.0001)  ploadbar=  1.01054084723413E+05
 cg2d: Sum(rhs),rhsMax =  -3.73767649333819E+01  1.67877324102439E+00
(PID.TID 0000.0001)  ploadbar=  1.01052842503357E+05
 cg2d: Sum(rhs),rhsMax =  -3.72079347751919E+01  1.68625355239492E+00
(PID.TID 0000.0001)  ploadbar=  1.01051600283301E+05
 cg2d: Sum(rhs),rhsMax =  -3.70856134598685E+01  1.69165299650069E+00
(PID.TID 0000.0001)  ploadbar=  1.01050358063244E+05
 cg2d: Sum(rhs),rhsMax =  -3.70090976867971E+01  1.69496276480264E+00
(PID.TID 0000.0001)  ploadbar=  1.01049115843188E+05
 cg2d: Sum(rhs),rhsMax =  -3.69745145731539E+01  1.69633237075342E+00
(PID.TID 0000.0001)  ploadbar=  1.01047873623132E+05
 cg2d: Sum(rhs),rhsMax =  -3.69932405451232E+01  1.69536123301379E+00
(PID.TID 0000.0001)  ploadbar=  1.01046627081530E+05
 cg2d: Sum(rhs),rhsMax =  -3.70364531223748E+01  1.69336946173935E+00
(PID.TID 0000.0001)  ploadbar=  1.01045380539929E+05
 cg2d: Sum(rhs),rhsMax =  -3.71018049272909E+01  1.69046612989589E+00
(PID.TID 0000.0001)  ploadbar=  1.01044133998327E+05
 cg2d: Sum(rhs),rhsMax =  -3.71791165537075E+01  1.68711725126891E+00
(PID.TID 0000.0001)  ploadbar=  1.01042887456725E+05
 cg2d: Sum(rhs),rhsMax =  -3.72623188157724E+01  1.68359597776967E+00
(PID.TID 0000.0001)  ploadbar=  1.01041640915124E+05
 cg2d: Sum(rhs),rhsMax =  -3.73454420521655E+01  1.68016218338097E+00
(PID.TID 0000.0001)  ploadbar=  1.01040394373522E+05
 cg2d: Sum(rhs),rhsMax =  -3.73899606768162E+01  1.67843883770037E+00
(PID.TID 0000.0001)  ploadbar=  1.01039341910982E+05
 cg2d: Sum(rhs),rhsMax =  -3.74161635683655E+01  1.67749143983075E+00
(PID.TID 0000.0001)  ploadbar=  1.01038289448441E+05
 cg2d: Sum(rhs),rhsMax =  -3.74228701157695E+01  1.67736470741890E+00
(PID.TID 0000.0001)  ploadbar=  1.01037236985901E+05
 cg2d: Sum(rhs),rhsMax =  -3.74131347555207E+01  1.67791274766398E+00
(PID.TID 0000.0001)  ploadbar=  1.01036184523360E+05
 cg2d: Sum(rhs),rhsMax =  -3.73923206439197E+01  1.67888849229321E+00
(PID.TID 0000.0001)  ploadbar=  1.01035132060820E+05
 cg2d: Sum(rhs),rhsMax =  -3.73654218202837E+01  1.68006701960724E+00
(PID.TID 0000.0001)  ploadbar=  1.01034079598279E+05
 cg2d: Sum(rhs),rhsMax =  -3.73410931558302E+01  1.68120817047504E+00
(PID.TID 0000.0001)  ploadbar=  1.01034163956601E+05
 cg2d: Sum(rhs),rhsMax =  -3.73063124631133E+01  1.68288635839510E+00
(PID.TID 0000.0001)  ploadbar=  1.01034248314923E+05
 cg2d: Sum(rhs),rhsMax =  -3.72708986263336E+01  1.68465670536384E+00
(PID.TID 0000.0001)  ploadbar=  1.01034332673245E+05
 cg2d: Sum(rhs),rhsMax =  -3.72261681649360E+01  1.68690633201234E+00
(PID.TID 0000.0001)  ploadbar=  1.01034417031567E+05
 cg2d: Sum(rhs),rhsMax =  -3.71717727647907E+01  1.68964925186905E+00
(PID.TID 0000.0001)  ploadbar=  1.01034501389889E+05
 cg2d: Sum(rhs),rhsMax =  -3.71069515222218E+01  1.69291743377241E+00
(PID.TID 0000.0001)  ploadbar=  1.01034585748211E+05
 cg2d: Sum(rhs),rhsMax =  -3.70690455650149E+01  1.69493522337893E+00
(PID.TID 0000.0001)  ploadbar=  1.01034497765648E+05
 cg2d: Sum(rhs),rhsMax =  -3.70368099813935E+01  1.69665869552312E+00
(PID.TID 0000.0001)  ploadbar=  1.01034409783085E+05
 cg2d: Sum(rhs),rhsMax =  -3.70069796288671E+01  1.69823376102014E+00
(PID.TID 0000.0001)  ploadbar=  1.01034321800521E+05
 cg2d: Sum(rhs),rhsMax =  -3.70535779599916E+01  1.69626269989702E+00
(PID.TID 0000.0001)  ploadbar=  1.01034233817958E+05
 cg2d: Sum(rhs),rhsMax =  -3.70918389827860E+01  1.69463302495364E+00
(PID.TID 0000.0001)  ploadbar=  1.01034145835395E+05
 cg2d: Sum(rhs),rhsMax =  -3.71239725126320E+01  1.69324182260093E+00
(PID.TID 0000.0001)  ploadbar=  1.01034057852832E+05
 cg2d: Sum(rhs),rhsMax =  -3.71569000039897E+01  1.69192086036758E+00
(PID.TID 0000.0001)  ploadbar=  1.01034277849312E+05
 cg2d: Sum(rhs),rhsMax =  -3.71946296466624E+01  1.69048141434791E+00
(PID.TID 0000.0001)  ploadbar=  1.01034497845792E+05
 cg2d: Sum(rhs),rhsMax =  -3.72384251228771E+01  1.68886263063970E+00
(PID.TID 0000.0001)  ploadbar=  1.01034717842272E+05
 cg2d: Sum(rhs),rhsMax =  -3.72916277384627E+01  1.68691034940289E+00
(PID.TID 0000.0001)  ploadbar=  1.01034937838752E+05
 cg2d: Sum(rhs),rhsMax =  -3.73545474323312E+01  1.68460856952312E+00
(PID.TID 0000.0001)  ploadbar=  1.01035157835232E+05
 cg2d: Sum(rhs),rhsMax =  -3.74304443603204E+01  1.68180988157791E+00
(PID.TID 0000.0001)  ploadbar=  1.01035377831712E+05
 cg2d: Sum(rhs),rhsMax =  -3.74869159674321E+01  1.67987724441893E+00
(PID.TID 0000.0001)  ploadbar=  1.01036455749169E+05
 cg2d: Sum(rhs),rhsMax =  -3.75607885017056E+01  1.67714945981160E+00
(PID.TID 0000.0001)  ploadbar=  1.01037533666626E+05
 cg2d: Sum(rhs),rhsMax =  -3.76585115906672E+01  1.67334120957713E+00
(PID.TID 0000.0001)  ploadbar=  1.01038611584084E+05
 cg2d: Sum(rhs),rhsMax =  -3.77695156184995E+01  1.66892532837068E+00
(PID.TID 0000.0001)  ploadbar=  1.01039689501541E+05
 cg2d: Sum(rhs),rhsMax =  -3.78799324472595E+01  1.66451011546501E+00
(PID.TID 0000.0001)  ploadbar=  1.01040767418998E+05
 cg2d: Sum(rhs),rhsMax =  -3.80021358539875E+01  1.65955054808964E+00
(PID.TID 0000.0001)  ploadbar=  1.01041845336456E+05
 cg2d: Sum(rhs),rhsMax =  -3.81712176708828E+01  1.65263261406671E+00
(PID.TID 0000.0001)  ploadbar=  1.01043112636184E+05
 cg2d: Sum(rhs),rhsMax =  -3.83709190765576E+01  1.64449642916641E+00
(PID.TID 0000.0001)  ploadbar=  1.01044379935913E+05
 cg2d: Sum(rhs),rhsMax =  -3.85959601428156E+01  1.63540118229905E+00
(PID.TID 0000.0001)  ploadbar=  1.01045647235642E+05
 cg2d: Sum(rhs),rhsMax =  -3.88450173101386E+01  1.62543090009524E+00
(PID.TID 0000.0001)  ploadbar=  1.01046914535371E+05
 cg2d: Sum(rhs),rhsMax =  -3.91150915827454E+01  1.61473648171382E+00
(PID.TID 0000.0001)  ploadbar=  1.01048181835100E+05
 cg2d: Sum(rhs),rhsMax =  -3.94013807379862E+01  1.60354455218621E+00
(PID.TID 0000.0001)  ploadbar=  1.01049449134829E+05
 cg2d: Sum(rhs),rhsMax =  -3.97054251295309E+01  1.59174069359969E+00
(PID.TID 0000.0001)  ploadbar=  1.01050591823586E+05
 cg2d: Sum(rhs),rhsMax =  -4.00153204038083E+01  1.57981979601612E+00
(PID.TID 0000.0001)  ploadbar=  1.01051734512343E+05
 cg2d: Sum(rhs),rhsMax =  -4.03284554278814E+01  1.56788635187709E+00
(PID.TID 0000.0001)  ploadbar=  1.01052877201100E+05
 cg2d: Sum(rhs),rhsMax =  -4.06466919292346E+01  1.55587005966279E+00
(PID.TID 0000.0001)  ploadbar=  1.01054019889857E+05
 cg2d: Sum(rhs),rhsMax =  -4.09714357482825E+01  1.54372457628240E+00
(PID.TID 0000.0001)  ploadbar=  1.01055162578614E+05
 cg2d: Sum(rhs),rhsMax =  -4.13041930616191E+01  1.53140263518485E+00
(PID.TID 0000.0001)  ploadbar=  1.01056305267372E+05
 cg2d: Sum(rhs),rhsMax =  -4.16393239088553E+01  1.51922834428400E+00
(PID.TID 0000.0001)  ploadbar=  1.01056902169072E+05
 cg2d: Sum(rhs),rhsMax =  -4.19837659636086E+01  1.50695172038995E+00
(PID.TID 0000.0001)  ploadbar=  1.01057499070773E+05
 cg2d: Sum(rhs),rhsMax =  -4.23420901039646E+01  1.49442170069864E+00
(PID.TID 0000.0001)  ploadbar=  1.01058095972473E+05
 cg2d: Sum(rhs),rhsMax =  -4.27070885451114E+01  1.48190544947582E+00
(PID.TID 0000.0001)  ploadbar=  1.01058692874174E+05
 cg2d: Sum(rhs),rhsMax =  -4.30771191656442E+01  1.46946285671912E+00
(PID.TID 0000.0001)  ploadbar=  1.01059289775874E+05
 cg2d: Sum(rhs),rhsMax =  -4.34521157829695E+01  1.45709521018580E+00
(PID.TID 0000.0001)  ploadbar=  1.01059886677575E+05
 cg2d: Sum(rhs),rhsMax =  -4.38137540977589E+01  1.44533068107891E+00
(PID.TID 0000.0001)  ploadbar=  1.01061105258000E+05
 cg2d: Sum(rhs),rhsMax =  -4.41760754918325E+01  1.43368272765728E+00
(PID.TID 0000.0001)  ploadbar=  1.01062323838425E+05
 cg2d: Sum(rhs),rhsMax =  -4.45421073035045E+01  1.42204680728789E+00
(PID.TID 0000.0001)  ploadbar=  1.01063542418850E+05
 cg2d: Sum(rhs),rhsMax =  -4.49065711328637E+01  1.41058352631323E+00
(PID.TID 0000.0001)  ploadbar=  1.01064760999275E+05
 cg2d: Sum(rhs),rhsMax =  -4.52660195531665E+01  1.39939091122079E+00
(PID.TID 0000.0001)  ploadbar=  1.01065979579700E+05
 cg2d: Sum(rhs),rhsMax =  -4.56146104045098E+01  1.38863701860654E+00
(PID.TID 0000.0001)  ploadbar=  1.01067198160125E+05
 cg2d: Sum(rhs),rhsMax =  -4.59686085404396E+01  1.37793018323963E+00
(PID.TID 0000.0001)  ploadbar=  1.01067270766572E+05
 cg2d: Sum(rhs),rhsMax =  -4.63183710658044E+01  1.36755004520277E+00
(PID.TID 0000.0001)  ploadbar=  1.01067343373020E+05
 cg2d: Sum(rhs),rhsMax =  -4.66633330742090E+01  1.35750053834896E+00
(PID.TID 0000.0001)  ploadbar=  1.01067415979467E+05
 cg2d: Sum(rhs),rhsMax =  -4.69989788885247E+01  1.34789779345883E+00
(PID.TID 0000.0001)  ploadbar=  1.01067488585915E+05
 cg2d: Sum(rhs),rhsMax =  -4.73209234797199E+01  1.33884617984980E+00
(PID.TID 0000.0001)  ploadbar=  1.01067561192362E+05
 cg2d: Sum(rhs),rhsMax =  -4.76074664101276E+01  1.33093096308512E+00
(PID.TID 0000.0001)  ploadbar=  1.01067633798810E+05
 cg2d: Sum(rhs),rhsMax =  -4.78860303134493E+01  1.32335133577840E+00
(PID.TID 0000.0001)  ploadbar=  1.01068563882807E+05
 cg2d: Sum(rhs),rhsMax =  -4.81633482118744E+01  1.31590917089876E+00
(PID.TID 0000.0001)  ploadbar=  1.01069493966805E+05
 cg2d: Sum(rhs),rhsMax =  -4.84368885271586E+01  1.30866952382960E+00
(PID.TID 0000.0001)  ploadbar=  1.01070424050803E+05
 cg2d: Sum(rhs),rhsMax =  -4.87105412150586E+01  1.30152238481950E+00
(PID.TID 0000.0001)  ploadbar=  1.01071354134801E+05
 cg2d: Sum(rhs),rhsMax =  -4.89853047532494E+01  1.29444393154343E+00
(PID.TID 0000.0001)  ploadbar=  1.01072284218799E+05
 cg2d: Sum(rhs),rhsMax =  -4.92612693017808E+01  1.28743153120001E+00
(PID.TID 0000.0001)  ploadbar=  1.01073214302797E+05
 cg2d: Sum(rhs),rhsMax =  -4.95451042813747E+01  1.28034965858831E+00
(PID.TID 0000.0001)  ploadbar=  1.01073988983020E+05
 cg2d: Sum(rhs),rhsMax =  -4.98384987139308E+01  1.27315455320423E+00
(PID.TID 0000.0001)  ploadbar=  1.01074763663242E+05
 cg2d: Sum(rhs),rhsMax =  -5.01378899914690E+01  1.26594050851451E+00
(PID.TID 0000.0001)  ploadbar=  1.01075538343465E+05
 cg2d: Sum(rhs),rhsMax =  -5.04444321847095E+01  1.25867932451294E+00
(PID.TID 0000.0001)  ploadbar=  1.01076313023688E+05
 cg2d: Sum(rhs),rhsMax =  -5.07573688608714E+01  1.25139368798592E+00
(PID.TID 0000.0001)  ploadbar=  1.01077087703911E+05
 cg2d: Sum(rhs),rhsMax =  -5.10766350318109E+01  1.24408471132812E+00
(PID.TID 0000.0001)  ploadbar=  1.01077862384134E+05
 cg2d: Sum(rhs),rhsMax =  -5.14070957851802E+01  1.23650844474933E+00
(PID.TID 0000.0001)  ploadbar=  1.01078529683079E+05
 cg2d: Sum(rhs),rhsMax =  -5.17459725063892E+01  1.22873726031660E+00
(PID.TID 0000.0001)  ploadbar=  1.01079196982024E+05
 cg2d: Sum(rhs),rhsMax =  -5.20885648741128E+01  1.22088165050762E+00
(PID.TID 0000.0001)  ploadbar=  1.01079864280969E+05
 cg2d: Sum(rhs),rhsMax =  -5.24329032922636E+01  1.21298598818933E+00
(PID.TID 0000.0001)  ploadbar=  1.01080531579914E+05
 cg2d: Sum(rhs),rhsMax =  -5.27780286349767E+01  1.20506908062272E+00
(PID.TID 0000.0001)  ploadbar=  1.01081198878859E+05
 cg2d: Sum(rhs),rhsMax =  -5.31218039500390E+01  1.19717938881647E+00
(PID.TID 0000.0001)  ploadbar=  1.01081866177804E+05
 cg2d: Sum(rhs),rhsMax =  -5.34899987089481E+01  1.18891440450560E+00
(PID.TID 0000.0001)  ploadbar=  1.01081904464539E+05
 cg2d: Sum(rhs),rhsMax =  -5.38689658569120E+01  1.18058274512820E+00
(PID.TID 0000.0001)  ploadbar=  1.01081942751273E+05
 cg2d: Sum(rhs),rhsMax =  -5.42545697682122E+01  1.17227758227542E+00
(PID.TID 0000.0001)  ploadbar=  1.01081981038008E+05
 cg2d: Sum(rhs),rhsMax =  -5.46422988658307E+01  1.16409412413740E+00
(PID.TID 0000.0001)  ploadbar=  1.01082019324743E+05
 cg2d: Sum(rhs),rhsMax =  -5.50297055030215E+01  1.15608006169369E+00
(PID.TID 0000.0001)  ploadbar=  1.01082057611477E+05
 cg2d: Sum(rhs),rhsMax =  -5.54116613696104E+01  1.14833486890003E+00
(PID.TID 0000.0001)  ploadbar=  1.01082095898212E+05
 cg2d: Sum(rhs),rhsMax =  -5.57864723256655E+01  1.14083417005299E+00
(PID.TID 0000.0001)  ploadbar=  1.01083223599957E+05
 cg2d: Sum(rhs),rhsMax =  -5.61511061343645E+01  1.13363179906895E+00
(PID.TID 0000.0001)  ploadbar=  1.01084351301702E+05
 cg2d: Sum(rhs),rhsMax =  -5.65046138368483E+01  1.12673863613098E+00
(PID.TID 0000.0001)  ploadbar=  1.01085479003446E+05
 cg2d: Sum(rhs),rhsMax =  -5.68480230748954E+01  1.12012333711094E+00
(PID.TID 0000.0001)  ploadbar=  1.01086606705191E+05
 cg2d: Sum(rhs),rhsMax =  -5.71858589954399E+01  1.11368892348487E+00
(PID.TID 0000.0001)  ploadbar=  1.01087734406936E+05
 cg2d: Sum(rhs),rhsMax =  -5.75229122448547E+01  1.10733891385206E+00
(PID.TID 0000.0001)  ploadbar=  1.01088862108681E+05
 cg2d: Sum(rhs),rhsMax =  -5.78105209352613E+01  1.10209117426492E+00
(PID.TID 0000.0001)  ploadbar=  1.01089686799558E+05
 cg2d: Sum(rhs),rhsMax =  -5.81063259331986E+01  1.09682362008762E+00
(PID.TID 0000.0001)  ploadbar=  1.01090511490435E+05
 cg2d: Sum(rhs),rhsMax =  -5.84200492896449E+01  1.09135493444699E+00
(PID.TID 0000.0001)  ploadbar=  1.01091336181312E+05
 cg2d: Sum(rhs),rhsMax =  -5.87507720018976E+01  1.08570821924582E+00
(PID.TID 0000.0001)  ploadbar=  1.01092160872189E+05
 cg2d: Sum(rhs),rhsMax =  -5.90934596487095E+01  1.07998093416192E+00
(PID.TID 0000.0001)  ploadbar=  1.01092985563066E+05
 cg2d: Sum(rhs),rhsMax =  -5.94472717218499E+01  1.07418950103380E+00
(PID.TID 0000.0001)  ploadbar=  1.01093810253942E+05
 cg2d: Sum(rhs),rhsMax =  -5.97929073963161E+01  1.06858140440526E+00
(PID.TID 0000.0001)  ploadbar=  1.01093209512456E+05
 cg2d: Sum(rhs),rhsMax =  -6.01411367274053E+01  1.06295595191594E+00
(PID.TID 0000.0001)  ploadbar=  1.01092608770970E+05
 cg2d: Sum(rhs),rhsMax =  -6.04898235351321E+01  1.05734925937277E+00
(PID.TID 0000.0001)  ploadbar=  1.01092008029484E+05
 cg2d: Sum(rhs),rhsMax =  -6.08404877291125E+01  1.05172860180308E+00
(PID.TID 0000.0001)  ploadbar=  1.01091407287998E+05
 cg2d: Sum(rhs),rhsMax =  -6.11937930863179E+01  1.04608134114309E+00
(PID.TID 0000.0001)  ploadbar=  1.01090806546512E+05
 cg2d: Sum(rhs),rhsMax =  -6.15515129806880E+01  1.04037808312228E+00
(PID.TID 0000.0001)  ploadbar=  1.01090205805026E+05
 cg2d: Sum(rhs),rhsMax =  -6.19323160976289E+01  1.03436562020524E+00
(PID.TID 0000.0001)  ploadbar=  1.01088234175209E+05
 cg2d: Sum(rhs),rhsMax =  -6.23170144459996E+01  1.02836338293557E+00
(PID.TID 0000.0001)  ploadbar=  1.01086262545391E+05
 cg2d: Sum(rhs),rhsMax =  -6.27080793056376E+01  1.02232870364406E+00
(PID.TID 0000.0001)  ploadbar=  1.01084290915574E+05
 cg2d: Sum(rhs),rhsMax =  -6.31069756709562E+01  1.01623797281944E+00
(PID.TID 0000.0001)  ploadbar=  1.01082319285756E+05
 cg2d: Sum(rhs),rhsMax =  -6.35152293975358E+01  1.01006594789647E+00
(PID.TID 0000.0001)  ploadbar=  1.01080347655938E+05
 cg2d: Sum(rhs),rhsMax =  -6.39392668635632E+01  1.00371331479029E+00
(PID.TID 0000.0001)  ploadbar=  1.01078376026121E+05
 cg2d: Sum(rhs),rhsMax =  -6.43953338087913E+01  9.96912752974982E-01
(PID.TID 0000.0001)  ploadbar=  1.01077796548182E+05
 cg2d: Sum(rhs),rhsMax =  -6.48517533090116E+01  9.90164588392002E-01
(PID.TID 0000.0001)  ploadbar=  1.01077217070244E+05
 cg2d: Sum(rhs),rhsMax =  -6.53067079608107E+01  9.83493391573146E-01
(PID.TID 0000.0001)  ploadbar=  1.01076637592306E+05
 cg2d: Sum(rhs),rhsMax =  -6.50199982883271E+01  9.88017296059198E-01
(PID.TID 0000.0001)  ploadbar=  1.01076058114367E+05
 cg2d: Sum(rhs),rhsMax =  -6.44638634338662E+01  9.96689559191990E-01
(PID.TID 0000.0001)  ploadbar=  1.01075478636429E+05
 cg2d: Sum(rhs),rhsMax =  -6.38829455562173E+01  1.00586236311413E+00
(PID.TID 0000.0001)  ploadbar=  1.01074899158491E+05
 cg2d: Sum(rhs),rhsMax =  -6.32454942845540E+01  1.01618729574517E+00
(PID.TID 0000.0001)  ploadbar=  1.01075380999151E+05
 cg2d: Sum(rhs),rhsMax =  -6.25643243757260E+01  1.02751401869197E+00
(PID.TID 0000.0001)  ploadbar=  1.01075862839810E+05
 cg2d: Sum(rhs),rhsMax =  -6.18563933535256E+01  1.03961158583193E+00
(PID.TID 0000.0001)  ploadbar=  1.01076344680470E+05
 cg2d: Sum(rhs),rhsMax =  -6.11285360596369E+01  1.05240404074138E+00
(PID.TID 0000.0001)  ploadbar=  1.01076826521130E+05
 cg2d: Sum(rhs),rhsMax =  -6.03843228580889E+01  1.06586337102864E+00
(PID.TID 0000.0001)  ploadbar=  1.01077308361790E+05
 cg2d: Sum(rhs),rhsMax =  -5.96222522127236E+01  1.08004991012089E+00
(PID.TID 0000.0001)  ploadbar=  1.01077790202450E+05
 cg2d: Sum(rhs),rhsMax =  -5.88324985465768E+01  1.09506558178210E+00
(PID.TID 0000.0001)  ploadbar=  1.01077305201141E+05
 cg2d: Sum(rhs),rhsMax =  -5.80393928984214E+01  1.11049848238836E+00
(PID.TID 0000.0001)  ploadbar=  1.01076820199832E+05
 cg2d: Sum(rhs),rhsMax =  -5.72661498638362E+01  1.12590995880300E+00
(PID.TID 0000.0001)  ploadbar=  1.01076335198523E+05
 cg2d: Sum(rhs),rhsMax =  -5.65265229791154E+01  1.14100257410455E+00
(PID.TID 0000.0001)  ploadbar=  1.01075850197214E+05
 cg2d: Sum(rhs),rhsMax =  -5.58299898512857E+01  1.15553763972846E+00
(PID.TID 0000.0001)  ploadbar=  1.01075365195905E+05
 cg2d: Sum(rhs),rhsMax =  -5.51837272605944E+01  1.16930723557701E+00
(PID.TID 0000.0001)  ploadbar=  1.01074880194596E+05
 cg2d: Sum(rhs),rhsMax =  -5.46041100423036E+01  1.18196633508182E+00
(PID.TID 0000.0001)  ploadbar=  1.01074089618622E+05
 cg2d: Sum(rhs),rhsMax =  -5.40972048201254E+01  1.19329224202596E+00
(PID.TID 0000.0001)  ploadbar=  1.01073299042648E+05
 cg2d: Sum(rhs),rhsMax =  -5.36598520050228E+01  1.20326600285936E+00
(PID.TID 0000.0001)  ploadbar=  1.01072508466674E+05
 cg2d: Sum(rhs),rhsMax =  -5.33036547024542E+01  1.21154686935499E+00
(PID.TID 0000.0001)  ploadbar=  1.01071717890700E+05
 cg2d: Sum(rhs),rhsMax =  -5.30071553870051E+01  1.21855322909257E+00
(PID.TID 0000.0001)  ploadbar=  1.01070927314726E+05
 cg2d: Sum(rhs),rhsMax =  -5.27643037229034E+01  1.22437603002492E+00
(PID.TID 0000.0001)  ploadbar=  1.01070136738752E+05
 cg2d: Sum(rhs),rhsMax =  -5.25539395415995E+01  1.22945550795851E+00
(PID.TID 0000.0001)  ploadbar=  1.01069870937047E+05
 cg2d: Sum(rhs),rhsMax =  -5.23379307623865E+01  1.23467136682421E+00
(PID.TID 0000.0001)  ploadbar=  1.01069605135342E+05
 cg2d: Sum(rhs),rhsMax =  -5.21015893761393E+01  1.24037507509556E+00
(PID.TID 0000.0001)  ploadbar=  1.01069339333637E+05
 cg2d: Sum(rhs),rhsMax =  -5.18361632967020E+01  1.24678876650963E+00
(PID.TID 0000.0001)  ploadbar=  1.01069073531932E+05
 cg2d: Sum(rhs),rhsMax =  -5.15369152940540E+01  1.25404923855669E+00
(PID.TID 0000.0001)  ploadbar=  1.01068807730227E+05
 cg2d: Sum(rhs),rhsMax =  -5.11994811055553E+01  1.26229334255237E+00
(PID.TID 0000.0001)  ploadbar=  1.01068541928522E+05
 cg2d: Sum(rhs),rhsMax =  -5.08136052949437E+01  1.27191709149812E+00
(PID.TID 0000.0001)  ploadbar=  1.01068967481420E+05
 cg2d: Sum(rhs),rhsMax =  -5.03775351818136E+01  1.28302452343400E+00
(PID.TID 0000.0001)  ploadbar=  1.01069393034319E+05
 cg2d: Sum(rhs),rhsMax =  -4.98952128359821E+01  1.29558189903639E+00
(PID.TID 0000.0001)  ploadbar=  1.01069818587217E+05
 cg2d: Sum(rhs),rhsMax =  -4.93840581853761E+01  1.30920147506180E+00
(PID.TID 0000.0001)  ploadbar=  1.01070244140115E+05
 cg2d: Sum(rhs),rhsMax =  -4.88583755315930E+01  1.32355231297470E+00
(PID.TID 0000.0001)  ploadbar=  1.01070669693013E+05
 cg2d: Sum(rhs),rhsMax =  -4.83336530201456E+01  1.33824114799591E+00
(PID.TID 0000.0001)  ploadbar=  1.01071095245912E+05
 cg2d: Sum(rhs),rhsMax =  -4.78041886163951E+01  1.35335530960546E+00
(PID.TID 0000.0001)  ploadbar=  1.01071302467314E+05
 cg2d: Sum(rhs),rhsMax =  -4.72813615795610E+01  1.36858056650878E+00
(PID.TID 0000.0001)  ploadbar=  1.01071509688717E+05
 cg2d: Sum(rhs),rhsMax =  -4.67550327242236E+01  1.38421160958099E+00
(PID.TID 0000.0001)  ploadbar=  1.01071716910119E+05
 cg2d: Sum(rhs),rhsMax =  -4.65364865390783E+01  1.39089333521599E+00
(PID.TID 0000.0001)  ploadbar=  1.01071924131522E+05
 cg2d: Sum(rhs),rhsMax =  -4.63180636269416E+01  1.39758538259556E+00
(PID.TID 0000.0001)  ploadbar=  1.01072131352924E+05
 cg2d: Sum(rhs),rhsMax =  -4.61133070601057E+01  1.40387405349492E+00
(PID.TID 0000.0001)  ploadbar=  1.01072338574327E+05
 cg2d: Sum(rhs),rhsMax =  -4.59737307321268E+01  1.40824966790847E+00
(PID.TID 0000.0001)  ploadbar=  1.01072547695481E+05
 cg2d: Sum(rhs),rhsMax =  -4.59123343884911E+01  1.41026849030827E+00
(PID.TID 0000.0001)  ploadbar=  1.01072756816635E+05
 cg2d: Sum(rhs),rhsMax =  -4.59172307970976E+01  1.41026496495434E+00
(PID.TID 0000.0001)  ploadbar=  1.01072965937790E+05
 cg2d: Sum(rhs),rhsMax =  -4.59803968432969E+01  1.40848342801138E+00
(PID.TID 0000.0001)  ploadbar=  1.01073175058944E+05
 cg2d: Sum(rhs),rhsMax =  -4.60902383736066E+01  1.40528563073304E+00
(PID.TID 0000.0001)  ploadbar=  1.01073384180098E+05
 cg2d: Sum(rhs),rhsMax =  -4.62361836466182E+01  1.40100567762653E+00
(PID.TID 0000.0001)  ploadbar=  1.01073593301253E+05
 cg2d: Sum(rhs),rhsMax =  -4.63913764628985E+01  1.39641868887786E+00
(PID.TID 0000.0001)  ploadbar=  1.01074275660696E+05
 cg2d: Sum(rhs),rhsMax =  -4.65815401552763E+01  1.39075920573087E+00
(PID.TID 0000.0001)  ploadbar=  1.01074958020140E+05
 cg2d: Sum(rhs),rhsMax =  -4.68047784738318E+01  1.38410669948692E+00
(PID.TID 0000.0001)  ploadbar=  1.01075640379583E+05
 cg2d: Sum(rhs),rhsMax =  -4.70486895204448E+01  1.37685015150917E+00
(PID.TID 0000.0001)  ploadbar=  1.01076322739027E+05
 cg2d: Sum(rhs),rhsMax =  -4.71131043343853E+01  1.37482587224149E+00
(PID.TID 0000.0001)  ploadbar=  1.01077005098470E+05
 cg2d: Sum(rhs),rhsMax =  -4.59111502696998E+01  1.41061040914541E+00
(PID.TID 0000.0001)  ploadbar=  1.01077687457914E+05
 cg2d: Sum(rhs),rhsMax =  -4.43435202527848E+01  1.46035589655760E+00
(PID.TID 0000.0001)  ploadbar=  1.01077970783535E+05
 cg2d: Sum(rhs),rhsMax =  -4.27671361379353E+01  1.51414985309391E+00
(PID.TID 0000.0001)  ploadbar=  1.01078254109156E+05
 cg2d: Sum(rhs),rhsMax =  -4.16124262659671E+01  1.55622294013533E+00
(PID.TID 0000.0001)  ploadbar=  1.01078537434777E+05
 cg2d: Sum(rhs),rhsMax =  -4.07481351194565E+01  1.58938219171562E+00
(PID.TID 0000.0001)  ploadbar=  1.01078820760398E+05
 cg2d: Sum(rhs),rhsMax =  -4.01295138101563E+01  1.61413077403187E+00
(PID.TID 0000.0001)  ploadbar=  1.01079104086019E+05
 cg2d: Sum(rhs),rhsMax =  -3.96751835043592E+01  1.63295749728113E+00
(PID.TID 0000.0001)  ploadbar=  1.01079387411640E+05
 cg2d: Sum(rhs),rhsMax =  -3.93101906485227E+01  1.64848028614321E+00
(PID.TID 0000.0001)  ploadbar=  1.01079803834281E+05
 cg2d: Sum(rhs),rhsMax =  -3.89449724500812E+01  1.66431475715424E+00
(PID.TID 0000.0001)  ploadbar=  1.01080220256922E+05
 cg2d: Sum(rhs),rhsMax =  -3.85898831367686E+01  1.68001023806587E+00
(PID.TID 0000.0001)  ploadbar=  1.01080636679563E+05
 cg2d: Sum(rhs),rhsMax =  -3.82677824083993E+01  1.69452910474686E+00
(PID.TID 0000.0001)  ploadbar=  1.01081053102205E+05
 cg2d: Sum(rhs),rhsMax =  -3.79943457658984E+01  1.70709590089574E+00
(PID.TID 0000.0001)  ploadbar=  1.01081469524846E+05
 cg2d: Sum(rhs),rhsMax =  -3.77862533769334E+01  1.71686071520475E+00
(PID.TID 0000.0001)  ploadbar=  1.01081885947487E+05
 cg2d: Sum(rhs),rhsMax =  -3.76297572006504E+01  1.72441625891144E+00
(PID.TID 0000.0001)  ploadbar=  1.01081120790955E+05
 cg2d: Sum(rhs),rhsMax =  -3.77770657579325E+01  1.71815124364235E+00
(PID.TID 0000.0001)  ploadbar=  1.01080355634423E+05
 cg2d: Sum(rhs),rhsMax =  -3.80180815226115E+01  1.70775179965057E+00
(PID.TID 0000.0001)  ploadbar=  1.01079590477891E+05
 cg2d: Sum(rhs),rhsMax =  -3.82243184068508E+01  1.69905704378714E+00
(PID.TID 0000.0001)  ploadbar=  1.01078825321360E+05
 cg2d: Sum(rhs),rhsMax =  -3.84667534217962E+01  1.68888242134503E+00
(PID.TID 0000.0001)  ploadbar=  1.01078060164828E+05
 cg2d: Sum(rhs),rhsMax =  -3.87193732087128E+01  1.67840256465037E+00
(PID.TID 0000.0001)  ploadbar=  1.01077295008296E+05
 cg2d: Sum(rhs),rhsMax =  -3.89807746368364E+01  1.66758605643960E+00
(PID.TID 0000.0001)  ploadbar=  1.01077553162755E+05
 cg2d: Sum(rhs),rhsMax =  -3.92514457659046E+01  1.65642410978229E+00
(PID.TID 0000.0001)  ploadbar=  1.01077811317213E+05
 cg2d: Sum(rhs),rhsMax =  -3.95277803354620E+01  1.64508153709536E+00
(PID.TID 0000.0001)  ploadbar=  1.01078069471672E+05
 cg2d: Sum(rhs),rhsMax =  -3.98108422656662E+01  1.63352169475965E+00
(PID.TID 0000.0001)  ploadbar=  1.01078327626130E+05
 cg2d: Sum(rhs),rhsMax =  -4.00969473169598E+01  1.62190439052835E+00
(PID.TID 0000.0001)  ploadbar=  1.01078585780589E+05
 cg2d: Sum(rhs),rhsMax =  -4.03821471311176E+01  1.61039234272158E+00
(PID.TID 0000.0001)  ploadbar=  1.01078843935047E+05
 cg2d: Sum(rhs),rhsMax =  -4.06634667650857E+01  1.59930269254082E+00
(PID.TID 0000.0001)  ploadbar=  1.01079433724395E+05
 cg2d: Sum(rhs),rhsMax =  -4.09367586012799E+01  1.58877862174263E+00
(PID.TID 0000.0001)  ploadbar=  1.01080023513742E+05
 cg2d: Sum(rhs),rhsMax =  -4.11962764693027E+01  1.57901538578174E+00
(PID.TID 0000.0001)  ploadbar=  1.01080613303090E+05
 cg2d: Sum(rhs),rhsMax =  -4.14432086584674E+01  1.56993762417756E+00
(PID.TID 0000.0001)  ploadbar=  1.01081203092438E+05
 cg2d: Sum(rhs),rhsMax =  -4.16805326624341E+01  1.56141205492593E+00
(PID.TID 0000.0001)  ploadbar=  1.01081792881785E+05
 cg2d: Sum(rhs),rhsMax =  -4.19105138569065E+01  1.55333930903732E+00
(PID.TID 0000.0001)  ploadbar=  1.01082382671133E+05
 cg2d: Sum(rhs),rhsMax =  -4.21464441551015E+01  1.54512844941810E+00
(PID.TID 0000.0001)  ploadbar=  1.01082695315896E+05
 cg2d: Sum(rhs),rhsMax =  -4.23861359369706E+01  1.53685713934971E+00
(PID.TID 0000.0001)  ploadbar=  1.01083007960659E+05
 cg2d: Sum(rhs),rhsMax =  -4.26244318470617E+01  1.52870438016295E+00
(PID.TID 0000.0001)  ploadbar=  1.01083320605423E+05
 cg2d: Sum(rhs),rhsMax =  -4.28669604994165E+01  1.52046032025448E+00
(PID.TID 0000.0001)  ploadbar=  1.01083633250186E+05
 cg2d: Sum(rhs),rhsMax =  -4.31081806171235E+01  1.51232222933629E+00
(PID.TID 0000.0001)  ploadbar=  1.01083945894949E+05
 cg2d: Sum(rhs),rhsMax =  -4.33337362385513E+01  1.50478577581516E+00
(PID.TID 0000.0001)  ploadbar=  1.01084258539713E+05
 cg2d: Sum(rhs),rhsMax =  -4.35511683520585E+01  1.49767443115930E+00
(PID.TID 0000.0001)  ploadbar=  1.01083360084891E+05
 cg2d: Sum(rhs),rhsMax =  -4.37653340370660E+01  1.49080807980853E+00
(PID.TID 0000.0001)  ploadbar=  1.01082461630070E+05
 cg2d: Sum(rhs),rhsMax =  -4.39738141703531E+01  1.48425390910371E+00
(PID.TID 0000.0001)  ploadbar=  1.01081563175248E+05
 cg2d: Sum(rhs),rhsMax =  -4.41746937578380E+01  1.47805370453520E+00
(PID.TID 0000.0001)  ploadbar=  1.01080664720426E+05
 cg2d: Sum(rhs),rhsMax =  -4.43683889960819E+01  1.47217823511224E+00
(PID.TID 0000.0001)  ploadbar=  1.01079766265605E+05
 cg2d: Sum(rhs),rhsMax =  -4.45548952661878E+01  1.46661228544299E+00
(PID.TID 0000.0001)  ploadbar=  1.01078867810783E+05
 cg2d: Sum(rhs),rhsMax =  -4.47344958302256E+01  1.46123913316491E+00
(PID.TID 0000.0001)  ploadbar=  1.01078046442995E+05
 cg2d: Sum(rhs),rhsMax =  -4.49081564774782E+01  1.45602157889963E+00
(PID.TID 0000.0001)  ploadbar=  1.01077225075208E+05
 cg2d: Sum(rhs),rhsMax =  -4.50705306085451E+01  1.45112651104776E+00
(PID.TID 0000.0001)  ploadbar=  1.01076403707420E+05
 cg2d: Sum(rhs),rhsMax =  -4.52194645301720E+01  1.44661557352219E+00
(PID.TID 0000.0001)  ploadbar=  1.01075582339632E+05
 cg2d: Sum(rhs),rhsMax =  -4.53528172822759E+01  1.44254911661435E+00
(PID.TID 0000.0001)  ploadbar=  1.01074760971845E+05
 cg2d: Sum(rhs),rhsMax =  -4.54710507566649E+01  1.43890482636704E+00
(PID.TID 0000.0001)  ploadbar=  1.01073939604057E+05
 cg2d: Sum(rhs),rhsMax =  -4.55455850800651E+01  1.43669395484451E+00
(PID.TID 0000.0001)  ploadbar=  1.01074144409993E+05
 cg2d: Sum(rhs),rhsMax =  -4.56094616747968E+01  1.43485649451018E+00
(PID.TID 0000.0001)  ploadbar=  1.01074349215928E+05
 cg2d: Sum(rhs),rhsMax =  -4.56602507766832E+01  1.43345666174825E+00
(PID.TID 0000.0001)  ploadbar=  1.01074554021864E+05
 cg2d: Sum(rhs),rhsMax =  -4.56959140596126E+01  1.43255336685180E+00
(PID.TID 0000.0001)  ploadbar=  1.01074758827799E+05
 cg2d: Sum(rhs),rhsMax =  -4.57182163609206E+01  1.43208926930155E+00
(PID.TID 0000.0001)  ploadbar=  1.01074963633734E+05
 cg2d: Sum(rhs),rhsMax =  -4.57267295478940E+01  1.43207608674154E+00
(PID.TID 0000.0001)  ploadbar=  1.01075168439670E+05
 cg2d: Sum(rhs),rhsMax =  -4.57025578057330E+01  1.43303873027556E+00
(PID.TID 0000.0001)  ploadbar=  1.01075171212820E+05
 cg2d: Sum(rhs),rhsMax =  -4.56666771338905E+01  1.43431685750385E+00
(PID.TID 0000.0001)  ploadbar=  1.01075173985970E+05
 cg2d: Sum(rhs),rhsMax =  -4.56168020152845E+01  1.43597535644494E+00
(PID.TID 0000.0001)  ploadbar=  1.01075176759120E+05
 cg2d: Sum(rhs),rhsMax =  -4.55459887862334E+01  1.43823022800404E+00
(PID.TID 0000.0001)  ploadbar=  1.01075179532270E+05
 cg2d: Sum(rhs),rhsMax =  -4.54508752506296E+01  1.44119040338979E+00
(PID.TID 0000.0001)  ploadbar=  1.01075182305420E+05
 cg2d: Sum(rhs),rhsMax =  -4.53295573543647E+01  1.44492372305357E+00
(PID.TID 0000.0001)  ploadbar=  1.01075185078570E+05
 cg2d: Sum(rhs),rhsMax =  -4.51417920811221E+01  1.45086791364404E+00
(PID.TID 0000.0001)  ploadbar=  1.01074697220188E+05
 cg2d: Sum(rhs),rhsMax =  -4.49354488816700E+01  1.45752087006730E+00
(PID.TID 0000.0001)  ploadbar=  1.01074209361806E+05
 cg2d: Sum(rhs),rhsMax =  -4.47169187951279E+01  1.46468297478156E+00
(PID.TID 0000.0001)  ploadbar=  1.01073721503424E+05
 cg2d: Sum(rhs),rhsMax =  -4.44936012372223E+01  1.47211024901813E+00
(PID.TID 0000.0001)  ploadbar=  1.01073233645042E+05
 cg2d: Sum(rhs),rhsMax =  -4.42733358686982E+01  1.47953508135779E+00
(PID.TID 0000.0001)  ploadbar=  1.01072745786659E+05
 cg2d: Sum(rhs),rhsMax =  -4.40724454029084E+01  1.48640201432032E+00
(PID.TID 0000.0001)  ploadbar=  1.01072257928277E+05
 cg2d: Sum(rhs),rhsMax =  -4.39219360469167E+01  1.49158480851226E+00
(PID.TID 0000.0001)  ploadbar=  1.01072215795796E+05
 cg2d: Sum(rhs),rhsMax =  -4.38237090750823E+01  1.49498248242173E+00
(PID.TID 0000.0001)  ploadbar=  1.01072173663315E+05
 cg2d: Sum(rhs),rhsMax =  -4.37801088775876E+01  1.49648941326276E+00
(PID.TID 0000.0001)  ploadbar=  1.01072131530834E+05
 cg2d: Sum(rhs),rhsMax =  -4.37782943839043E+01  1.49653048879954E+00
(PID.TID 0000.0001)  ploadbar=  1.01072089398353E+05
 cg2d: Sum(rhs),rhsMax =  -4.37988907805369E+01  1.49576556476377E+00
(PID.TID 0000.0001)  ploadbar=  1.01072047265872E+05
 cg2d: Sum(rhs),rhsMax =  -4.38292474801363E+01  1.49462852790474E+00
(PID.TID 0000.0001)  ploadbar=  1.01072005133390E+05
 cg2d: Sum(rhs),rhsMax =  -4.39242896284466E+01  1.49136226151531E+00
(PID.TID 0000.0001)  ploadbar=  1.01071854020955E+05
 cg2d: Sum(rhs),rhsMax =  -4.40285996717069E+01  1.48786038165159E+00
(PID.TID 0000.0001)  ploadbar=  1.01071702908519E+05
 cg2d: Sum(rhs),rhsMax =  -4.41337257411280E+01  1.48440339083457E+00
(PID.TID 0000.0001)  ploadbar=  1.01071551796083E+05
 cg2d: Sum(rhs),rhsMax =  -4.42433680586246E+01  1.48086170790095E+00
(PID.TID 0000.0001)  ploadbar=  1.01071400683647E+05
 cg2d: Sum(rhs),rhsMax =  -4.43661274018003E+01  1.47695014027476E+00
(PID.TID 0000.0001)  ploadbar=  1.01071249571211E+05
 cg2d: Sum(rhs),rhsMax =  -4.45037928563891E+01  1.47261635098427E+00
(PID.TID 0000.0001)  ploadbar=  1.01071098458776E+05
 cg2d: Sum(rhs),rhsMax =  -4.46361675905167E+01  1.46847481274096E+00
(PID.TID 0000.0001)  ploadbar=  1.01070616010841E+05
 cg2d: Sum(rhs),rhsMax =  -4.47786495601418E+01  1.46401554151886E+00
(PID.TID 0000.0001)  ploadbar=  1.01070133562907E+05
 cg2d: Sum(rhs),rhsMax =  -4.49257128750099E+01  1.45941796235012E+00
(PID.TID 0000.0001)  ploadbar=  1.01069651114972E+05
 cg2d: Sum(rhs),rhsMax =  -4.50861477329143E+01  1.45439339845259E+00
(PID.TID 0000.0001)  ploadbar=  1.01069168667038E+05
 cg2d: Sum(rhs),rhsMax =  -4.52574029669304E+01  1.44902982604469E+00
(PID.TID 0000.0001)  ploadbar=  1.01068686219104E+05
 cg2d: Sum(rhs),rhsMax =  -4.54378423981351E+01  1.44338716415459E+00
(PID.TID 0000.0001)  ploadbar=  1.01068203771169E+05
 cg2d: Sum(rhs),rhsMax =  -4.56152716462613E+01  1.43791488665142E+00
(PID.TID 0000.0001)  ploadbar=  1.01067889600660E+05
 cg2d: Sum(rhs),rhsMax =  -4.58099759144329E+01  1.43197408304495E+00
(PID.TID 0000.0001)  ploadbar=  1.01067575430150E+05
 cg2d: Sum(rhs),rhsMax =  -4.60323375809419E+01  1.42524707659648E+00
(PID.TID 0000.0001)  ploadbar=  1.01067261259640E+05
 cg2d: Sum(rhs),rhsMax =  -4.62866867915108E+01  1.41761626500453E+00
(PID.TID 0000.0001)  ploadbar=  1.01066947089130E+05
 cg2d: Sum(rhs),rhsMax =  -4.65745385888164E+01  1.40906241679532E+00
(PID.TID 0000.0001)  ploadbar=  1.01066632918621E+05
 cg2d: Sum(rhs),rhsMax =  -4.69040374914291E+01  1.39937296387746E+00
(PID.TID 0000.0001)  ploadbar=  1.01066318748111E+05
 cg2d: Sum(rhs),rhsMax =  -4.72493432935004E+01  1.38929434397153E+00
(PID.TID 0000.0001)  ploadbar=  1.01066523597464E+05
 cg2d: Sum(rhs),rhsMax =  -4.76496498133297E+01  1.37770758782971E+00
(PID.TID 0000.0001)  ploadbar=  1.01066728446817E+05
 cg2d: Sum(rhs),rhsMax =  -4.81302687816537E+01  1.36397289566490E+00
(PID.TID 0000.0001)  ploadbar=  1.01066933296171E+05
 cg2d: Sum(rhs),rhsMax =  -4.86958196460152E+01  1.34809650995871E+00
(PID.TID 0000.0001)  ploadbar=  1.01067138145524E+05
 cg2d: Sum(rhs),rhsMax =  -4.93623263287810E+01  1.32980203997958E+00
(PID.TID 0000.0001)  ploadbar=  1.01067342994877E+05
 cg2d: Sum(rhs),rhsMax =  -5.01456700482732E+01  1.30888107452877E+00
(PID.TID 0000.0001)  ploadbar=  1.01067547844231E+05
 cg2d: Sum(rhs),rhsMax =  -5.10510447385886E+01  1.28557994608553E+00
(PID.TID 0000.0001)  ploadbar=  1.01066804910001E+05
 cg2d: Sum(rhs),rhsMax =  -5.20787322003794E+01  1.26017707195306E+00
(PID.TID 0000.0001)  ploadbar=  1.01066061975771E+05
 cg2d: Sum(rhs),rhsMax =  -5.32537426572464E+01  1.23238464097435E+00
(PID.TID 0000.0001)  ploadbar=  1.01065319041542E+05
 cg2d: Sum(rhs),rhsMax =  -5.45629689278066E+01  1.20286458151030E+00
(PID.TID 0000.0001)  ploadbar=  1.01064576107312E+05
 cg2d: Sum(rhs),rhsMax =  -5.35885623338174E+01  1.22482227348787E+00
(PID.TID 0000.0001)  ploadbar=  1.01063833173082E+05
 cg2d: Sum(rhs),rhsMax =  -5.24357226092596E+01  1.25187313479947E+00
(PID.TID 0000.0001)  ploadbar=  1.01063090238853E+05
 cg2d: Sum(rhs),rhsMax =  -5.13587913996784E+01  1.27823242401985E+00
(PID.TID 0000.0001)  ploadbar=  1.01063379898394E+05
 cg2d: Sum(rhs),rhsMax =  -5.03433796132321E+01  1.30410533822954E+00
(PID.TID 0000.0001)  ploadbar=  1.01063669557936E+05
 cg2d: Sum(rhs),rhsMax =  -4.94140351107290E+01  1.32869457429177E+00
(PID.TID 0000.0001)  ploadbar=  1.01063959217477E+05
 cg2d: Sum(rhs),rhsMax =  -4.85691569245372E+01  1.35183706236057E+00
(PID.TID 0000.0001)  ploadbar=  1.01064248877018E+05
 cg2d: Sum(rhs),rhsMax =  -4.78006591773580E+01  1.37356628039190E+00
(PID.TID 0000.0001)  ploadbar=  1.01064538536560E+05
 cg2d: Sum(rhs),rhsMax =  -4.70966866234115E+01  1.39406082928834E+00
(PID.TID 0000.0001)  ploadbar=  1.01064828196101E+05
 cg2d: Sum(rhs),rhsMax =  -4.64603854716705E+01  1.41313610177034E+00
(PID.TID 0000.0001)  ploadbar=  1.01065356269236E+05
 cg2d: Sum(rhs),rhsMax =  -4.58665188819251E+01  1.43142798293974E+00
(PID.TID 0000.0001)  ploadbar=  1.01065884342370E+05
 cg2d: Sum(rhs),rhsMax =  -4.53115081843967E+01  1.44895624813798E+00
(PID.TID 0000.0001)  ploadbar=  1.01066412415505E+05
 cg2d: Sum(rhs),rhsMax =  -4.47940329211307E+01  1.46568012270516E+00
(PID.TID 0000.0001)  ploadbar=  1.01066940488639E+05
 cg2d: Sum(rhs),rhsMax =  -4.43158412272649E+01  1.48146865837019E+00
(PID.TID 0000.0001)  ploadbar=  1.01067468561774E+05
 cg2d: Sum(rhs),rhsMax =  -4.38787543318725E+01  1.49618516395320E+00
(PID.TID 0000.0001)  ploadbar=  1.01067996634908E+05
 cg2d: Sum(rhs),rhsMax =  -4.34797423113491E+01  1.50983919755590E+00
(PID.TID 0000.0001)  ploadbar=  1.01069738467390E+05
 cg2d: Sum(rhs),rhsMax =  -4.31249201563075E+01  1.52214337602320E+00
(PID.TID 0000.0001)  ploadbar=  1.01071480299873E+05
 cg2d: Sum(rhs),rhsMax =  -4.28018585342686E+01  1.53346767498160E+00
(PID.TID 0000.0001)  ploadbar=  1.01073222132355E+05
 cg2d: Sum(rhs),rhsMax =  -4.25104939619283E+01  1.54376575819230E+00
(PID.TID 0000.0001)  ploadbar=  1.01074963964837E+05
 cg2d: Sum(rhs),rhsMax =  -4.22479369465482E+01  1.55309957319105E+00
(PID.TID 0000.0001)  ploadbar=  1.01076705797319E+05
 cg2d: Sum(rhs),rhsMax =  -4.20151118435472E+01  1.56139496515974E+00
(PID.TID 0000.0001)  ploadbar=  1.01078447629801E+05
 cg2d: Sum(rhs),rhsMax =  -4.17827182744066E+01  1.56989811791889E+00
(PID.TID 0000.0001)  ploadbar=  1.01080620880506E+05
 cg2d: Sum(rhs),rhsMax =  -4.15603789773395E+01  1.57824591539687E+00
(PID.TID 0000.0001)  ploadbar=  1.01082794131211E+05
 cg2d: Sum(rhs),rhsMax =  -4.13447999168948E+01  1.58655289097192E+00
(PID.TID 0000.0001)  ploadbar=  1.01084967381915E+05
 cg2d: Sum(rhs),rhsMax =  -4.11407327229889E+01  1.59462155048932E+00
(PID.TID 0000.0001)  ploadbar=  1.01087140632620E+05
 cg2d: Sum(rhs),rhsMax =  -4.09575851607506E+01  1.60206316627718E+00
(PID.TID 0000.0001)  ploadbar=  1.01089313883325E+05
 cg2d: Sum(rhs),rhsMax =  -4.08024652309896E+01  1.60857623068606E+00
(PID.TID 0000.0001)  ploadbar=  1.01091487134029E+05
 cg2d: Sum(rhs),rhsMax =  -4.06645727300985E+01  1.61439478251050E+00
(PID.TID 0000.0001)  ploadbar=  1.01093559835072E+05
 cg2d: Sum(rhs),rhsMax =  -4.05443701906985E+01  1.61947633670352E+00
(PID.TID 0000.0001)  ploadbar=  1.01095632536115E+05
 cg2d: Sum(rhs),rhsMax =  -4.04346306973299E+01  1.62409735123578E+00
(PID.TID 0000.0001)  ploadbar=  1.01097705237158E+05
 cg2d: Sum(rhs),rhsMax =  -4.03311701946187E+01  1.62841615323909E+00
(PID.TID 0000.0001)  ploadbar=  1.01099777938200E+05
 cg2d: Sum(rhs),rhsMax =  -4.02306780634578E+01  1.63256336267869E+00
(PID.TID 0000.0001)  ploadbar=  1.01101850639243E+05
 cg2d: Sum(rhs),rhsMax =  -4.01253036668686E+01  1.63685341178100E+00
(PID.TID 0000.0001)  ploadbar=  1.01103923340286E+05
 cg2d: Sum(rhs),rhsMax =  -3.99916315642674E+01  1.64238255228437E+00
(PID.TID 0000.0001)  ploadbar=  1.01105917522678E+05
 cg2d: Sum(rhs),rhsMax =  -3.98396780602373E+01  1.64875018768777E+00
(PID.TID 0000.0001)  ploadbar=  1.01107911705070E+05
 cg2d: Sum(rhs),rhsMax =  -3.96646398799133E+01  1.65616116968302E+00
(PID.TID 0000.0001)  ploadbar=  1.01109905887462E+05
 cg2d: Sum(rhs),rhsMax =  -3.94673376683612E+01  1.66460121553581E+00
(PID.TID 0000.0001)  ploadbar=  1.01111900069854E+05
 cg2d: Sum(rhs),rhsMax =  -3.92507173132414E+01  1.67396685127101E+00
(PID.TID 0000.0001)  ploadbar=  1.01113894252245E+05
 cg2d: Sum(rhs),rhsMax =  -3.90193336110373E+01  1.68408274992896E+00
(PID.TID 0000.0001)  ploadbar=  1.01115888434637E+05
 cg2d: Sum(rhs),rhsMax =  -3.87599463724139E+01  1.69547089753516E+00
(PID.TID 0000.0001)  ploadbar=  1.01118159780462E+05
 cg2d: Sum(rhs),rhsMax =  -3.84691740019153E+01  1.70832876709164E+00
(PID.TID 0000.0001)  ploadbar=  1.01120431126287E+05
 cg2d: Sum(rhs),rhsMax =  -3.81508947611522E+01  1.72254190509122E+00
(PID.TID 0000.0001)  ploadbar=  1.01122702472112E+05
 cg2d: Sum(rhs),rhsMax =  -3.78049958941605E+01  1.73818042224774E+00
(PID.TID 0000.0001)  ploadbar=  1.01124973817938E+05
 cg2d: Sum(rhs),rhsMax =  -3.74325374729745E+01  1.75526225541711E+00
(PID.TID 0000.0001)  ploadbar=  1.01127245163763E+05
 cg2d: Sum(rhs),rhsMax =  -3.70364425371999E+01  1.77372599458042E+00
(PID.TID 0000.0001)  ploadbar=  1.01129516509588E+05
 cg2d: Sum(rhs),rhsMax =  -3.66059864603339E+01  1.79437025698633E+00
(PID.TID 0000.0001)  ploadbar=  1.01130659557137E+05
 cg2d: Sum(rhs),rhsMax =  -3.61546889687426E+01  1.81664980778507E+00
(PID.TID 0000.0001)  ploadbar=  1.01131802604686E+05
 cg2d: Sum(rhs),rhsMax =  -3.56909945226119E+01  1.84022343760084E+00
(PID.TID 0000.0001)  ploadbar=  1.01132945652235E+05
 cg2d: Sum(rhs),rhsMax =  -3.52433568035880E+01  1.86364312274157E+00
(PID.TID 0000.0001)  ploadbar=  1.01134088699784E+05
 cg2d: Sum(rhs),rhsMax =  -3.48301087573576E+01  1.88586897014195E+00
(PID.TID 0000.0001)  ploadbar=  1.01135231747333E+05
 cg2d: Sum(rhs),rhsMax =  -3.44748900775707E+01  1.90548038257967E+00
(PID.TID 0000.0001)  ploadbar=  1.01136374794883E+05
 cg2d: Sum(rhs),rhsMax =  -3.42298402025087E+01  1.91925186425213E+00
(PID.TID 0000.0001)  ploadbar=  1.01137932159011E+05
 cg2d: Sum(rhs),rhsMax =  -3.41073714481859E+01  1.92621901896601E+00
(PID.TID 0000.0001)  ploadbar=  1.01139489523139E+05
 cg2d: Sum(rhs),rhsMax =  -3.41218344889212E+01  1.92542308492654E+00
(PID.TID 0000.0001)  ploadbar=  1.01141046887267E+05
 cg2d: Sum(rhs),rhsMax =  -3.42662394107273E+01  1.91727320129073E+00
(PID.TID 0000.0001)  ploadbar=  1.01142604251395E+05
 cg2d: Sum(rhs),rhsMax =  -3.45311688055244E+01  1.90247083476784E+00
(PID.TID 0000.0001)  ploadbar=  1.01144161615524E+05
 cg2d: Sum(rhs),rhsMax =  -3.49084224244821E+01  1.88176695179510E+00
(PID.TID 0000.0001)  ploadbar=  1.01145718979652E+05
 cg2d: Sum(rhs),rhsMax =  -3.53826206786469E+01  1.85646297687237E+00
(PID.TID 0000.0001)  ploadbar=  1.01146384758125E+05
 cg2d: Sum(rhs),rhsMax =  -3.59515140856822E+01  1.82703488261802E+00
(PID.TID 0000.0001)  ploadbar=  1.01147050536597E+05
 cg2d: Sum(rhs),rhsMax =  -3.66190448739365E+01  1.79369143176337E+00
(PID.TID 0000.0001)  ploadbar=  1.01147716315070E+05
 cg2d: Sum(rhs),rhsMax =  -3.73940050845408E+01  1.75648828913335E+00
(PID.TID 0000.0001)  ploadbar=  1.01148382093543E+05
 cg2d: Sum(rhs),rhsMax =  -3.82776485910163E+01  1.71590797957193E+00
(PID.TID 0000.0001)  ploadbar=  1.01149047872016E+05
 cg2d: Sum(rhs),rhsMax =  -3.92615077268340E+01  1.67287453617043E+00
(PID.TID 0000.0001)  ploadbar=  1.01149713650489E+05
 cg2d: Sum(rhs),rhsMax =  -4.03461702162237E+01  1.62781690005429E+00
(PID.TID 0000.0001)  ploadbar=  1.01149938498112E+05
 cg2d: Sum(rhs),rhsMax =  -4.15164472880201E+01  1.58179610982946E+00
(PID.TID 0000.0001)  ploadbar=  1.01150163345735E+05
 cg2d: Sum(rhs),rhsMax =  -4.27504638686743E+01  1.53594882010099E+00
(PID.TID 0000.0001)  ploadbar=  1.01150388193358E+05
 cg2d: Sum(rhs),rhsMax =  -4.40402164078414E+01  1.49072545528547E+00
(PID.TID 0000.0001)  ploadbar=  1.01150613040981E+05
 cg2d: Sum(rhs),rhsMax =  -4.53683576477350E+01  1.44678512930950E+00
(PID.TID 0000.0001)  ploadbar=  1.01150837888604E+05
 cg2d: Sum(rhs),rhsMax =  -4.67164867901664E+01  1.40467821122543E+00
(PID.TID 0000.0001)  ploadbar=  1.01151062736228E+05
 cg2d: Sum(rhs),rhsMax =  -4.81059390363646E+01  1.36381671290060E+00
(PID.TID 0000.0001)  ploadbar=  1.01151058725650E+05
 cg2d: Sum(rhs),rhsMax =  -4.97195819860070E+01  1.31932448150856E+00
(PID.TID 0000.0001)  ploadbar=  1.01151054715073E+05
 cg2d: Sum(rhs),rhsMax =  -5.17686540450056E+01  1.26692617083355E+00
(PID.TID 0000.0001)  ploadbar=  1.01151050704496E+05
 cg2d: Sum(rhs),rhsMax =  -5.42855958147608E+01  1.20805383173399E+00
(PID.TID 0000.0001)  ploadbar=  1.01151046693919E+05
 cg2d: Sum(rhs),rhsMax =  -5.72034240771900E+01  1.14633638820328E+00
(PID.TID 0000.0001)  ploadbar=  1.01151042683342E+05
 cg2d: Sum(rhs),rhsMax =  -6.05073689446043E+01  1.08367043133152E+00
(PID.TID 0000.0001)  ploadbar=  1.01151038672765E+05
 cg2d: Sum(rhs),rhsMax =  -6.21824199904575E+01  1.05441169228511E+00
(PID.TID 0000.0001)  ploadbar=  1.01151425596515E+05
 cg2d: Sum(rhs),rhsMax =  -5.96912746438224E+01  1.09834511566518E+00
(PID.TID 0000.0001)  ploadbar=  1.01151812520265E+05
 cg2d: Sum(rhs),rhsMax =  -5.82375376762756E+01  1.12568457616662E+00
(PID.TID 0000.0001)  ploadbar=  1.01152199444016E+05
 cg2d: Sum(rhs),rhsMax =  -5.73785775244719E+01  1.14244975898163E+00
(PID.TID 0000.0001)  ploadbar=  1.01152586367766E+05
 cg2d: Sum(rhs),rhsMax =  -5.67514645432229E+01  1.15497699828253E+00
(PID.TID 0000.0001)  ploadbar=  1.01152973291516E+05
 cg2d: Sum(rhs),rhsMax =  -5.61747902180473E+01  1.16672362271843E+00
(PID.TID 0000.0001)  ploadbar=  1.01153360215266E+05
 cg2d: Sum(rhs),rhsMax =  -5.55941360534427E+01  1.17883438523920E+00
(PID.TID 0000.0001)  ploadbar=  1.01152903098197E+05
 cg2d: Sum(rhs),rhsMax =  -5.50286372987609E+01  1.19089638012423E+00
(PID.TID 0000.0001)  ploadbar=  1.01152445981128E+05
 cg2d: Sum(rhs),rhsMax =  -5.44815726034185E+01  1.20282199727774E+00
(PID.TID 0000.0001)  ploadbar=  1.01151988864059E+05
 cg2d: Sum(rhs),rhsMax =  -5.39559877170183E+01  1.21452228445560E+00
(PID.TID 0000.0001)  ploadbar=  1.01151531746990E+05
 cg2d: Sum(rhs),rhsMax =  -5.34504297138605E+01  1.22600693320198E+00
(PID.TID 0000.0001)  ploadbar=  1.01151074629921E+05
 cg2d: Sum(rhs),rhsMax =  -5.29798164777632E+01  1.23690461036137E+00
(PID.TID 0000.0001)  ploadbar=  1.01150617512851E+05
 cg2d: Sum(rhs),rhsMax =  -5.26129159307198E+01  1.24549748278350E+00
(PID.TID 0000.0001)  ploadbar=  1.01150405509316E+05
 cg2d: Sum(rhs),rhsMax =  -5.22985188550840E+01  1.25290895864405E+00
(PID.TID 0000.0001)  ploadbar=  1.01150193505780E+05
 cg2d: Sum(rhs),rhsMax =  -5.20827087950898E+01  1.25798032431744E+00
(PID.TID 0000.0001)  ploadbar=  1.01149981502244E+05
 cg2d: Sum(rhs),rhsMax =  -5.20353123802530E+01  1.25895482391928E+00
(PID.TID 0000.0001)  ploadbar=  1.01149769498709E+05
 cg2d: Sum(rhs),rhsMax =  -5.20895555379183E+01  1.25741964867228E+00
(PID.TID 0000.0001)  ploadbar=  1.01149557495173E+05
 cg2d: Sum(rhs),rhsMax =  -5.21777046870504E+01  1.25501881928589E+00
(PID.TID 0000.0001)  ploadbar=  1.01149345491638E+05
 cg2d: Sum(rhs),rhsMax =  -5.20576374836974E+01  1.25774413406172E+00
(PID.TID 0000.0001)  ploadbar=  1.01148151061403E+05
 cg2d: Sum(rhs),rhsMax =  -5.16521898209446E+01  1.26755131592428E+00
(PID.TID 0000.0001)  ploadbar=  1.01146956631168E+05
 cg2d: Sum(rhs),rhsMax =  -5.09567563735055E+01  1.28488770052710E+00
(PID.TID 0000.0001)  ploadbar=  1.01145762200933E+05
 cg2d: Sum(rhs),rhsMax =  -4.97707804168007E+01  1.31565007987680E+00
(PID.TID 0000.0001)  ploadbar=  1.01144567770698E+05
 cg2d: Sum(rhs),rhsMax =  -4.84603434126454E+01  1.35148498064917E+00
(PID.TID 0000.0001)  ploadbar=  1.01143373340463E+05
 cg2d: Sum(rhs),rhsMax =  -4.71689342377879E+01  1.38885595021030E+00
(PID.TID 0000.0001)  ploadbar=  1.01142178910228E+05
 cg2d: Sum(rhs),rhsMax =  -4.58028881783801E+01  1.43060738867747E+00
(PID.TID 0000.0001)  ploadbar=  1.01141401859691E+05
 cg2d: Sum(rhs),rhsMax =  -4.44206855004777E+01  1.47540575047098E+00
(PID.TID 0000.0001)  ploadbar=  1.01140624809154E+05
 cg2d: Sum(rhs),rhsMax =  -4.30573344228356E+01  1.52235398142246E+00
(PID.TID 0000.0001)  ploadbar=  1.01139847758618E+05
 cg2d: Sum(rhs),rhsMax =  -4.17139580034180E+01  1.57155173638624E+00
(PID.TID 0000.0001)  ploadbar=  1.01139070708081E+05
 cg2d: Sum(rhs),rhsMax =  -4.04106500425284E+01  1.62233902568549E+00
(PID.TID 0000.0001)  ploadbar=  1.01138293657544E+05
 cg2d: Sum(rhs),rhsMax =  -3.91587690701061E+01  1.67422924454925E+00
(PID.TID 0000.0001)  ploadbar=  1.01137516607007E+05
 cg2d: Sum(rhs),rhsMax =  -3.79249349928386E+01  1.72872969367817E+00
(PID.TID 0000.0001)  ploadbar=  1.01136493715836E+05
 cg2d: Sum(rhs),rhsMax =  -3.66971719148496E+01  1.78659597320486E+00
(PID.TID 0000.0001)  ploadbar=  1.01135470824665E+05
 cg2d: Sum(rhs),rhsMax =  -3.55473114660957E+01  1.84440736748778E+00
(PID.TID 0000.0001)  ploadbar=  1.01134447933494E+05
 cg2d: Sum(rhs),rhsMax =  -3.44800182426763E+01  1.90150431989690E+00
(PID.TID 0000.0001)  ploadbar=  1.01133425042324E+05
 cg2d: Sum(rhs),rhsMax =  -3.34735281263136E+01  1.95866459782274E+00
(PID.TID 0000.0001)  ploadbar=  1.01132402151153E+05
 cg2d: Sum(rhs),rhsMax =  -3.25193955201761E+01  2.01608931455567E+00
(PID.TID 0000.0001)  ploadbar=  1.01131379259982E+05
 cg2d: Sum(rhs),rhsMax =  -3.16195980115753E+01  2.07332101678316E+00
(PID.TID 0000.0001)  ploadbar=  1.01131016250265E+05
 cg2d: Sum(rhs),rhsMax =  -3.07782904088639E+01  2.12974644575138E+00
(PID.TID 0000.0001)  ploadbar=  1.01130653240549E+05
 cg2d: Sum(rhs),rhsMax =  -3.00016341018160E+01  2.18451337018748E+00
(PID.TID 0000.0001)  ploadbar=  1.01130290230832E+05
 cg2d: Sum(rhs),rhsMax =  -2.92902410615986E+01  2.23707822611039E+00
(PID.TID 0000.0001)  ploadbar=  1.01129927221115E+05
 cg2d: Sum(rhs),rhsMax =  -2.86421130122870E+01  2.28707639255025E+00
(PID.TID 0000.0001)  ploadbar=  1.01129564211398E+05
 cg2d: Sum(rhs),rhsMax =  -2.80535781453735E+01  2.33429610825798E+00
(PID.TID 0000.0001)  ploadbar=  1.01129201201681E+05
 cg2d: Sum(rhs),rhsMax =  -2.75181497646871E+01  2.37909963602139E+00
(PID.TID 0000.0001)  ploadbar=  1.01129176840250E+05
 cg2d: Sum(rhs),rhsMax =  -2.70324218366394E+01  2.42138092150179E+00
(PID.TID 0000.0001)  ploadbar=  1.01129152478819E+05
 cg2d: Sum(rhs),rhsMax =  -2.65949599823805E+01  2.46089211353930E+00
(PID.TID 0000.0001)  ploadbar=  1.01129128117388E+05
 cg2d: Sum(rhs),rhsMax =  -2.62044811489095E+01  2.49739234513380E+00
(PID.TID 0000.0001)  ploadbar=  1.01129103755956E+05
 cg2d: Sum(rhs),rhsMax =  -2.58734002425510E+01  2.52932568861842E+00
(PID.TID 0000.0001)  ploadbar=  1.01129079394525E+05
 cg2d: Sum(rhs),rhsMax =  -2.55926494056907E+01  2.55719348092752E+00
(PID.TID 0000.0001)  ploadbar=  1.01129055033094E+05
 cg2d: Sum(rhs),rhsMax =  -2.53630839517650E+01  2.58050576037974E+00
(PID.TID 0000.0001)  ploadbar=  1.01128435533051E+05
 cg2d: Sum(rhs),rhsMax =  -2.51771337546813E+01  2.59975740638623E+00
(PID.TID 0000.0001)  ploadbar=  1.01127816033008E+05
 cg2d: Sum(rhs),rhsMax =  -2.50175813430601E+01  2.61654135127852E+00
(PID.TID 0000.0001)  ploadbar=  1.01127196532965E+05
 cg2d: Sum(rhs),rhsMax =  -2.48673756861616E+01  2.63254999555049E+00
(PID.TID 0000.0001)  ploadbar=  1.01126577032922E+05
 cg2d: Sum(rhs),rhsMax =  -2.47317716492439E+01  2.64718021225387E+00
(PID.TID 0000.0001)  ploadbar=  1.01125957532879E+05
 cg2d: Sum(rhs),rhsMax =  -2.46106111912197E+01  2.66039465078290E+00
(PID.TID 0000.0001)  ploadbar=  1.01125338032837E+05
 cg2d: Sum(rhs),rhsMax =  -2.45082284862187E+01  2.67164046032437E+00
(PID.TID 0000.0001)  ploadbar=  1.01123930954953E+05
 cg2d: Sum(rhs),rhsMax =  -2.44231988801597E+01  2.68101243775100E+00
(PID.TID 0000.0001)  ploadbar=  1.01122523877070E+05
 cg2d: Sum(rhs),rhsMax =  -2.43528893091437E+01  2.68875381629680E+00
(PID.TID 0000.0001)  ploadbar=  1.01121116799187E+05
 cg2d: Sum(rhs),rhsMax =  -2.42940409220569E+01  2.69519172080947E+00
(PID.TID 0000.0001)  ploadbar=  1.01119709721303E+05
 cg2d: Sum(rhs),rhsMax =  -2.42443974320417E+01  2.70055267064806E+00
(PID.TID 0000.0001)  ploadbar=  1.01118302643420E+05
 cg2d: Sum(rhs),rhsMax =  -2.42015645867798E+01  2.70508048050760E+00
(PID.TID 0000.0001)  ploadbar=  1.01116895565537E+05
 cg2d: Sum(rhs),rhsMax =  -2.41558684756941E+01  2.70989540356301E+00
(PID.TID 0000.0001)  ploadbar=  1.01115522792191E+05
 cg2d: Sum(rhs),rhsMax =  -2.41126958250695E+01  2.71438999213501E+00
(PID.TID 0000.0001)  ploadbar=  1.01114150018846E+05
 cg2d: Sum(rhs),rhsMax =  -2.40791332323748E+01  2.71775459352481E+00
(PID.TID 0000.0001)  ploadbar=  1.01112777245501E+05
 cg2d: Sum(rhs),rhsMax =  -2.40598196015893E+01  2.71945564517996E+00
(PID.TID 0000.0001)  ploadbar=  1.01111404472156E+05
 cg2d: Sum(rhs),rhsMax =  -2.40633272637120E+01  2.71851307934173E+00
(PID.TID 0000.0001)  ploadbar=  1.01110031698811E+05
 cg2d: Sum(rhs),rhsMax =  -2.40827700952183E+01  2.71570304397431E+00
(PID.TID 0000.0001)  ploadbar=  1.01108658925465E+05
 cg2d: Sum(rhs),rhsMax =  -2.41211966037777E+01  2.71102132887793E+00
(PID.TID 0000.0001)  ploadbar=  1.01107490639403E+05
 cg2d: Sum(rhs),rhsMax =  -2.41749975374408E+01  2.70488260659131E+00
(PID.TID 0000.0001)  ploadbar=  1.01106322353341E+05
 cg2d: Sum(rhs),rhsMax =  -2.42428843800526E+01  2.69744298259726E+00
(PID.TID 0000.0001)  ploadbar=  1.01105154067278E+05
 cg2d: Sum(rhs),rhsMax =  -2.43233315608833E+01  2.68887989990647E+00
(PID.TID 0000.0001)  ploadbar=  1.01103985781216E+05
 cg2d: Sum(rhs),rhsMax =  -2.44145524258316E+01  2.67940576087674E+00
(PID.TID 0000.0001)  ploadbar=  1.01102817495154E+05
 cg2d: Sum(rhs),rhsMax =  -2.45149473491409E+01  2.66921203682579E+00
(PID.TID 0000.0001)  ploadbar=  1.01101649209091E+05
 cg2d: Sum(rhs),rhsMax =  -2.46194037870368E+01  2.65866253531771E+00
(PID.TID 0000.0001)  ploadbar=  1.01100497555610E+05
 cg2d: Sum(rhs),rhsMax =  -2.47270371216093E+01  2.64784849068465E+00
(PID.TID 0000.0001)  ploadbar=  1.01099345902128E+05
 cg2d: Sum(rhs),rhsMax =  -2.48375931875725E+01  2.63679477132851E+00
(PID.TID 0000.0001)  ploadbar=  1.01098194248647E+05
 cg2d: Sum(rhs),rhsMax =  -2.49516237764058E+01  2.62544999432327E+00
(PID.TID 0000.0001)  ploadbar=  1.01097042595166E+05
 cg2d: Sum(rhs),rhsMax =  -2.50693006537603E+01  2.61380187792783E+00
(PID.TID 0000.0001)  ploadbar=  1.01095890941684E+05
 cg2d: Sum(rhs),rhsMax =  -2.51906729104282E+01  2.60185077934504E+00
(PID.TID 0000.0001)  ploadbar=  1.01094739288203E+05
 cg2d: Sum(rhs),rhsMax =  -2.53202261424673E+01  2.58920898207615E+00
(PID.TID 0000.0001)  ploadbar=  1.01093022608513E+05
 cg2d: Sum(rhs),rhsMax =  -2.54525872410023E+01  2.57642964807894E+00
(PID.TID 0000.0001)  ploadbar=  1.01091305928823E+05
 cg2d: Sum(rhs),rhsMax =  -2.55868992251553E+01  2.56359426651056E+00
(PID.TID 0000.0001)  ploadbar=  1.01089589249133E+05
 cg2d: Sum(rhs),rhsMax =  -2.57214086242201E+01  2.55087602367392E+00
(PID.TID 0000.0001)  ploadbar=  1.01087872569443E+05
 cg2d: Sum(rhs),rhsMax =  -2.58552873698593E+01  2.53835065754567E+00
(PID.TID 0000.0001)  ploadbar=  1.01086155889754E+05
 cg2d: Sum(rhs),rhsMax =  -2.59858721043717E+01  2.52626182073412E+00
(PID.TID 0000.0001)  ploadbar=  1.01084439210064E+05
 cg2d: Sum(rhs),rhsMax =  -2.61057856062929E+01  2.51524518477499E+00
(PID.TID 0000.0001)  ploadbar=  1.01084061144732E+05
 cg2d: Sum(rhs),rhsMax =  -2.62161747132121E+01  2.50515785111000E+00
(PID.TID 0000.0001)  ploadbar=  1.01083683079401E+05
 cg2d: Sum(rhs),rhsMax =  -2.63206642212535E+01  2.49562695653531E+00
(PID.TID 0000.0001)  ploadbar=  1.01083305014070E+05
 cg2d: Sum(rhs),rhsMax =  -2.64227805115224E+01  2.48630679524137E+00
(PID.TID 0000.0001)  ploadbar=  1.01082926948738E+05
 cg2d: Sum(rhs),rhsMax =  -2.65224092932307E+01  2.47719658219996E+00
(PID.TID 0000.0001)  ploadbar=  1.01082548883407E+05
 cg2d: Sum(rhs),rhsMax =  -2.66208496171567E+01  2.46816781032020E+00
(PID.TID 0000.0001)  ploadbar=  1.01082170818075E+05
 cg2d: Sum(rhs),rhsMax =  -2.67253813237070E+01  2.45880355654551E+00
(PID.TID 0000.0001)  ploadbar=  1.01081397867251E+05
 cg2d: Sum(rhs),rhsMax =  -2.68374341621111E+01  2.44897892603620E+00
(PID.TID 0000.0001)  ploadbar=  1.01080624916427E+05
 cg2d: Sum(rhs),rhsMax =  -2.69553400777970E+01  2.43885284785910E+00
(PID.TID 0000.0001)  ploadbar=  1.01079851965602E+05
 cg2d: Sum(rhs),rhsMax =  -2.70781940541019E+01  2.42850811931548E+00
(PID.TID 0000.0001)  ploadbar=  1.01079079014778E+05
 cg2d: Sum(rhs),rhsMax =  -2.72054213736637E+01  2.41799433904979E+00
(PID.TID 0000.0001)  ploadbar=  1.01078306063954E+05
 cg2d: Sum(rhs),rhsMax =  -2.73365849439178E+01  2.40734659928695E+00
(PID.TID 0000.0001)  ploadbar=  1.01077533113129E+05
 cg2d: Sum(rhs),rhsMax =  -2.74668716038671E+01  2.39680018628085E+00
(PID.TID 0000.0001)  ploadbar=  1.01077195217701E+05
 cg2d: Sum(rhs),rhsMax =  -2.75953376729891E+01  2.38642543578285E+00
(PID.TID 0000.0001)  ploadbar=  1.01076857322273E+05
 cg2d: Sum(rhs),rhsMax =  -2.77239688451759E+01  2.37604489712920E+00
(PID.TID 0000.0001)  ploadbar=  1.01076519426845E+05
 cg2d: Sum(rhs),rhsMax =  -2.78514837020240E+01  2.36576297426516E+00
(PID.TID 0000.0001)  ploadbar=  1.01076181531416E+05
 cg2d: Sum(rhs),rhsMax =  -2.79771852445888E+01  2.35563281751353E+00
(PID.TID 0000.0001)  ploadbar=  1.01075843635988E+05
 cg2d: Sum(rhs),rhsMax =  -2.81010856189693E+01  2.34564721798228E+00
(PID.TID 0000.0001)  ploadbar=  1.01075505740560E+05
 cg2d: Sum(rhs),rhsMax =  -2.82240406269645E+01  2.33584399481982E+00
(PID.TID 0000.0001)  ploadbar=  1.01074733860763E+05
 cg2d: Sum(rhs),rhsMax =  -2.83446736471151E+01  2.32631738772664E+00
(PID.TID 0000.0001)  ploadbar=  1.01073961980966E+05
 cg2d: Sum(rhs),rhsMax =  -2.84642664620402E+01  2.31694985225190E+00
(PID.TID 0000.0001)  ploadbar=  1.01073190101168E+05
 cg2d: Sum(rhs),rhsMax =  -2.85834958234069E+01  2.30768234890546E+00
(PID.TID 0000.0001)  ploadbar=  1.01072418221371E+05
 cg2d: Sum(rhs),rhsMax =  -2.87032484557251E+01  2.29843778653469E+00
(PID.TID 0000.0001)  ploadbar=  1.01071646341574E+05
 cg2d: Sum(rhs),rhsMax =  -2.88243352838466E+01  2.28914622350277E+00
(PID.TID 0000.0001)  ploadbar=  1.01070874461777E+05
 cg2d: Sum(rhs),rhsMax =  -2.89461288726287E+01  2.27983104564160E+00
(PID.TID 0000.0001)  ploadbar=  1.01071143684117E+05
 cg2d: Sum(rhs),rhsMax =  -2.90684649981475E+01  2.27049711501201E+00
(PID.TID 0000.0001)  ploadbar=  1.01071412906457E+05
 cg2d: Sum(rhs),rhsMax =  -2.91914345032270E+01  2.26112944654959E+00
(PID.TID 0000.0001)  ploadbar=  1.01071682128797E+05
 cg2d: Sum(rhs),rhsMax =  -2.93152689593833E+01  2.25170611268972E+00
(PID.TID 0000.0001)  ploadbar=  1.01071951351136E+05
 cg2d: Sum(rhs),rhsMax =  -2.94395744065245E+01  2.24225669424879E+00
(PID.TID 0000.0001)  ploadbar=  1.01072220573476E+05
 cg2d: Sum(rhs),rhsMax =  -2.95650972090613E+01  2.23272142121764E+00
(PID.TID 0000.0001)  ploadbar=  1.01072489795816E+05
 cg2d: Sum(rhs),rhsMax =  -2.96971574438864E+01  2.22287041880399E+00
(PID.TID 0000.0001)  ploadbar=  1.01071474444831E+05
 cg2d: Sum(rhs),rhsMax =  -2.98339611163658E+01  2.21284087018947E+00
(PID.TID 0000.0001)  ploadbar=  1.01070459093845E+05
 cg2d: Sum(rhs),rhsMax =  -2.99751177691797E+01  2.20265868348906E+00
(PID.TID 0000.0001)  ploadbar=  1.01069443742860E+05
 cg2d: Sum(rhs),rhsMax =  -3.01205139257823E+01  2.19233447519788E+00
(PID.TID 0000.0001)  ploadbar=  1.01068428391875E+05
 cg2d: Sum(rhs),rhsMax =  -3.02695979918497E+01  2.18191081456083E+00
(PID.TID 0000.0001)  ploadbar=  1.01067413040889E+05
 cg2d: Sum(rhs),rhsMax =  -3.04221524241613E+01  2.17140699499809E+00
(PID.TID 0000.0001)  ploadbar=  1.01066397689904E+05
 cg2d: Sum(rhs),rhsMax =  -3.05763461845333E+01  2.16085447372853E+00
(PID.TID 0000.0001)  ploadbar=  1.01066324645351E+05
 cg2d: Sum(rhs),rhsMax =  -3.07311020815116E+01  2.15031924723658E+00
(PID.TID 0000.0001)  ploadbar=  1.01066251600798E+05
 cg2d: Sum(rhs),rhsMax =  -3.08841597959973E+01  2.13994927658283E+00
(PID.TID 0000.0001)  ploadbar=  1.01066178556244E+05
 cg2d: Sum(rhs),rhsMax =  -3.10350028117290E+01  2.12976659361595E+00
(PID.TID 0000.0001)  ploadbar=  1.01066105511691E+05
 cg2d: Sum(rhs),rhsMax =  -3.11836423798853E+01  2.11976034622091E+00
(PID.TID 0000.0001)  ploadbar=  1.01066032467138E+05
 cg2d: Sum(rhs),rhsMax =  -3.13300526052458E+01  2.10992371541445E+00
(PID.TID 0000.0001)  ploadbar=  1.01065959422585E+05
 cg2d: Sum(rhs),rhsMax =  -3.14752711209206E+01  2.10031216576559E+00
(PID.TID 0000.0001)  ploadbar=  1.01064580700647E+05
 cg2d: Sum(rhs),rhsMax =  -3.16187992532998E+01  2.09094690381603E+00
(PID.TID 0000.0001)  ploadbar=  1.01063201978709E+05
 cg2d: Sum(rhs),rhsMax =  -3.17578142914827E+01  2.08199955921802E+00
(PID.TID 0000.0001)  ploadbar=  1.01061823256771E+05
 cg2d: Sum(rhs),rhsMax =  -3.18915280384339E+01  2.07350378086876E+00
(PID.TID 0000.0001)  ploadbar=  1.01060444534833E+05
 cg2d: Sum(rhs),rhsMax =  -3.20187021969847E+01  2.06552495686660E+00
(PID.TID 0000.0001)  ploadbar=  1.01059065812896E+05
 cg2d: Sum(rhs),rhsMax =  -3.21382659346713E+01  2.05811320843272E+00
(PID.TID 0000.0001)  ploadbar=  1.01057687090958E+05
 cg2d: Sum(rhs),rhsMax =  -3.22509424296055E+01  2.05112274051115E+00
(PID.TID 0000.0001)  ploadbar=  1.01057266102706E+05
 cg2d: Sum(rhs),rhsMax =  -3.23601586078590E+01  2.04432235042064E+00
(PID.TID 0000.0001)  ploadbar=  1.01056845114454E+05
 cg2d: Sum(rhs),rhsMax =  -3.24646744322523E+01  2.03777548349897E+00
(PID.TID 0000.0001)  ploadbar=  1.01056424126202E+05
 cg2d: Sum(rhs),rhsMax =  -3.25643776231804E+01  2.03147260685858E+00
(PID.TID 0000.0001)  ploadbar=  1.01056003137950E+05
 cg2d: Sum(rhs),rhsMax =  -3.26590103673271E+01  2.02541808585727E+00
(PID.TID 0000.0001)  ploadbar=  1.01055582149698E+05
 cg2d: Sum(rhs),rhsMax =  -3.27481807132077E+01  2.01962413546451E+00
(PID.TID 0000.0001)  ploadbar=  1.01055161161446E+05
 cg2d: Sum(rhs),rhsMax =  -3.28342326529024E+01  2.01415427453277E+00
(PID.TID 0000.0001)  ploadbar=  1.01055209394536E+05
 cg2d: Sum(rhs),rhsMax =  -3.29191181705454E+01  2.00888159588231E+00
(PID.TID 0000.0001)  ploadbar=  1.01055257627626E+05
 cg2d: Sum(rhs),rhsMax =  -3.30044971718774E+01  2.00369743653674E+00
(PID.TID 0000.0001)  ploadbar=  1.01055305860716E+05
 cg2d: Sum(rhs),rhsMax =  -3.30900672404340E+01  1.99861106336221E+00
(PID.TID 0000.0001)  ploadbar=  1.01055354093807E+05
 cg2d: Sum(rhs),rhsMax =  -3.31754552190647E+01  1.99363201057571E+00
(PID.TID 0000.0001)  ploadbar=  1.01055402326897E+05
 cg2d: Sum(rhs),rhsMax =  -3.32604629408874E+01  1.98877087259082E+00
(PID.TID 0000.0001)  ploadbar=  1.01055450559987E+05
 cg2d: Sum(rhs),rhsMax =  -3.33418066779116E+01  1.98409106363594E+00
(PID.TID 0000.0001)  ploadbar=  1.01056212725166E+05
 cg2d: Sum(rhs),rhsMax =  -3.34196878939700E+01  1.97956634277221E+00
(PID.TID 0000.0001)  ploadbar=  1.01056974890345E+05
 cg2d: Sum(rhs),rhsMax =  -3.34968739569337E+01  1.97502734509925E+00
(PID.TID 0000.0001)  ploadbar=  1.01057737055523E+05
 cg2d: Sum(rhs),rhsMax =  -3.35738981632161E+01  1.97043826603520E+00
(PID.TID 0000.0001)  ploadbar=  1.01058499220702E+05
 cg2d: Sum(rhs),rhsMax =  -3.36502739333903E+01  1.96582373794443E+00
(PID.TID 0000.0001)  ploadbar=  1.01059261385881E+05
 cg2d: Sum(rhs),rhsMax =  -3.37256510853915E+01  1.96120278116890E+00
(PID.TID 0000.0001)  ploadbar=  1.01060023551060E+05
 cg2d: Sum(rhs),rhsMax =  -3.38008867526836E+01  1.95666532959667E+00
(PID.TID 0000.0001)  ploadbar=  1.01060578095882E+05
 cg2d: Sum(rhs),rhsMax =  -3.38729702718119E+01  1.95236780610364E+00
(PID.TID 0000.0001)  ploadbar=  1.01061132640703E+05
 cg2d: Sum(rhs),rhsMax =  -3.39440153575337E+01  1.94817645271327E+00
(PID.TID 0000.0001)  ploadbar=  1.01061687185524E+05
 cg2d: Sum(rhs),rhsMax =  -3.40150795146076E+01  1.94402291807853E+00
(PID.TID 0000.0001)  ploadbar=  1.01062241730345E+05
 cg2d: Sum(rhs),rhsMax =  -3.40874486872323E+01  1.93982683349721E+00
(PID.TID 0000.0001)  ploadbar=  1.01062796275166E+05
 cg2d: Sum(rhs),rhsMax =  -3.41628647113110E+01  1.93548379383635E+00
(PID.TID 0000.0001)  ploadbar=  1.01063350819987E+05
 cg2d: Sum(rhs),rhsMax =  -3.42428456582072E+01  1.93085141245202E+00
(PID.TID 0000.0001)  ploadbar=  1.01064709760665E+05
 cg2d: Sum(rhs),rhsMax =  -3.43256676231598E+01  1.92602391224757E+00
(PID.TID 0000.0001)  ploadbar=  1.01066068701343E+05
 cg2d: Sum(rhs),rhsMax =  -3.44091847207823E+01  1.92112040042248E+00
(PID.TID 0000.0001)  ploadbar=  1.01067427642020E+05
 cg2d: Sum(rhs),rhsMax =  -3.44928387568951E+01  1.91616799713512E+00
(PID.TID 0000.0001)  ploadbar=  1.01068786582698E+05
 cg2d: Sum(rhs),rhsMax =  -3.45759805717152E+01  1.91119646559921E+00
(PID.TID 0000.0001)  ploadbar=  1.01070145523376E+05
 cg2d: Sum(rhs),rhsMax =  -3.46581823443809E+01  1.90622669895615E+00
(PID.TID 0000.0001)  ploadbar=  1.01071504464053E+05
 cg2d: Sum(rhs),rhsMax =  -3.47445274933641E+01  1.90114511601030E+00
(PID.TID 0000.0001)  ploadbar=  1.01072855019812E+05
 cg2d: Sum(rhs),rhsMax =  -3.48376611259002E+01  1.89580658856761E+00
(PID.TID 0000.0001)  ploadbar=  1.01074205575570E+05
 cg2d: Sum(rhs),rhsMax =  -3.49378608831482E+01  1.89019615032472E+00
(PID.TID 0000.0001)  ploadbar=  1.01075556131328E+05
 cg2d: Sum(rhs),rhsMax =  -3.50447025394087E+01  1.88433643793421E+00
(PID.TID 0000.0001)  ploadbar=  1.01076906687086E+05
 cg2d: Sum(rhs),rhsMax =  -3.51572569685510E+01  1.87827600721213E+00
(PID.TID 0000.0001)  ploadbar=  1.01078257242845E+05
 cg2d: Sum(rhs),rhsMax =  -3.52749269791228E+01  1.87204336292779E+00
(PID.TID 0000.0001)  ploadbar=  1.01079607798603E+05
 cg2d: Sum(rhs),rhsMax =  -3.53915066604277E+01  1.86588491543125E+00
(PID.TID 0000.0001)  ploadbar=  1.01081336288599E+05
 cg2d: Sum(rhs),rhsMax =  -3.55039140523690E+01  1.85995426357919E+00
(PID.TID 0000.0001)  ploadbar=  1.01083064778595E+05
 cg2d: Sum(rhs),rhsMax =  -3.56116658389098E+01  1.85426601448036E+00
(PID.TID 0000.0001)  ploadbar=  1.01084793268592E+05
 cg2d: Sum(rhs),rhsMax =  -3.57160297925625E+01  1.84874941902528E+00
(PID.TID 0000.0001)  ploadbar=  1.01086521758588E+05
 cg2d: Sum(rhs),rhsMax =  -3.58184977443378E+01  1.84332922836972E+00
(PID.TID 0000.0001)  ploadbar=  1.01088250248584E+05
 cg2d: Sum(rhs),rhsMax =  -3.59202384851266E+01  1.83794978563150E+00
(PID.TID 0000.0001)  ploadbar=  1.01089978738580E+05
 cg2d: Sum(rhs),rhsMax =  -3.60264372114829E+01  1.83241311803267E+00
(PID.TID 0000.0001)  ploadbar=  1.01089476385510E+05
 cg2d: Sum(rhs),rhsMax =  -3.61344279495128E+01  1.82684442794374E+00
(PID.TID 0000.0001)  ploadbar=  1.01088974032440E+05
 cg2d: Sum(rhs),rhsMax =  -3.62437037700323E+01  1.82126693665902E+00
(PID.TID 0000.0001)  ploadbar=  1.01088471679369E+05
 cg2d: Sum(rhs),rhsMax =  -3.63532766834458E+01  1.81572760119991E+00
(PID.TID 0000.0001)  ploadbar=  1.01087969326299E+05
 cg2d: Sum(rhs),rhsMax =  -3.64617461674677E+01  1.81029230426366E+00
(PID.TID 0000.0001)  ploadbar=  1.01087466973229E+05
 cg2d: Sum(rhs),rhsMax =  -3.65675273804470E+01  1.80503210952569E+00
(PID.TID 0000.0001)  ploadbar=  1.01086964620158E+05
 cg2d: Sum(rhs),rhsMax =  -3.66719068018934E+01  1.79981509674883E+00
(PID.TID 0000.0001)  ploadbar=  1.01087797054935E+05
 cg2d: Sum(rhs),rhsMax =  -3.67712983528031E+01  1.79481556430181E+00
(PID.TID 0000.0001)  ploadbar=  1.01088629489712E+05
 cg2d: Sum(rhs),rhsMax =  -3.68637621426508E+01  1.79012282077487E+00
(PID.TID 0000.0001)  ploadbar=  1.01089461924488E+05
 cg2d: Sum(rhs),rhsMax =  -3.69490841739546E+01  1.78573521564922E+00
(PID.TID 0000.0001)  ploadbar=  1.01090294359265E+05
 cg2d: Sum(rhs),rhsMax =  -3.70275548970192E+01  1.78162590835128E+00
(PID.TID 0000.0001)  ploadbar=  1.01091126794042E+05
 cg2d: Sum(rhs),rhsMax =  -3.70989217666551E+01  1.77779840983421E+00
(PID.TID 0000.0001)  ploadbar=  1.01091959228818E+05
 cg2d: Sum(rhs),rhsMax =  -3.71631446542831E+01  1.77444008617930E+00
(PID.TID 0000.0001)  ploadbar=  1.01091890843753E+05
 cg2d: Sum(rhs),rhsMax =  -3.72268710762983E+01  1.77122722222810E+00
(PID.TID 0000.0001)  ploadbar=  1.01091822458689E+05
 cg2d: Sum(rhs),rhsMax =  -3.72901467497481E+01  1.76815131639216E+00
(PID.TID 0000.0001)  ploadbar=  1.01091754073624E+05
 cg2d: Sum(rhs),rhsMax =  -3.73531202124987E+01  1.76519611979633E+00
(PID.TID 0000.0001)  ploadbar=  1.01091685688559E+05
 cg2d: Sum(rhs),rhsMax =  -3.74165094881878E+01  1.76231856629720E+00
(PID.TID 0000.0001)  ploadbar=  1.01091617303495E+05
 cg2d: Sum(rhs),rhsMax =  -3.74804869418013E+01  1.75950168301210E+00
(PID.TID 0000.0001)  ploadbar=  1.01091548918430E+05
 cg2d: Sum(rhs),rhsMax =  -3.75411745264102E+01  1.75685114946612E+00
(PID.TID 0000.0001)  ploadbar=  1.01091938409811E+05
 cg2d: Sum(rhs),rhsMax =  -3.76005347900525E+01  1.75426589925821E+00
(PID.TID 0000.0001)  ploadbar=  1.01092327901192E+05
 cg2d: Sum(rhs),rhsMax =  -3.76589564760842E+01  1.75171998336480E+00
(PID.TID 0000.0001)  ploadbar=  1.01092717392573E+05
 cg2d: Sum(rhs),rhsMax =  -3.77158442882230E+01  1.74923698885441E+00
(PID.TID 0000.0001)  ploadbar=  1.01093106883955E+05
 cg2d: Sum(rhs),rhsMax =  -3.77709607631586E+01  1.74682670900424E+00
(PID.TID 0000.0001)  ploadbar=  1.01093496375336E+05
 cg2d: Sum(rhs),rhsMax =  -3.78245833971206E+01  1.74447597245279E+00
(PID.TID 0000.0001)  ploadbar=  1.01093885866717E+05
 cg2d: Sum(rhs),rhsMax =  -3.78773745698108E+01  1.74221045553399E+00
(PID.TID 0000.0001)  ploadbar=  1.01094386738022E+05
 cg2d: Sum(rhs),rhsMax =  -3.79287626880537E+01  1.74004471094155E+00
(PID.TID 0000.0001)  ploadbar=  1.01094887609327E+05
 cg2d: Sum(rhs),rhsMax =  -3.79793067290393E+01  1.73794747235470E+00
(PID.TID 0000.0001)  ploadbar=  1.01095388480632E+05
 cg2d: Sum(rhs),rhsMax =  -3.80293710155314E+01  1.73589366374434E+00
(PID.TID 0000.0001)  ploadbar=  1.01095889351937E+05
 cg2d: Sum(rhs),rhsMax =  -3.80788497574621E+01  1.73388089321020E+00
(PID.TID 0000.0001)  ploadbar=  1.01096390223242E+05
 cg2d: Sum(rhs),rhsMax =  -3.81277333525303E+01  1.73190396616965E+00
(PID.TID 0000.0001)  ploadbar=  1.01096891094547E+05
 cg2d: Sum(rhs),rhsMax =  -3.81769549201801E+01  1.72987614640561E+00
(PID.TID 0000.0001)  ploadbar=  1.01097140132972E+05
 cg2d: Sum(rhs),rhsMax =  -3.82244387719277E+01  1.72788887449588E+00
(PID.TID 0000.0001)  ploadbar=  1.01097389171397E+05
 cg2d: Sum(rhs),rhsMax =  -3.82707612240003E+01  1.72591225664098E+00
(PID.TID 0000.0001)  ploadbar=  1.01097638209822E+05
 cg2d: Sum(rhs),rhsMax =  -3.83154546524637E+01  1.72396034334190E+00
(PID.TID 0000.0001)  ploadbar=  1.01097887248247E+05
 cg2d: Sum(rhs),rhsMax =  -3.83583137014387E+01  1.72203228011782E+00
(PID.TID 0000.0001)  ploadbar=  1.01098136286672E+05
 cg2d: Sum(rhs),rhsMax =  -3.83996845244168E+01  1.72010733290671E+00
(PID.TID 0000.0001)  ploadbar=  1.01098385325097E+05
 cg2d: Sum(rhs),rhsMax =  -3.84443868674743E+01  1.71817256026391E+00
(PID.TID 0000.0001)  ploadbar=  1.01098165844847E+05
 cg2d: Sum(rhs),rhsMax =  -3.84931039018528E+01  1.71618949583883E+00
(PID.TID 0000.0001)  ploadbar=  1.01097946364596E+05
 cg2d: Sum(rhs),rhsMax =  -3.85457073787115E+01  1.71415378766972E+00
(PID.TID 0000.0001)  ploadbar=  1.01097726884346E+05
 cg2d: Sum(rhs),rhsMax =  -3.86021262591719E+01  1.71206281089833E+00
(PID.TID 0000.0001)  ploadbar=  1.01097507404096E+05
 cg2d: Sum(rhs),rhsMax =  -3.86625550119223E+01  1.70990646127050E+00
(PID.TID 0000.0001)  ploadbar=  1.01097287923845E+05
 cg2d: Sum(rhs),rhsMax =  -3.87275545728917E+01  1.70765434494074E+00
(PID.TID 0000.0001)  ploadbar=  1.01097068443595E+05
 cg2d: Sum(rhs),rhsMax =  -3.87944008886734E+01  1.70532116647513E+00
(PID.TID 0000.0001)  ploadbar=  1.01096065444107E+05
 cg2d: Sum(rhs),rhsMax =  -3.88628201083381E+01  1.70291385038480E+00
(PID.TID 0000.0001)  ploadbar=  1.01095062444618E+05
 cg2d: Sum(rhs),rhsMax =  -3.89319453968089E+01  1.70046872538666E+00
(PID.TID 0000.0001)  ploadbar=  1.01094059445130E+05
 cg2d: Sum(rhs),rhsMax =  -3.90013307656512E+01  1.69799917857291E+00
(PID.TID 0000.0001)  ploadbar=  1.01093056445642E+05
 cg2d: Sum(rhs),rhsMax =  -3.90705065507305E+01  1.69552284966645E+00
(PID.TID 0000.0001)  ploadbar=  1.01092053446153E+05
 cg2d: Sum(rhs),rhsMax =  -3.91390670162128E+01  1.69304976714845E+00
(PID.TID 0000.0001)  ploadbar=  1.01091050446665E+05
 cg2d: Sum(rhs),rhsMax =  -3.92070644159949E+01  1.69061992998416E+00
(PID.TID 0000.0001)  ploadbar=  1.01088820959095E+05
 cg2d: Sum(rhs),rhsMax =  -3.92764083479214E+01  1.68814391930192E+00
(PID.TID 0000.0001)  ploadbar=  1.01086591471525E+05
 cg2d: Sum(rhs),rhsMax =  -3.93460476618882E+01  1.68566234140766E+00
(PID.TID 0000.0001)  ploadbar=  1.01084361983955E+05
 cg2d: Sum(rhs),rhsMax =  -3.94160236163331E+01  1.68317416748331E+00
(PID.TID 0000.0001)  ploadbar=  1.01082132496385E+05
 cg2d: Sum(rhs),rhsMax =  -3.94864151781399E+01  1.68067601733759E+00
(PID.TID 0000.0001)  ploadbar=  1.01079903008815E+05
 cg2d: Sum(rhs),rhsMax =  -3.95570003384878E+01  1.67817447299882E+00
(PID.TID 0000.0001)  ploadbar=  1.01077673521246E+05
 cg2d: Sum(rhs),rhsMax =  -3.96278606947957E+01  1.67557049318461E+00
(PID.TID 0000.0001)  ploadbar=  1.01077285593536E+05
 cg2d: Sum(rhs),rhsMax =  -3.96962698163734E+01  1.67297746604716E+00
(PID.TID 0000.0001)  ploadbar=  1.01076897665826E+05
 cg2d: Sum(rhs),rhsMax =  -3.97626209886395E+01  1.67037422211840E+00
(PID.TID 0000.0001)  ploadbar=  1.01076509738117E+05
 cg2d: Sum(rhs),rhsMax =  -3.98270007933267E+01  1.66775061394218E+00
(PID.TID 0000.0001)  ploadbar=  1.01076121810408E+05
 cg2d: Sum(rhs),rhsMax =  -3.98890421093619E+01  1.66511913903469E+00
(PID.TID 0000.0001)  ploadbar=  1.01075733882698E+05
 cg2d: Sum(rhs),rhsMax =  -3.99485871185696E+01  1.66248361276325E+00
(PID.TID 0000.0001)  ploadbar=  1.01075345954989E+05
 cg2d: Sum(rhs),rhsMax =  -4.00081760403370E+01  1.65996384975626E+00
(PID.TID 0000.0001)  ploadbar=  1.01076294250372E+05
 cg2d: Sum(rhs),rhsMax =  -4.00692663369390E+01  1.65748856062425E+00
(PID.TID 0000.0001)  ploadbar=  1.01077242545756E+05
 cg2d: Sum(rhs),rhsMax =  -4.01330995849082E+01  1.65500290526974E+00
(PID.TID 0000.0001)  ploadbar=  1.01078190841139E+05
 cg2d: Sum(rhs),rhsMax =  -4.01993645079069E+01  1.65251601933350E+00
(PID.TID 0000.0001)  ploadbar=  1.01079139136523E+05
 cg2d: Sum(rhs),rhsMax =  -4.02678239354108E+01  1.65003655423018E+00
(PID.TID 0000.0001)  ploadbar=  1.01080087431906E+05
 cg2d: Sum(rhs),rhsMax =  -4.03384396772039E+01  1.64756581284151E+00
(PID.TID 0000.0001)  ploadbar=  1.01081035727290E+05
 cg2d: Sum(rhs),rhsMax =  -4.04081818518532E+01  1.64517241372953E+00
(PID.TID 0000.0001)  ploadbar=  1.01082014077240E+05
 cg2d: Sum(rhs),rhsMax =  -4.04773269992662E+01  1.64283514153047E+00
(PID.TID 0000.0001)  ploadbar=  1.01082992427189E+05
 cg2d: Sum(rhs),rhsMax =  -4.05463892357198E+01  1.64052395574343E+00
(PID.TID 0000.0001)  ploadbar=  1.01083970777139E+05
 cg2d: Sum(rhs),rhsMax =  -4.06160628183370E+01  1.63819909439871E+00
(PID.TID 0000.0001)  ploadbar=  1.01084949127089E+05
 cg2d: Sum(rhs),rhsMax =  -4.06864056620548E+01  1.63585533588323E+00
(PID.TID 0000.0001)  ploadbar=  1.01085927477039E+05
 cg2d: Sum(rhs),rhsMax =  -4.07571708046595E+01  1.63349797617829E+00
(PID.TID 0000.0001)  ploadbar=  1.01086905826989E+05
 cg2d: Sum(rhs),rhsMax =  -4.08294498919127E+01  1.63110566862952E+00
(PID.TID 0000.0001)  ploadbar=  1.01086620204680E+05
 cg2d: Sum(rhs),rhsMax =  -4.09017821867636E+01  1.62873205738043E+00
(PID.TID 0000.0001)  ploadbar=  1.01086334582372E+05
 cg2d: Sum(rhs),rhsMax =  -4.09740789100880E+01  1.62637786256023E+00
(PID.TID 0000.0001)  ploadbar=  1.01086048960063E+05
 cg2d: Sum(rhs),rhsMax =  -4.10466256018959E+01  1.62402743810407E+00
(PID.TID 0000.0001)  ploadbar=  1.01085763337754E+05
 cg2d: Sum(rhs),rhsMax =  -4.11198885909945E+01  1.62166045463272E+00
(PID.TID 0000.0001)  ploadbar=  1.01085477715446E+05
 cg2d: Sum(rhs),rhsMax =  -4.11938206167549E+01  1.61927100933620E+00
(PID.TID 0000.0001)  ploadbar=  1.01085192093137E+05
 cg2d: Sum(rhs),rhsMax =  -4.12698934191074E+01  1.61680273165522E+00
(PID.TID 0000.0001)  ploadbar=  1.01086126575123E+05
 cg2d: Sum(rhs),rhsMax =  -4.13476100406620E+01  1.61427020596799E+00
(PID.TID 0000.0001)  ploadbar=  1.01087061057110E+05
 cg2d: Sum(rhs),rhsMax =  -4.14252163250128E+01  1.61173687573469E+00
(PID.TID 0000.0001)  ploadbar=  1.01087995539096E+05
 cg2d: Sum(rhs),rhsMax =  -4.15013735277486E+01  1.60924664078964E+00
(PID.TID 0000.0001)  ploadbar=  1.01088930021082E+05
 cg2d: Sum(rhs),rhsMax =  -4.15760367333264E+01  1.60679554118762E+00
(PID.TID 0000.0001)  ploadbar=  1.01089864503069E+05
 cg2d: Sum(rhs),rhsMax =  -4.16492265611290E+01  1.60437908754801E+00
(PID.TID 0000.0001)  ploadbar=  1.01090798985055E+05
 cg2d: Sum(rhs),rhsMax =  -4.17261969748293E+01  1.60194225320410E+00
(PID.TID 0000.0001)  ploadbar=  1.01091077247148E+05
 cg2d: Sum(rhs),rhsMax =  -4.18067465495172E+01  1.59948477138994E+00
(PID.TID 0000.0001)  ploadbar=  1.01091355509240E+05
 cg2d: Sum(rhs),rhsMax =  -4.18900188876689E+01  1.59703885263751E+00
(PID.TID 0000.0001)  ploadbar=  1.01091633771333E+05
 cg2d: Sum(rhs),rhsMax =  -4.19752700559625E+01  1.59463190261948E+00
(PID.TID 0000.0001)  ploadbar=  1.01091912033426E+05
 cg2d: Sum(rhs),rhsMax =  -4.20621692191339E+01  1.59227335244858E+00
(PID.TID 0000.0001)  ploadbar=  1.01092190295518E+05
 cg2d: Sum(rhs),rhsMax =  -4.21509639690819E+01  1.58995037751776E+00
(PID.TID 0000.0001)  ploadbar=  1.01092468557611E+05
 cg2d: Sum(rhs),rhsMax =  -4.22374502801595E+01  1.58769813926601E+00
(PID.TID 0000.0001)  ploadbar=  1.01092830157831E+05
 cg2d: Sum(rhs),rhsMax =  -4.23226839375394E+01  1.58546846396168E+00
(PID.TID 0000.0001)  ploadbar=  1.01093191758051E+05
 cg2d: Sum(rhs),rhsMax =  -4.24063781071047E+01  1.58326493564951E+00
(PID.TID 0000.0001)  ploadbar=  1.01093553358271E+05
 cg2d: Sum(rhs),rhsMax =  -4.24884517674465E+01  1.58108796315362E+00
(PID.TID 0000.0001)  ploadbar=  1.01093914958491E+05
 cg2d: Sum(rhs),rhsMax =  -4.25688374203932E+01  1.57894021629671E+00
(PID.TID 0000.0001)  ploadbar=  1.01094276558711E+05
 cg2d: Sum(rhs),rhsMax =  -4.26473112663976E+01  1.57682778348652E+00
(PID.TID 0000.0001)  ploadbar=  1.01094638158931E+05
 cg2d: Sum(rhs),rhsMax =  -4.27269478445295E+01  1.57468866188267E+00
(PID.TID 0000.0001)  ploadbar=  1.01094290436834E+05
 cg2d: Sum(rhs),rhsMax =  -4.28059216086660E+01  1.57258538640944E+00
(PID.TID 0000.0001)  ploadbar=  1.01093942714737E+05
 cg2d: Sum(rhs),rhsMax =  -4.28837566190966E+01  1.57053624264099E+00
(PID.TID 0000.0001)  ploadbar=  1.01093594992640E+05
 cg2d: Sum(rhs),rhsMax =  -4.29617354719989E+01  1.56849229054277E+00
(PID.TID 0000.0001)  ploadbar=  1.01093247270543E+05
 cg2d: Sum(rhs),rhsMax =  -4.30401663532756E+01  1.56644399254528E+00
(PID.TID 0000.0001)  ploadbar=  1.01092899548446E+05
 cg2d: Sum(rhs),rhsMax =  -4.31189482310593E+01  1.56439506409164E+00
(PID.TID 0000.0001)  ploadbar=  1.01092551826349E+05
 cg2d: Sum(rhs),rhsMax =  -4.31973660956458E+01  1.56227836213968E+00
(PID.TID 0000.0001)  ploadbar=  1.01092167809785E+05
 cg2d: Sum(rhs),rhsMax =  -4.32757470272467E+01  1.56007568128600E+00
(PID.TID 0000.0001)  ploadbar=  1.01091783793220E+05
 cg2d: Sum(rhs),rhsMax =  -4.33514400400409E+01  1.55787892704734E+00
(PID.TID 0000.0001)  ploadbar=  1.01091399776655E+05
 cg2d: Sum(rhs),rhsMax =  -4.34227933705431E+01  1.55574332431123E+00
(PID.TID 0000.0001)  ploadbar=  1.01091015760090E+05
 cg2d: Sum(rhs),rhsMax =  -4.34886531199082E+01  1.55370538265793E+00
(PID.TID 0000.0001)  ploadbar=  1.01090631743525E+05
 cg2d: Sum(rhs),rhsMax =  -4.35486400058053E+01  1.55177819928770E+00
(PID.TID 0000.0001)  ploadbar=  1.01090247726960E+05
 cg2d: Sum(rhs),rhsMax =  -4.36090798966873E+01  1.54997503932933E+00
(PID.TID 0000.0001)  ploadbar=  1.01087484875857E+05
 cg2d: Sum(rhs),rhsMax =  -4.36726848393228E+01  1.54819166519127E+00
(PID.TID 0000.0001)  ploadbar=  1.01084722024753E+05
 cg2d: Sum(rhs),rhsMax =  -4.37373766796553E+01  1.54650228132157E+00
(PID.TID 0000.0001)  ploadbar=  1.01081959173649E+05
 cg2d: Sum(rhs),rhsMax =  -4.38033000566859E+01  1.54490266125958E+00
(PID.TID 0000.0001)  ploadbar=  1.01079196322546E+05
 cg2d: Sum(rhs),rhsMax =  -4.38711020162060E+01  1.54337135301060E+00
(PID.TID 0000.0001)  ploadbar=  1.01076433471442E+05
 cg2d: Sum(rhs),rhsMax =  -4.39402880620905E+01  1.54192153467975E+00
(PID.TID 0000.0001)  ploadbar=  1.01073670620339E+05
 cg2d: Sum(rhs),rhsMax =  -4.39946518780965E+01  1.54097475821563E+00
(PID.TID 0000.0001)  ploadbar=  1.01072372548199E+05
 cg2d: Sum(rhs),rhsMax =  -4.40431865536449E+01  1.54020853068147E+00
(PID.TID 0000.0001)  ploadbar=  1.01071074476059E+05
 cg2d: Sum(rhs),rhsMax =  -4.40827297008240E+01  1.53973211964063E+00
(PID.TID 0000.0001)  ploadbar=  1.01069776403919E+05
 cg2d: Sum(rhs),rhsMax =  -4.41103721629795E+01  1.53964467258924E+00
(PID.TID 0000.0001)  ploadbar=  1.01068478331779E+05
 cg2d: Sum(rhs),rhsMax =  -4.41267689654501E+01  1.53992233232093E+00
(PID.TID 0000.0001)  ploadbar=  1.01067180259639E+05
 cg2d: Sum(rhs),rhsMax =  -4.41348741569267E+01  1.54046353691644E+00
(PID.TID 0000.0001)  ploadbar=  1.01065882187499E+05
 cg2d: Sum(rhs),rhsMax =  -4.41306209748111E+01  1.54144961210334E+00
(PID.TID 0000.0001)  ploadbar=  1.01064831839690E+05
 cg2d: Sum(rhs),rhsMax =  -4.41237065065270E+01  1.54253816923572E+00
(PID.TID 0000.0001)  ploadbar=  1.01063781491880E+05
 cg2d: Sum(rhs),rhsMax =  -4.41231171722469E+01  1.54341846408942E+00
(PID.TID 0000.0001)  ploadbar=  1.01062731144071E+05
 cg2d: Sum(rhs),rhsMax =  -4.41369348364508E+01  1.54381499344961E+00
(PID.TID 0000.0001)  ploadbar=  1.01061680796262E+05
 cg2d: Sum(rhs),rhsMax =  -4.41698872236551E+01  1.54356438499734E+00
(PID.TID 0000.0001)  ploadbar=  1.01060630448452E+05
 cg2d: Sum(rhs),rhsMax =  -4.42204922019044E+01  1.54272856391020E+00
(PID.TID 0000.0001)  ploadbar=  1.01059580100643E+05
 cg2d: Sum(rhs),rhsMax =  -4.42646950648735E+01  1.54204943176951E+00
(PID.TID 0000.0001)  ploadbar=  1.01058288647696E+05
 cg2d: Sum(rhs),rhsMax =  -4.42918017191850E+01  1.54189518581711E+00
(PID.TID 0000.0001)  ploadbar=  1.01056997194750E+05
 cg2d: Sum(rhs),rhsMax =  -4.43068218516229E+01  1.54209022525855E+00
(PID.TID 0000.0001)  ploadbar=  1.01055705741803E+05
 cg2d: Sum(rhs),rhsMax =  -4.43115368944028E+01  1.54256847717523E+00
(PID.TID 0000.0001)  ploadbar=  1.01054414288856E+05
 cg2d: Sum(rhs),rhsMax =  -4.43093931484506E+01  1.54320962998825E+00
(PID.TID 0000.0001)  ploadbar=  1.01053122835910E+05
 cg2d: Sum(rhs),rhsMax =  -4.43045749470808E+01  1.54386924980894E+00
(PID.TID 0000.0001)  ploadbar=  1.01051831382963E+05
 cg2d: Sum(rhs),rhsMax =  -4.42959543693273E+01  1.54468250775732E+00
(PID.TID 0000.0001)  ploadbar=  1.01050410014458E+05
 cg2d: Sum(rhs),rhsMax =  -4.42797379345087E+01  1.54578220454707E+00
(PID.TID 0000.0001)  ploadbar=  1.01048988645952E+05
 cg2d: Sum(rhs),rhsMax =  -4.42725379885440E+01  1.54658999723729E+00
(PID.TID 0000.0001)  ploadbar=  1.01047567277446E+05
 cg2d: Sum(rhs),rhsMax =  -4.42443968752457E+01  1.54815594391407E+00
(PID.TID 0000.0001)  ploadbar=  1.01046145908941E+05
 cg2d: Sum(rhs),rhsMax =  -4.42006402385595E+01  1.55030070885292E+00
(PID.TID 0000.0001)  ploadbar=  1.01044724540435E+05
 cg2d: Sum(rhs),rhsMax =  -4.41465665177241E+01  1.55283781318108E+00
(PID.TID 0000.0001)  ploadbar=  1.01043303171930E+05
 cg2d: Sum(rhs),rhsMax =  -4.41001808971342E+01  1.55507386520421E+00
(PID.TID 0000.0001)  ploadbar=  1.01042169733065E+05
 cg2d: Sum(rhs),rhsMax =  -4.40453819911139E+01  1.55757116842059E+00
(PID.TID 0000.0001)  ploadbar=  1.01041036294200E+05
 cg2d: Sum(rhs),rhsMax =  -4.39850890198397E+01  1.56022617533897E+00
(PID.TID 0000.0001)  ploadbar=  1.01039902855335E+05
 cg2d: Sum(rhs),rhsMax =  -4.39240254138150E+01  1.56287038322267E+00
(PID.TID 0000.0001)  ploadbar=  1.01038769416470E+05
 cg2d: Sum(rhs),rhsMax =  -4.38615819326815E+01  1.56553083454703E+00
(PID.TID 0000.0001)  ploadbar=  1.01037635977605E+05
 cg2d: Sum(rhs),rhsMax =  -4.37980574453282E+01  1.56819575022534E+00
(PID.TID 0000.0001)  ploadbar=  1.01036502538740E+05
 cg2d: Sum(rhs),rhsMax =  -4.37438294743115E+01  1.57060485352958E+00
(PID.TID 0000.0001)  ploadbar=  1.01035921159873E+05
 cg2d: Sum(rhs),rhsMax =  -4.36971310737008E+01  1.57281889877898E+00
(PID.TID 0000.0001)  ploadbar=  1.01035339781006E+05
 cg2d: Sum(rhs),rhsMax =  -4.36577361622000E+01  1.57484796568145E+00
(PID.TID 0000.0001)  ploadbar=  1.01034758402139E+05
 cg2d: Sum(rhs),rhsMax =  -4.36264868741749E+01  1.57666484113903E+00
(PID.TID 0000.0001)  ploadbar=  1.01034177023272E+05
 cg2d: Sum(rhs),rhsMax =  -4.36045818903046E+01  1.57822528837558E+00
(PID.TID 0000.0001)  ploadbar=  1.01033595644405E+05
 cg2d: Sum(rhs),rhsMax =  -4.35924338993730E+01  1.57951687520080E+00
(PID.TID 0000.0001)  ploadbar=  1.01033014265538E+05
 cg2d: Sum(rhs),rhsMax =  -4.35966878597188E+01  1.58020503324704E+00
(PID.TID 0000.0001)  ploadbar=  1.01032437648681E+05
 cg2d: Sum(rhs),rhsMax =  -4.36134069586103E+01  1.58042907620812E+00
(PID.TID 0000.0001)  ploadbar=  1.01031861031825E+05
 cg2d: Sum(rhs),rhsMax =  -4.36387520032220E+01  1.58032652701198E+00
(PID.TID 0000.0001)  ploadbar=  1.01031284414968E+05
 cg2d: Sum(rhs),rhsMax =  -4.36723032680468E+01  1.57991016991090E+00
(PID.TID 0000.0001)  ploadbar=  1.01030707798112E+05
 cg2d: Sum(rhs),rhsMax =  -4.37119048624901E+01  1.57925270829294E+00
(PID.TID 0000.0001)  ploadbar=  1.01030131181255E+05
 cg2d: Sum(rhs),rhsMax =  -4.37581315680047E+01  1.57833559901122E+00
(PID.TID 0000.0001)  ploadbar=  1.01029554564399E+05
 cg2d: Sum(rhs),rhsMax =  -4.38091787441100E+01  1.57729226450247E+00
(PID.TID 0000.0001)  ploadbar=  1.01029717728708E+05
 cg2d: Sum(rhs),rhsMax =  -4.38699416037766E+01  1.57594604862358E+00
(PID.TID 0000.0001)  ploadbar=  1.01029880893018E+05
 cg2d: Sum(rhs),rhsMax =  -4.39336987949106E+01  1.57453978843970E+00
(PID.TID 0000.0001)  ploadbar=  1.01030044057328E+05
 cg2d: Sum(rhs),rhsMax =  -4.40002061694225E+01  1.57308739932070E+00
(PID.TID 0000.0001)  ploadbar=  1.01030207221638E+05
 cg2d: Sum(rhs),rhsMax =  -4.40703688182928E+01  1.57155855564248E+00
(PID.TID 0000.0001)  ploadbar=  1.01030370385948E+05
 cg2d: Sum(rhs),rhsMax =  -4.41444253591011E+01  1.56994163224185E+00
(PID.TID 0000.0001)  ploadbar=  1.01030533550258E+05
 cg2d: Sum(rhs),rhsMax =  -4.42123486110440E+01  1.56848182063228E+00
(PID.TID 0000.0001)  ploadbar=  1.01029995454329E+05
 cg2d: Sum(rhs),rhsMax =  -4.42822975039405E+01  1.56687734609965E+00
(PID.TID 0000.0001)  ploadbar=  1.01029457358401E+05
 cg2d: Sum(rhs),rhsMax =  -4.43531027972048E+01  1.56516511698698E+00
(PID.TID 0000.0001)  ploadbar=  1.01028919262472E+05
 cg2d: Sum(rhs),rhsMax =  -4.44240666721348E+01  1.56337065802370E+00
(PID.TID 0000.0001)  ploadbar=  1.01028381166544E+05
 cg2d: Sum(rhs),rhsMax =  -4.44951274715655E+01  1.56149892461042E+00
(PID.TID 0000.0001)  ploadbar=  1.01027843070615E+05
 cg2d: Sum(rhs),rhsMax =  -4.45654746157233E+01  1.55958056828730E+00
(PID.TID 0000.0001)  ploadbar=  1.01027304974687E+05
 cg2d: Sum(rhs),rhsMax =  -4.46328946620823E+01  1.55777397586789E+00
(PID.TID 0000.0001)  ploadbar=  1.01025997723040E+05
 cg2d: Sum(rhs),rhsMax =  -4.47001723616134E+01  1.55597992026878E+00
(PID.TID 0000.0001)  ploadbar=  1.01024690471393E+05
 cg2d: Sum(rhs),rhsMax =  -4.47691192551306E+01  1.55413745513414E+00
(PID.TID 0000.0001)  ploadbar=  1.01023383219745E+05
 cg2d: Sum(rhs),rhsMax =  -4.48394961398782E+01  1.55225555863303E+00
(PID.TID 0000.0001)  ploadbar=  1.01022075968098E+05
 cg2d: Sum(rhs),rhsMax =  -4.49111603122732E+01  1.55034071811881E+00
(PID.TID 0000.0001)  ploadbar=  1.01020768716451E+05
 cg2d: Sum(rhs),rhsMax =  -4.49843928095074E+01  1.54838738273660E+00
(PID.TID 0000.0001)  ploadbar=  1.01019461464804E+05
 cg2d: Sum(rhs),rhsMax =  -4.50528759603487E+01  1.54651216165657E+00
(PID.TID 0000.0001)  ploadbar=  1.01019433592891E+05
 cg2d: Sum(rhs),rhsMax =  -4.51186863768864E+01  1.54463822482657E+00
(PID.TID 0000.0001)  ploadbar=  1.01019405720978E+05
 cg2d: Sum(rhs),rhsMax =  -4.51839004017933E+01  1.54269088683856E+00
(PID.TID 0000.0001)  ploadbar=  1.01019377849066E+05
 cg2d: Sum(rhs),rhsMax =  -4.52486500192668E+01  1.54066074764269E+00
(PID.TID 0000.0001)  ploadbar=  1.01019349977153E+05
 cg2d: Sum(rhs),rhsMax =  -4.53127377265125E+01  1.53855155277904E+00
(PID.TID 0000.0001)  ploadbar=  1.01019322105240E+05
 cg2d: Sum(rhs),rhsMax =  -4.53765223989957E+01  1.53634810110209E+00
(PID.TID 0000.0001)  ploadbar=  1.01019294233327E+05
 cg2d: Sum(rhs),rhsMax =  -4.54494098094636E+01  1.53394257802736E+00
(PID.TID 0000.0001)  ploadbar=  1.01020232934041E+05
 cg2d: Sum(rhs),rhsMax =  -4.55287984845058E+01  1.53142074738197E+00
(PID.TID 0000.0001)  ploadbar=  1.01021171634755E+05
 cg2d: Sum(rhs),rhsMax =  -4.56202773469643E+01  1.52859865618974E+00
(PID.TID 0000.0001)  ploadbar=  1.01022110335469E+05
 cg2d: Sum(rhs),rhsMax =  -4.57245995185758E+01  1.52545506538256E+00
(PID.TID 0000.0001)  ploadbar=  1.01023049036182E+05
 cg2d: Sum(rhs),rhsMax =  -4.58417524191028E+01  1.52199508375459E+00
(PID.TID 0000.0001)  ploadbar=  1.01023987736896E+05
 cg2d: Sum(rhs),rhsMax =  -4.59720885299915E+01  1.51820874950629E+00
(PID.TID 0000.0001)  ploadbar=  1.01024926437610E+05
 cg2d: Sum(rhs),rhsMax =  -4.61136670523735E+01  1.51407792125002E+00
(PID.TID 0000.0001)  ploadbar=  1.01026031060063E+05
 cg2d: Sum(rhs),rhsMax =  -4.62622040765900E+01  1.50973805769927E+00
(PID.TID 0000.0001)  ploadbar=  1.01027135682516E+05
 cg2d: Sum(rhs),rhsMax =  -4.64194496294597E+01  1.50513458673383E+00
(PID.TID 0000.0001)  ploadbar=  1.01028240304969E+05
 cg2d: Sum(rhs),rhsMax =  -4.65848056759876E+01  1.50028960126244E+00
(PID.TID 0000.0001)  ploadbar=  1.01029344927421E+05
 cg2d: Sum(rhs),rhsMax =  -4.67578022296962E+01  1.49522199554500E+00
(PID.TID 0000.0001)  ploadbar=  1.01030449549874E+05
 cg2d: Sum(rhs),rhsMax =  -4.69396625122967E+01  1.48990140973601E+00
(PID.TID 0000.0001)  ploadbar=  1.01031554172327E+05
 cg2d: Sum(rhs),rhsMax =  -4.71412398971170E+01  1.48400515465049E+00
(PID.TID 0000.0001)  ploadbar=  1.01033153068061E+05
 cg2d: Sum(rhs),rhsMax =  -4.73548916050951E+01  1.47777880942980E+00
(PID.TID 0000.0001)  ploadbar=  1.01034751963794E+05
 cg2d: Sum(rhs),rhsMax =  -4.75716936434312E+01  1.47150358669906E+00
(PID.TID 0000.0001)  ploadbar=  1.01036350859527E+05
 cg2d: Sum(rhs),rhsMax =  -4.77903190844199E+01  1.46521930227280E+00
(PID.TID 0000.0001)  ploadbar=  1.01037949755261E+05
 cg2d: Sum(rhs),rhsMax =  -4.80087842507765E+01  1.45898687078485E+00
(PID.TID 0000.0001)  ploadbar=  1.01039548650994E+05
 cg2d: Sum(rhs),rhsMax =  -4.82247172621383E+01  1.45287320907760E+00
(PID.TID 0000.0001)  ploadbar=  1.01041147546727E+05
 cg2d: Sum(rhs),rhsMax =  -4.84163118156105E+01  1.44748283944065E+00
(PID.TID 0000.0001)  ploadbar=  1.01042675117581E+05
 cg2d: Sum(rhs),rhsMax =  -4.85956721758022E+01  1.44243086899054E+00
(PID.TID 0000.0001)  ploadbar=  1.01044202688434E+05
 cg2d: Sum(rhs),rhsMax =  -4.87570031522171E+01  1.43787889237325E+00
(PID.TID 0000.0001)  ploadbar=  1.01045730259287E+05
 cg2d: Sum(rhs),rhsMax =  -4.88994790541679E+01  1.43383270639455E+00
(PID.TID 0000.0001)  ploadbar=  1.01047257830141E+05
 cg2d: Sum(rhs),rhsMax =  -4.90275660199471E+01  1.43014488061070E+00
(PID.TID 0000.0001)  ploadbar=  1.01048785400994E+05
 cg2d: Sum(rhs),rhsMax =  -4.91438899838351E+01  1.42672612641040E+00
(PID.TID 0000.0001)  ploadbar=  1.01050312971847E+05
 cg2d: Sum(rhs),rhsMax =  -4.92695806319716E+01  1.42309934272134E+00
(PID.TID 0000.0001)  ploadbar=  1.01052441550712E+05
 cg2d: Sum(rhs),rhsMax =  -4.94038261346750E+01  1.41928445582608E+00
(PID.TID 0000.0001)  ploadbar=  1.01054570129577E+05
 cg2d: Sum(rhs),rhsMax =  -4.95473941544881E+01  1.41525697473910E+00
(PID.TID 0000.0001)  ploadbar=  1.01056698708442E+05
 cg2d: Sum(rhs),rhsMax =  -4.96977181750438E+01  1.41108635289413E+00
(PID.TID 0000.0001)  ploadbar=  1.01058827287307E+05
 cg2d: Sum(rhs),rhsMax =  -4.98540478334590E+01  1.40678938724676E+00
(PID.TID 0000.0001)  ploadbar=  1.01060955866172E+05
 cg2d: Sum(rhs),rhsMax =  -5.00150790882970E+01  1.40239995043613E+00
(PID.TID 0000.0001)  ploadbar=  1.01063084445038E+05
 cg2d: Sum(rhs),rhsMax =  -5.01692587861521E+01  1.39826336370206E+00
(PID.TID 0000.0001)  ploadbar=  1.01064346764520E+05
 cg2d: Sum(rhs),rhsMax =  -5.03204548112193E+01  1.39426234674854E+00
(PID.TID 0000.0001)  ploadbar=  1.01065609084003E+05
 cg2d: Sum(rhs),rhsMax =  -5.04714425902038E+01  1.39031183866324E+00
(PID.TID 0000.0001)  ploadbar=  1.01066871403486E+05
 cg2d: Sum(rhs),rhsMax =  -5.06209527587138E+01  1.38644041541209E+00
(PID.TID 0000.0001)  ploadbar=  1.01068133722968E+05
 cg2d: Sum(rhs),rhsMax =  -5.07716904920472E+01  1.38257070660498E+00
(PID.TID 0000.0001)  ploadbar=  1.01069396042451E+05
 cg2d: Sum(rhs),rhsMax =  -5.09237517889573E+01  1.37869685733473E+00
(PID.TID 0000.0001)  ploadbar=  1.01070658361934E+05
 cg2d: Sum(rhs),rhsMax =  -5.10932652614379E+01  1.37439646518947E+00
(PID.TID 0000.0001)  ploadbar=  1.01071753268818E+05
 cg2d: Sum(rhs),rhsMax =  -5.12657566271093E+01  1.37005669211661E+00
(PID.TID 0000.0001)  ploadbar=  1.01072848175702E+05
 cg2d: Sum(rhs),rhsMax =  -5.14431386806133E+01  1.36562259846766E+00
(PID.TID 0000.0001)  ploadbar=  1.01073943082586E+05
 cg2d: Sum(rhs),rhsMax =  -5.16235818689081E+01  1.36113964479277E+00
(PID.TID 0000.0001)  ploadbar=  1.01075037989469E+05
 cg2d: Sum(rhs),rhsMax =  -5.18032056857106E+01  1.35670560986113E+00
(PID.TID 0000.0001)  ploadbar=  1.01076132896353E+05
 cg2d: Sum(rhs),rhsMax =  -5.19807571642292E+01  1.35234933342819E+00
(PID.TID 0000.0001)  ploadbar=  1.01077227803237E+05
 cg2d: Sum(rhs),rhsMax =  -5.21576119351146E+01  1.34801956486268E+00
(PID.TID 0000.0001)  ploadbar=  1.01077961329228E+05
 cg2d: Sum(rhs),rhsMax =  -5.23237638641075E+01  1.34397032179452E+00
(PID.TID 0000.0001)  ploadbar=  1.01078694855220E+05
 cg2d: Sum(rhs),rhsMax =  -5.24747826133373E+01  1.34030448187864E+00
(PID.TID 0000.0001)  ploadbar=  1.01079428381211E+05
 cg2d: Sum(rhs),rhsMax =  -5.26092565392376E+01  1.33704483975529E+00
(PID.TID 0000.0001)  ploadbar=  1.01080161907202E+05
 cg2d: Sum(rhs),rhsMax =  -5.27201993598825E+01  1.33435532385607E+00
(PID.TID 0000.0001)  ploadbar=  1.01080895433193E+05
 cg2d: Sum(rhs),rhsMax =  -5.28047211712399E+01  1.33229815046027E+00
(PID.TID 0000.0001)  ploadbar=  1.01081628959184E+05
 cg2d: Sum(rhs),rhsMax =  -5.28741002534932E+01  1.33072732813695E+00
(PID.TID 0000.0001)  ploadbar=  1.01082478472604E+05
 cg2d: Sum(rhs),rhsMax =  -5.29497746116267E+01  1.32909692149847E+00
(PID.TID 0000.0001)  ploadbar=  1.01083327986023E+05
 cg2d: Sum(rhs),rhsMax =  -5.30284178732854E+01  1.32748674630282E+00
(PID.TID 0000.0001)  ploadbar=  1.01084177499442E+05
 cg2d: Sum(rhs),rhsMax =  -5.31108096736738E+01  1.32587398593973E+00
(PID.TID 0000.0001)  ploadbar=  1.01085027012862E+05
 cg2d: Sum(rhs),rhsMax =  -5.32028501041068E+01  1.32410849088956E+00
(PID.TID 0000.0001)  ploadbar=  1.01085876526281E+05
 cg2d: Sum(rhs),rhsMax =  -5.33084411756471E+01  1.32208938676624E+00
(PID.TID 0000.0001)  ploadbar=  1.01086726039700E+05
 cg2d: Sum(rhs),rhsMax =  -5.34198406135725E+01  1.31994224912160E+00
(PID.TID 0000.0001)  ploadbar=  1.01087502067398E+05
 cg2d: Sum(rhs),rhsMax =  -5.35628965165957E+01  1.31702267637008E+00
(PID.TID 0000.0001)      cg2d_init_res =   2.58184728417783E-01
(PID.TID 0000.0001)      cg2d_iters(min,last) =      -1     142
(PID.TID 0000.0001)      cg2d_last_res =   9.75267213664249E-08
(PID.TID 0000.0001) // =======================================================
(PID.TID 0000.0001) // Begin MONITOR dynamic field statistics
(PID.TID 0000.0001) // =======================================================
(PID.TID 0000.0001) %MON time_tsnumber                =                  3504
(PID.TID 0000.0001) %MON time_secondsf                =   1.2614400000000E+07
(PID.TID 0000.0001) %MON dynstat_eta_max              =   1.1087753383732E+00
(PID.TID 0000.0001) %MON dynstat_eta_min              =  -5.5362757417993E+00
(PID.TID 0000.0001) %MON dynstat_eta_mean             =   3.5704284260464E-02
(PID.TID 0000.0001) %MON dynstat_eta_sd               =   7.6152996689437E-01
(PID.TID 0000.0001) %MON dynstat_eta_del2             =   2.0467460650991E-04
(PID.TID 0000.0001) %MON dynstat_uvel_max             =   1.2342762438383E+00
(PID.TID 0000.0001) %MON dynstat_uvel_min             =  -8.9288920607570E-01
(PID.TID 0000.0001) %MON dynstat_uvel_mean            =   1.4083630513398E-03
(PID.TID 0000.0001) %MON dynstat_uvel_sd              =   2.1136743835850E-02
(PID.TID 0000.0001) %MON dynstat_uvel_del2            =   8.2042365390772E-06
(PID.TID 0000.0001) %MON dynstat_vvel_max             =   7.8299127388791E-01
(PID.TID 0000.0001) %MON dynstat_vvel_min             =  -9.8602837740719E-01
(PID.TID 0000.0001) %MON dynstat_vvel_mean            =   8.4712408491125E-04
(PID.TID 0000.0001) %MON dynstat_vvel_sd              =   2.1138364511481E-02
(PID.TID 0000.0001) %MON dynstat_vvel_del2            =   8.4251104570015E-06
(PID.TID 0000.0001) %MON dynstat_wvel_max             =   5.8518593720006E-04
(PID.TID 0000.0001) %MON dynstat_wvel_min             =  -8.3608275669876E-04
(PID.TID 0000.0001) %MON dynstat_wvel_mean            =  -8.4389186616171E-09
(PID.TID 0000.0001) %MON dynstat_wvel_sd              =   2.2190843166348E-05
(PID.TID 0000.0001) %MON dynstat_wvel_del2            =   1.6453417115867E-08
(PID.TID 0000.0001) %MON dynstat_theta_max            =   3.2118782779183E+01
(PID.TID 0000.0001) %MON dynstat_theta_min            =  -2.1144846594963E+00
(PID.TID 0000.0001) %MON dynstat_theta_mean           =   3.5857029507551E+00
(PID.TID 0000.0001) %MON dynstat_theta_sd             =   4.4435510087809E+00
(PID.TID 0000.0001) %MON dynstat_theta_del2           =   8.4036859273572E-05
(PID.TID 0000.0001) %MON dynstat_salt_max             =   4.0641907164619E+01
(PID.TID 0000.0001) %MON dynstat_salt_min             =   2.3212857383103E+01
(PID.TID 0000.0001) %MON dynstat_salt_mean            =   3.4727297827354E+01
(PID.TID 0000.0001) %MON dynstat_salt_sd              =   3.7704570307978E-01
(PID.TID 0000.0001) %MON dynstat_salt_del2            =   1.8725915607921E-05
(PID.TID 0000.0001) %MON dynstat_sst_max              =   3.2100100663603E+01
(PID.TID 0000.0001) %MON dynstat_sst_min              =  -1.9608847090604E+00
(PID.TID 0000.0001) %MON dynstat_sst_mean             =   1.8223435333746E+01
(PID.TID 0000.0001) %MON dynstat_sst_sd               =   1.0421514844159E+01
(PID.TID 0000.0001) %MON dynstat_sst_del2             =   6.4515273111015E-04
(PID.TID 0000.0001) %MON dynstat_sss_max              =   3.9994134474864E+01
(PID.TID 0000.0001) %MON dynstat_sss_min              =   2.3212857383103E+01
(PID.TID 0000.0001) %MON dynstat_sss_mean             =   3.4745988691353E+01
(PID.TID 0000.0001) %MON dynstat_sss_sd               =   1.1732469318281E+00
(PID.TID 0000.0001) %MON dynstat_sss_del2             =   3.0601534951373E-04
(PID.TID 0000.0001) %MON forcing_qnet_max             =   7.2743266220695E+02
(PID.TID 0000.0001) %MON forcing_qnet_min             =  -5.7879601052570E+02
(PID.TID 0000.0001) %MON forcing_qnet_mean            =   3.6388343152722E+01
(PID.TID 0000.0001) %MON forcing_qnet_sd              =   1.6223743167819E+02
(PID.TID 0000.0001) %MON forcing_qnet_del2            =   9.3943097133543E-02
(PID.TID 0000.0001) %MON forcing_qsw_max              =   4.1153482476635E+01
(PID.TID 0000.0001) %MON forcing_qsw_min              =  -7.0969266628829E+02
(PID.TID 0000.0001) %MON forcing_qsw_mean             =  -1.1735107963242E+02
(PID.TID 0000.0001) %MON forcing_qsw_sd               =   1.4746644803559E+02
(PID.TID 0000.0001) %MON forcing_qsw_del2             =   5.5463310026876E-02
(PID.TID 0000.0001) %MON forcing_empmr_max            =   1.8849589877094E-03
(PID.TID 0000.0001) %MON forcing_empmr_min            =  -3.2062395472274E-03
(PID.TID 0000.0001) %MON forcing_empmr_mean           =  -4.6937551115265E-06
(PID.TID 0000.0001) %MON forcing_empmr_sd             =   9.4322490926665E-05
(PID.TID 0000.0001) %MON forcing_empmr_del2           =   2.7189014570826E-07
(PID.TID 0000.0001) %MON forcing_fu_max               =   1.0205816626549E+00
(PID.TID 0000.0001) %MON forcing_fu_min               =  -8.4115966808067E-01
(PID.TID 0000.0001) %MON forcing_fu_mean              =   1.4137751680257E-02
(PID.TID 0000.0001) %MON forcing_fu_sd                =   1.3792640706432E-01
(PID.TID 0000.0001) %MON forcing_fu_del2              =   7.4026890748640E-05
(PID.TID 0000.0001) %MON forcing_fv_max               =   7.0984997197324E-01
(PID.TID 0000.0001) %MON forcing_fv_min               =  -8.9565955138812E-01
(PID.TID 0000.0001) %MON forcing_fv_mean              =   5.5626455201008E-04
(PID.TID 0000.0001) %MON forcing_fv_sd                =   1.0077860980754E-01
(PID.TID 0000.0001) %MON forcing_fv_del2              =   6.2508952545294E-05
(PID.TID 0000.0001) %MON trAdv_CFL_u_max              =   5.3662242056992E-02
(PID.TID 0000.0001) %MON trAdv_CFL_v_max              =   5.8538451810645E-02
(PID.TID 0000.0001) %MON trAdv_CFL_w_max              =   1.2442733912827E-01
(PID.TID 0000.0001) %MON advcfl_uvel_max              =   4.6822846107301E-02
(PID.TID 0000.0001) %MON advcfl_vvel_max              =   6.1740085286375E-02
(PID.TID 0000.0001) %MON advcfl_wvel_max              =   1.2795706634643E-01
(PID.TID 0000.0001) %MON advcfl_W_hf_max              =   1.2903537250032E-01
(PID.TID 0000.0001) %MON pe_b_mean                    =   1.2901400790699E-03
(PID.TID 0000.0001) %MON ke_max                       =   8.0889732457732E-01
(PID.TID 0000.0001) %MON ke_mean                      =   4.3218455700097E-04
(PID.TID 0000.0001) %MON ke_vol                       =   1.3350106536889E+18
(PID.TID 0000.0001) %MON vort_r_min                   =  -1.1407674320960E-05
(PID.TID 0000.0001) %MON vort_r_max                   =   2.2508369397300E-05
(PID.TID 0000.0001) %MON vort_a_mean                  =  -1.9727864647440E-05
(PID.TID 0000.0001) %MON vort_a_sd                    =   7.4543000120516E-05
(PID.TID 0000.0001) %MON vort_p_mean                  =  -2.1760305866530E-05
(PID.TID 0000.0001) %MON vort_p_sd                    =   9.7245064527092E-05
(PID.TID 0000.0001) %MON surfExpan_theta_mean         =  -1.5625848251801E-07
(PID.TID 0000.0001) %MON surfExpan_salt_mean          =   1.2609297953297E-08
(PID.TID 0000.0001) // =======================================================
(PID.TID 0000.0001) // End MONITOR dynamic field statistics
(PID.TID 0000.0001) // =======================================================
(PID.TID 0000.0001)  ploadbar=  1.01088278095097E+05
(PID.TID 0000.0001) %SBO sbo_mass                     =   1.3737549499061E+21
(PID.TID 0000.0001) %SBO sbo_mass_fw                  =   4.2134535596299E+16
(PID.TID 0000.0001) %SBO sbo_zoamc                    =   9.6899114985787E+24
(PID.TID 0000.0001) %SBO sbo_zoamp                    =   2.9276559868090E+30
(PID.TID 0000.0001) // =======================================================
(PID.TID 0000.0001) // Begin MONITOR SEAICE statistics
(PID.TID 0000.0001) // =======================================================
(PID.TID 0000.0001) %MON seaice_tsnumber              =                  3504
(PID.TID 0000.0001) %MON seaice_time_sec              =   1.2614400000000E+07
(PID.TID 0000.0001) %MON seaice_uice_max              =   4.0000000000000E-01
(PID.TID 0000.0001) %MON seaice_uice_min              =  -4.0000000000000E-01
(PID.TID 0000.0001) %MON seaice_uice_mean             =   1.3482986909764E-03
(PID.TID 0000.0001) %MON seaice_uice_sd               =   1.7385677338796E-01
(PID.TID 0000.0001) %MON seaice_uice_del2             =   1.3559032448558E-04
(PID.TID 0000.0001) %MON seaice_vice_max              =   4.0000000000000E-01
(PID.TID 0000.0001) %MON seaice_vice_min              =  -4.0000000000000E-01
(PID.TID 0000.0001) %MON seaice_vice_mean             =  -1.3646014876165E-02
(PID.TID 0000.0001) %MON seaice_vice_sd               =   1.7203184259477E-01
(PID.TID 0000.0001) %MON seaice_vice_del2             =   1.3397766273534E-04
(PID.TID 0000.0001) %MON seaice_area_max              =   9.7000000000000E-01
(PID.TID 0000.0001) %MON seaice_area_min              =   0.0000000000000E+00
(PID.TID 0000.0001) %MON seaice_area_mean             =   6.3455403510088E-02
(PID.TID 0000.0001) %MON seaice_area_sd               =   2.2855577985831E-01
(PID.TID 0000.0001) %MON seaice_area_del2             =   2.2105534303977E-04
(PID.TID 0000.0001) %MON seaice_heff_max              =   5.4855017972097E+00
(PID.TID 0000.0001) %MON seaice_heff_min              =   0.0000000000000E+00
(PID.TID 0000.0001) %MON seaice_heff_mean             =   8.4940848474176E-02
(PID.TID 0000.0001) %MON seaice_heff_sd               =   4.0116187595840E-01
(PID.TID 0000.0001) %MON seaice_heff_del2             =   2.1514706119042E-04
(PID.TID 0000.0001) %MON seaice_hsnow_max             =   1.0185144805194E+00
(PID.TID 0000.0001) %MON seaice_hsnow_min             =  -7.7306993617746E-05
(PID.TID 0000.0001) %MON seaice_hsnow_mean            =   1.1072109545847E-02
(PID.TID 0000.0001) %MON seaice_hsnow_sd              =   5.4345237488355E-02
(PID.TID 0000.0001) %MON seaice_hsnow_del2            =   4.4722232108971E-05
(PID.TID 0000.0001) // =======================================================
(PID.TID 0000.0001) // End MONITOR SEAICE statistics
(PID.TID 0000.0001) // =======================================================
(PID.TID 0000.0001) // =======================================================
(PID.TID 0000.0001) // Begin MONITOR EXF statistics
(PID.TID 0000.0001) // =======================================================
(PID.TID 0000.0001) %MON exf_tsnumber                 =                  3504
(PID.TID 0000.0001) %MON exf_time_sec                 =   1.2614400000000E+07
(PID.TID 0000.0001) %MON exf_ustress_max              =   1.0689419507980E+00
(PID.TID 0000.0001) %MON exf_ustress_min              =  -9.7425293922424E-01
(PID.TID 0000.0001) %MON exf_ustress_mean             =   1.3479582094127E-02
(PID.TID 0000.0001) %MON exf_ustress_sd               =   1.3757625812486E-01
(PID.TID 0000.0001) %MON exf_ustress_del2             =   8.3301926847449E-05
(PID.TID 0000.0001) %MON exf_vstress_max              =   9.1810378432274E-01
(PID.TID 0000.0001) %MON exf_vstress_min              =  -9.6884948015213E-01
(PID.TID 0000.0001) %MON exf_vstress_mean             =   6.4878148788062E-04
(PID.TID 0000.0001) %MON exf_vstress_sd               =   1.0014277228988E-01
(PID.TID 0000.0001) %MON exf_vstress_del2             =   6.8436375280729E-05
(PID.TID 0000.0001) %MON exf_hflux_max                =   1.1233380519559E+03
(PID.TID 0000.0001) %MON exf_hflux_min                =  -5.5457009752349E+02
(PID.TID 0000.0001) %MON exf_hflux_mean               =   3.6990334094751E+01
(PID.TID 0000.0001) %MON exf_hflux_sd                 =   1.8163197863894E+02
(PID.TID 0000.0001) %MON exf_hflux_del2               =   3.5516535348868E-01
(PID.TID 0000.0001) %MON exf_sflux_max                =   1.8753512102461E-07
(PID.TID 0000.0001) %MON exf_sflux_min                =  -3.1903483160570E-06
(PID.TID 0000.0001) %MON exf_sflux_mean               =  -2.8791192339546E-09
(PID.TID 0000.0001) %MON exf_sflux_sd                 =   8.2360398106513E-08
(PID.TID 0000.0001) %MON exf_sflux_del2               =   2.1604411555629E-10
(PID.TID 0000.0001) %MON exf_wspeed_max               =   2.1747757911682E+01
(PID.TID 0000.0001) %MON exf_wspeed_min               =   4.5171645283699E-01
(PID.TID 0000.0001) %MON exf_wspeed_mean              =   6.9145142769840E+00
(PID.TID 0000.0001) %MON exf_wspeed_sd                =   3.3907369120128E+00
(PID.TID 0000.0001) %MON exf_wspeed_del2              =   1.4522613430168E-02
(PID.TID 0000.0001) %MON exf_atemp_max                =   3.1031335487366E+02
(PID.TID 0000.0001) %MON exf_atemp_min                =   2.2812844123840E+02
(PID.TID 0000.0001) %MON exf_atemp_mean               =   2.8969302668465E+02
(PID.TID 0000.0001) %MON exf_atemp_sd                 =   1.1379368631382E+01
(PID.TID 0000.0001) %MON exf_atemp_del2               =   3.0073319075283E-02
(PID.TID 0000.0001) %MON exf_aqh_max                  =   2.2745097987354E-02
(PID.TID 0000.0001) %MON exf_aqh_min                  =   3.8203865187825E-05
(PID.TID 0000.0001) %MON exf_aqh_mean                 =   1.1070233996496E-02
(PID.TID 0000.0001) %MON exf_aqh_sd                   =   5.7188517777648E-03
(PID.TID 0000.0001) %MON exf_aqh_del2                 =   1.8316359384030E-05
(PID.TID 0000.0001) %MON exf_lwflux_max               =   2.0311108879106E+02
(PID.TID 0000.0001) %MON exf_lwflux_min               =  -4.5553159646780E+01
(PID.TID 0000.0001) %MON exf_lwflux_mean              =   4.4201027461765E+01
(PID.TID 0000.0001) %MON exf_lwflux_sd                =   2.3979116224949E+01
(PID.TID 0000.0001) %MON exf_lwflux_del2              =   9.5254681797139E-02
(PID.TID 0000.0001) %MON exf_evap_max                 =   2.1094453219749E-07
(PID.TID 0000.0001) %MON exf_evap_min                 =  -3.6056636274876E-08
(PID.TID 0000.0001) %MON exf_evap_mean                =   4.0535014711001E-08
(PID.TID 0000.0001) %MON exf_evap_sd                  =   2.7392156320511E-08
(PID.TID 0000.0001) %MON exf_evap_del2                =   7.6379242256366E-11
(PID.TID 0000.0001) %MON exf_precip_max               =   1.1666218675543E-06
(PID.TID 0000.0001) %MON exf_precip_min               =  -2.8915873251378E-08
(PID.TID 0000.0001) %MON exf_precip_mean              =   3.8762863071012E-08
(PID.TID 0000.0001) %MON exf_precip_sd                =   6.4522070156089E-08
(PID.TID 0000.0001) %MON exf_precip_del2              =   1.8424014801124E-10
(PID.TID 0000.0001) %MON exf_swflux_max               =   4.6561129760742E+01
(PID.TID 0000.0001) %MON exf_swflux_min               =  -6.1722453062445E+02
(PID.TID 0000.0001) %MON exf_swflux_mean              =  -1.2904225836271E+02
(PID.TID 0000.0001) %MON exf_swflux_sd                =   1.5171333457640E+02
(PID.TID 0000.0001) %MON exf_swflux_del2              =   3.3529876295727E-01
(PID.TID 0000.0001) %MON exf_swdown_max               =   6.7127566528320E+02
(PID.TID 0000.0001) %MON exf_swdown_min               =  -6.6515899658203E+01
(PID.TID 0000.0001) %MON exf_swdown_mean              =   1.4033617899137E+02
(PID.TID 0000.0001) %MON exf_swdown_sd                =   1.6419588575056E+02
(PID.TID 0000.0001) %MON exf_swdown_del2              =   3.6522691430982E-01
(PID.TID 0000.0001) %MON exf_lwdown_max               =   4.6666184997559E+02
(PID.TID 0000.0001) %MON exf_lwdown_min               =   9.7291194915771E+01
(PID.TID 0000.0001) %MON exf_lwdown_mean              =   3.6620146414850E+02
(PID.TID 0000.0001) %MON exf_lwdown_sd                =   5.9842911143372E+01
(PID.TID 0000.0001) %MON exf_lwdown_del2              =   6.0730161717854E-01
(PID.TID 0000.0001) %MON exf_apressure_max            =   1.0380930078125E+05
(PID.TID 0000.0001) %MON exf_apressure_min            =   9.5583203125000E+04
(PID.TID 0000.0001) %MON exf_apressure_mean           =   1.0108905412279E+05
(PID.TID 0000.0001) %MON exf_apressure_sd             =   1.0670048925677E+03
(PID.TID 0000.0001) %MON exf_apressure_del2           =   1.7855445099502E+02
(PID.TID 0000.0001) %MON exf_runoff_max               =   3.1856565641885E-06
(PID.TID 0000.0001) %MON exf_runoff_min               =   0.0000000000000E+00
(PID.TID 0000.0001) %MON exf_runoff_mean              =   4.6512708739432E-09
(PID.TID 0000.0001) %MON exf_runoff_sd                =   4.0722969529259E-08
(PID.TID 0000.0001) %MON exf_runoff_del2              =   1.1720562990364E-10
(PID.TID 0000.0001) // =======================================================
(PID.TID 0000.0001) // End MONITOR EXF statistics
(PID.TID 0000.0001) // =======================================================
 cg2d: Sum(rhs),rhsMax =  -5.37344277699360E+01  1.31341435075718E+00
(PID.TID 0000.0001)  ploadbar=  1.01089054122795E+05
 cg2d: Sum(rhs),rhsMax =  -5.39282726570147E+01  1.30927851906266E+00
(PID.TID 0000.0001)  ploadbar=  1.01089830150493E+05
 cg2d: Sum(rhs),rhsMax =  -5.41360526285443E+01  1.30482807420156E+00
(PID.TID 0000.0001)  ploadbar=  1.01090606178191E+05
 cg2d: Sum(rhs),rhsMax =  -5.43478970464858E+01  1.30031012507533E+00
(PID.TID 0000.0001)  ploadbar=  1.01091382205890E+05
 cg2d: Sum(rhs),rhsMax =  -5.45362435501522E+01  1.29640600364044E+00
(PID.TID 0000.0001)  ploadbar=  1.01091783353874E+05
 cg2d: Sum(rhs),rhsMax =  -5.47142874597784E+01  1.29278202346730E+00
(PID.TID 0000.0001)  ploadbar=  1.01092184501859E+05
 cg2d: Sum(rhs),rhsMax =  -5.48821716666221E+01  1.28942887395781E+00
(PID.TID 0000.0001)  ploadbar=  1.01092585649844E+05
 cg2d: Sum(rhs),rhsMax =  -5.50335848911049E+01  1.28648607249329E+00
(PID.TID 0000.0001)  ploadbar=  1.01092986797828E+05
 cg2d: Sum(rhs),rhsMax =  -5.51655939197924E+01  1.28401644650047E+00
(PID.TID 0000.0001)  ploadbar=  1.01093387945813E+05
 cg2d: Sum(rhs),rhsMax =  -5.52778266729088E+01  1.28202614178627E+00
(PID.TID 0000.0001)  ploadbar=  1.01093789093798E+05
 cg2d: Sum(rhs),rhsMax =  -5.53821478326755E+01  1.28018047991613E+00
(PID.TID 0000.0001)  ploadbar=  1.01093885995982E+05
 cg2d: Sum(rhs),rhsMax =  -5.54575273351344E+01  1.27895404579322E+00
(PID.TID 0000.0001)  ploadbar=  1.01093982898167E+05
 cg2d: Sum(rhs),rhsMax =  -5.55140577224382E+01  1.27810767800944E+00
(PID.TID 0000.0001)  ploadbar=  1.01094079800352E+05
 cg2d: Sum(rhs),rhsMax =  -5.55547729127640E+01  1.27756854733514E+00
(PID.TID 0000.0001)  ploadbar=  1.01094176702536E+05
 cg2d: Sum(rhs),rhsMax =  -5.55814669814722E+01  1.27728972917729E+00
(PID.TID 0000.0001)  ploadbar=  1.01094273604721E+05
 cg2d: Sum(rhs),rhsMax =  -5.55976747203331E+01  1.27718311453496E+00
(PID.TID 0000.0001)  ploadbar=  1.01094370506905E+05
 cg2d: Sum(rhs),rhsMax =  -5.56220341947695E+01  1.27698465451067E+00
(PID.TID 0000.0001)  ploadbar=  1.01093443163608E+05
 cg2d: Sum(rhs),rhsMax =  -5.56420023407832E+01  1.27698097415005E+00
(PID.TID 0000.0001)  ploadbar=  1.01092515820310E+05
 cg2d: Sum(rhs),rhsMax =  -5.56511473071626E+01  1.27732051837426E+00
(PID.TID 0000.0001)  ploadbar=  1.01091588477012E+05
 cg2d: Sum(rhs),rhsMax =  -5.56596525421456E+01  1.27776781914331E+00
(PID.TID 0000.0001)  ploadbar=  1.01090661133714E+05
 cg2d: Sum(rhs),rhsMax =  -5.56681191776783E+01  1.27830615707889E+00
(PID.TID 0000.0001)  ploadbar=  1.01089733790417E+05
 cg2d: Sum(rhs),rhsMax =  -5.56757350610389E+01  1.27895001623526E+00
(PID.TID 0000.0001)  ploadbar=  1.01088806447119E+05
 cg2d: Sum(rhs),rhsMax =  -5.56850541237053E+01  1.27953306373498E+00
(PID.TID 0000.0001)  ploadbar=  1.01088859504385E+05
 cg2d: Sum(rhs),rhsMax =  -5.57017716703766E+01  1.27991947702676E+00
(PID.TID 0000.0001)  ploadbar=  1.01088912561651E+05
 cg2d: Sum(rhs),rhsMax =  -5.57304741452701E+01  1.28000451336866E+00
(PID.TID 0000.0001)  ploadbar=  1.01088965618917E+05
 cg2d: Sum(rhs),rhsMax =  -5.57887613632993E+01  1.27938567701160E+00
(PID.TID 0000.0001)  ploadbar=  1.01089018676182E+05
 cg2d: Sum(rhs),rhsMax =  -5.58736651290424E+01  1.27813561471618E+00
(PID.TID 0000.0001)  ploadbar=  1.01089071733448E+05
 cg2d: Sum(rhs),rhsMax =  -5.59732025242469E+01  1.27653667141443E+00
(PID.TID 0000.0001)  ploadbar=  1.01089124790714E+05
 cg2d: Sum(rhs),rhsMax =  -5.60823759217288E+01  1.27477676442430E+00
(PID.TID 0000.0001)  ploadbar=  1.01089230459680E+05
 cg2d: Sum(rhs),rhsMax =  -5.62042421814459E+01  1.27278100969240E+00
(PID.TID 0000.0001)  ploadbar=  1.01089336128646E+05
 cg2d: Sum(rhs),rhsMax =  -5.63314189842115E+01  1.27071693244783E+00
(PID.TID 0000.0001)  ploadbar=  1.01089441797611E+05
 cg2d: Sum(rhs),rhsMax =  -5.64616605584623E+01  1.26863721781653E+00
(PID.TID 0000.0001)  ploadbar=  1.01089547466577E+05
 cg2d: Sum(rhs),rhsMax =  -5.65945183203863E+01  1.26655239368006E+00
(PID.TID 0000.0001)  ploadbar=  1.01089653135543E+05
 cg2d: Sum(rhs),rhsMax =  -5.67286610706423E+01  1.26449157475495E+00
(PID.TID 0000.0001)  ploadbar=  1.01089758804509E+05
 cg2d: Sum(rhs),rhsMax =  -5.68518575366561E+01  1.26261057050336E+00
(PID.TID 0000.0001)  ploadbar=  1.01090225424117E+05
 cg2d: Sum(rhs),rhsMax =  -5.69682601184134E+01  1.26081653096353E+00
(PID.TID 0000.0001)  ploadbar=  1.01090692043725E+05
 cg2d: Sum(rhs),rhsMax =  -5.70803455445196E+01  1.25905323346408E+00
(PID.TID 0000.0001)  ploadbar=  1.01091158663333E+05
 cg2d: Sum(rhs),rhsMax =  -5.71892040986518E+01  1.25729603050133E+00
(PID.TID 0000.0001)  ploadbar=  1.01091625282940E+05
 cg2d: Sum(rhs),rhsMax =  -5.72970099727309E+01  1.25549262205278E+00
(PID.TID 0000.0001)  ploadbar=  1.01092091902548E+05
 cg2d: Sum(rhs),rhsMax =  -5.74063712386857E+01  1.25358681499143E+00
(PID.TID 0000.0001)  ploadbar=  1.01092558522156E+05
 cg2d: Sum(rhs),rhsMax =  -5.75203568007573E+01  1.25161042684161E+00
(PID.TID 0000.0001)  ploadbar=  1.01093809264398E+05
 cg2d: Sum(rhs),rhsMax =  -5.76414472012404E+01  1.24951238023876E+00
(PID.TID 0000.0001)  ploadbar=  1.01095060006640E+05
 cg2d: Sum(rhs),rhsMax =  -5.77749966886208E+01  1.24718098117066E+00
(PID.TID 0000.0001)  ploadbar=  1.01096310748882E+05
 cg2d: Sum(rhs),rhsMax =  -5.79166552282905E+01  1.24471331846581E+00
(PID.TID 0000.0001)  ploadbar=  1.01097561491124E+05
 cg2d: Sum(rhs),rhsMax =  -5.80636800656700E+01  1.24216903530109E+00
(PID.TID 0000.0001)  ploadbar=  1.01098812233366E+05
 cg2d: Sum(rhs),rhsMax =  -5.82143760214379E+01  1.23958161656210E+00
(PID.TID 0000.0001)  ploadbar=  1.01100062975608E+05
 cg2d: Sum(rhs),rhsMax =  -5.83700385528263E+01  1.23689802331136E+00
(PID.TID 0000.0001)  ploadbar=  1.01099993154060E+05
 cg2d: Sum(rhs),rhsMax =  -5.85300167598922E+01  1.23413087522510E+00
(PID.TID 0000.0001)  ploadbar=  1.01099923332513E+05
 cg2d: Sum(rhs),rhsMax =  -5.86890882011479E+01  1.23139173915468E+00
(PID.TID 0000.0001)  ploadbar=  1.01099853510966E+05
 cg2d: Sum(rhs),rhsMax =  -5.88524289238323E+01  1.22857175057718E+00
(PID.TID 0000.0001)  ploadbar=  1.01099783689419E+05
 cg2d: Sum(rhs),rhsMax =  -5.90224000014925E+01  1.22562471529690E+00
(PID.TID 0000.0001)  ploadbar=  1.01099713867871E+05
 cg2d: Sum(rhs),rhsMax =  -5.91968060641974E+01  1.22259732771547E+00
(PID.TID 0000.0001)  ploadbar=  1.01099644046324E+05
 cg2d: Sum(rhs),rhsMax =  -5.93782796729803E+01  1.21945009374507E+00
(PID.TID 0000.0001)  ploadbar=  1.01099517381915E+05
 cg2d: Sum(rhs),rhsMax =  -5.95652980616213E+01  1.21620765616845E+00
(PID.TID 0000.0001)  ploadbar=  1.01099390717506E+05
 cg2d: Sum(rhs),rhsMax =  -5.97484928531187E+01  1.21305924743653E+00
(PID.TID 0000.0001)  ploadbar=  1.01099264053097E+05
 cg2d: Sum(rhs),rhsMax =  -5.99256319664182E+01  1.21004968997879E+00
(PID.TID 0000.0001)  ploadbar=  1.01099137388688E+05
 cg2d: Sum(rhs),rhsMax =  -6.00931323144348E+01  1.20724540420989E+00
(PID.TID 0000.0001)  ploadbar=  1.01099010724279E+05
 cg2d: Sum(rhs),rhsMax =  -6.02525172859202E+01  1.20461267474818E+00
(PID.TID 0000.0001)  ploadbar=  1.01098884059870E+05
 cg2d: Sum(rhs),rhsMax =  -6.04009094783963E+01  1.20218086170619E+00
(PID.TID 0000.0001)  ploadbar=  1.01099628686003E+05
 cg2d: Sum(rhs),rhsMax =  -6.05397740253240E+01  1.19991535765141E+00
(PID.TID 0000.0001)  ploadbar=  1.01100373312136E+05
 cg2d: Sum(rhs),rhsMax =  -6.06735347465214E+01  1.19772649531043E+00
(PID.TID 0000.0001)  ploadbar=  1.01101117938269E+05
 cg2d: Sum(rhs),rhsMax =  -6.08005521433956E+01  1.19564573395152E+00
(PID.TID 0000.0001)  ploadbar=  1.01101862564402E+05
 cg2d: Sum(rhs),rhsMax =  -6.09202680733378E+01  1.19367957686950E+00
(PID.TID 0000.0001)  ploadbar=  1.01102607190535E+05
 cg2d: Sum(rhs),rhsMax =  -6.10315940313452E+01  1.19184414515480E+00
(PID.TID 0000.0001)  ploadbar=  1.01103351816668E+05
 cg2d: Sum(rhs),rhsMax =  -6.09285584976831E+01  1.19423120453195E+00
(PID.TID 0000.0001)  ploadbar=  1.01103914504107E+05
 cg2d: Sum(rhs),rhsMax =  -6.08227758203516E+01  1.19670697614862E+00
(PID.TID 0000.0001)  ploadbar=  1.01104477191545E+05
 cg2d: Sum(rhs),rhsMax =  -6.07516689388635E+01  1.19853106221097E+00
(PID.TID 0000.0001)  ploadbar=  1.01105039878984E+05
 cg2d: Sum(rhs),rhsMax =  -6.07236707630919E+01  1.19953274151048E+00
(PID.TID 0000.0001)  ploadbar=  1.01105602566422E+05
 cg2d: Sum(rhs),rhsMax =  -6.07208111225863E+01  1.20006179445270E+00
(PID.TID 0000.0001)  ploadbar=  1.01106165253861E+05
 cg2d: Sum(rhs),rhsMax =  -6.07430981521219E+01  1.20011361202829E+00
(PID.TID 0000.0001)  ploadbar=  1.01106727941299E+05
 cg2d: Sum(rhs),rhsMax =  -6.07348224878829E+01  1.20075969407889E+00
(PID.TID 0000.0001)  ploadbar=  1.01106038296416E+05
 cg2d: Sum(rhs),rhsMax =  -6.07157865660669E+01  1.20160826195369E+00
(PID.TID 0000.0001)  ploadbar=  1.01105348651532E+05
 cg2d: Sum(rhs),rhsMax =  -6.07053004594085E+01  1.20227911351562E+00
(PID.TID 0000.0001)  ploadbar=  1.01104659006648E+05
 cg2d: Sum(rhs),rhsMax =  -6.07262719784256E+01  1.20231812761570E+00
(PID.TID 0000.0001)  ploadbar=  1.01103969361764E+05
 cg2d: Sum(rhs),rhsMax =  -6.09063776058661E+01  1.19920669013674E+00
(PID.TID 0000.0001)  ploadbar=  1.01103279716880E+05
 cg2d: Sum(rhs),rhsMax =  -6.12595961186940E+01  1.19272594633945E+00
(PID.TID 0000.0001)  ploadbar=  1.01102590071996E+05
 cg2d: Sum(rhs),rhsMax =  -6.17720013831338E+01  1.18326831271956E+00
(PID.TID 0000.0001)  ploadbar=  1.01103144254783E+05
 cg2d: Sum(rhs),rhsMax =  -6.24262549305350E+01  1.17129726169395E+00
(PID.TID 0000.0001)  ploadbar=  1.01103698437569E+05
 cg2d: Sum(rhs),rhsMax =  -6.26297225343203E+01  1.16791737271045E+00
(PID.TID 0000.0001)  ploadbar=  1.01104252620356E+05
 cg2d: Sum(rhs),rhsMax =  -6.27456951430679E+01  1.16618059732691E+00
(PID.TID 0000.0001)  ploadbar=  1.01104806803142E+05
 cg2d: Sum(rhs),rhsMax =  -6.28610508152632E+01  1.16445789032068E+00
(PID.TID 0000.0001)  ploadbar=  1.01105360985929E+05
 cg2d: Sum(rhs),rhsMax =  -6.29751431716026E+01  1.16276083977174E+00
(PID.TID 0000.0001)  ploadbar=  1.01105915168715E+05
 cg2d: Sum(rhs),rhsMax =  -6.30856898130865E+01  1.16111107048866E+00
(PID.TID 0000.0001)  ploadbar=  1.01106792428384E+05
 cg2d: Sum(rhs),rhsMax =  -6.31947338842832E+01  1.15946609600262E+00
(PID.TID 0000.0001)  ploadbar=  1.01107669688053E+05
 cg2d: Sum(rhs),rhsMax =  -6.33009865825623E+01  1.15784968003549E+00
(PID.TID 0000.0001)  ploadbar=  1.01108546947722E+05
 cg2d: Sum(rhs),rhsMax =  -6.34027651298507E+01  1.15629334750015E+00
(PID.TID 0000.0001)  ploadbar=  1.01109424207391E+05
 cg2d: Sum(rhs),rhsMax =  -6.34998366211145E+01  1.15480094743415E+00
(PID.TID 0000.0001)  ploadbar=  1.01110301467060E+05
 cg2d: Sum(rhs),rhsMax =  -6.35914898273187E+01  1.15338085108895E+00
(PID.TID 0000.0001)  ploadbar=  1.01111178726729E+05
 cg2d: Sum(rhs),rhsMax =  -6.36795506064907E+01  1.15207666430830E+00
(PID.TID 0000.0001)  ploadbar=  1.01112834359122E+05
 cg2d: Sum(rhs),rhsMax =  -6.37695209285491E+01  1.15078220361163E+00
(PID.TID 0000.0001)  ploadbar=  1.01114489991515E+05
 cg2d: Sum(rhs),rhsMax =  -6.38616917395426E+01  1.14949072591687E+00
(PID.TID 0000.0001)  ploadbar=  1.01116145623908E+05
 cg2d: Sum(rhs),rhsMax =  -6.39560375890921E+01  1.14820273982588E+00
(PID.TID 0000.0001)  ploadbar=  1.01117801256301E+05
 cg2d: Sum(rhs),rhsMax =  -6.40541406318764E+01  1.14689047674986E+00
(PID.TID 0000.0001)  ploadbar=  1.01119456888694E+05
 cg2d: Sum(rhs),rhsMax =  -6.41570046476205E+01  1.14553561522765E+00
(PID.TID 0000.0001)  ploadbar=  1.01121112521086E+05
 cg2d: Sum(rhs),rhsMax =  -6.42222200664836E+01  1.14484426721665E+00
(PID.TID 0000.0001)  ploadbar=  1.01122428013007E+05
 cg2d: Sum(rhs),rhsMax =  -6.42141058046780E+01  1.14545182263749E+00
(PID.TID 0000.0001)  ploadbar=  1.01123743504928E+05
 cg2d: Sum(rhs),rhsMax =  -6.42635860810307E+01  1.14502404308996E+00
(PID.TID 0000.0001)  ploadbar=  1.01125058996848E+05
 cg2d: Sum(rhs),rhsMax =  -6.43740995478233E+01  1.14350320025556E+00
(PID.TID 0000.0001)  ploadbar=  1.01126374488769E+05
 cg2d: Sum(rhs),rhsMax =  -6.45509671136989E+01  1.14080670279497E+00
(PID.TID 0000.0001)  ploadbar=  1.01127689980690E+05
 cg2d: Sum(rhs),rhsMax =  -6.47818580505013E+01  1.13717005912668E+00
(PID.TID 0000.0001)  ploadbar=  1.01129005472610E+05
 cg2d: Sum(rhs),rhsMax =  -6.48798189678553E+01  1.13588041513995E+00
(PID.TID 0000.0001)  ploadbar=  1.01129441914724E+05
 cg2d: Sum(rhs),rhsMax =  -6.49740188517001E+01  1.13465391695783E+00
(PID.TID 0000.0001)  ploadbar=  1.01129878356838E+05
 cg2d: Sum(rhs),rhsMax =  -6.50686542027485E+01  1.13341491333692E+00
(PID.TID 0000.0001)  ploadbar=  1.01130314798952E+05
 cg2d: Sum(rhs),rhsMax =  -6.51616993718828E+01  1.13220000899714E+00
(PID.TID 0000.0001)  ploadbar=  1.01130751241066E+05
 cg2d: Sum(rhs),rhsMax =  -6.52502955364895E+01  1.13105800943488E+00
(PID.TID 0000.0001)  ploadbar=  1.01131187683180E+05
 cg2d: Sum(rhs),rhsMax =  -6.53329714351425E+01  1.13001535406358E+00
(PID.TID 0000.0001)  ploadbar=  1.01131624125294E+05
 cg2d: Sum(rhs),rhsMax =  -6.54218260662791E+01  1.12879917969974E+00
(PID.TID 0000.0001)  ploadbar=  1.01132742994063E+05
 cg2d: Sum(rhs),rhsMax =  -6.54986647802095E+01  1.12772229508979E+00
(PID.TID 0000.0001)  ploadbar=  1.01133861862831E+05
 cg2d: Sum(rhs),rhsMax =  -6.55655119724527E+01  1.12675087330644E+00
(PID.TID 0000.0001)  ploadbar=  1.01134980731600E+05
 cg2d: Sum(rhs),rhsMax =  -6.56268487127273E+01  1.12580785429838E+00
(PID.TID 0000.0001)  ploadbar=  1.01136099600369E+05
 cg2d: Sum(rhs),rhsMax =  -6.56820700302752E+01  1.12490188006181E+00
(PID.TID 0000.0001)  ploadbar=  1.01137218469137E+05
 cg2d: Sum(rhs),rhsMax =  -6.57306698329605E+01  1.12403627908565E+00
(PID.TID 0000.0001)  ploadbar=  1.01138337337906E+05
 cg2d: Sum(rhs),rhsMax =  -6.57737075148507E+01  1.12331428721271E+00
(PID.TID 0000.0001)  ploadbar=  1.01138990439520E+05
 cg2d: Sum(rhs),rhsMax =  -6.58120954891593E+01  1.12271878536371E+00
(PID.TID 0000.0001)  ploadbar=  1.01139643541135E+05
 cg2d: Sum(rhs),rhsMax =  -6.58516855965541E+01  1.12215004585063E+00
(PID.TID 0000.0001)  ploadbar=  1.01140296642749E+05
 cg2d: Sum(rhs),rhsMax =  -6.58944600702273E+01  1.12157477933166E+00
(PID.TID 0000.0001)  ploadbar=  1.01140949744364E+05
 cg2d: Sum(rhs),rhsMax =  -6.53955175650070E+01  1.13033310537759E+00
(PID.TID 0000.0001)  ploadbar=  1.01141602845978E+05
 cg2d: Sum(rhs),rhsMax =  -6.45066012900144E+01  1.14616051937829E+00
(PID.TID 0000.0001)  ploadbar=  1.01142255947592E+05
 cg2d: Sum(rhs),rhsMax =  -6.35821925625107E+01  1.16306702631896E+00
(PID.TID 0000.0001)  ploadbar=  1.01142744952462E+05
 cg2d: Sum(rhs),rhsMax =  -6.26344277166282E+01  1.18089741928056E+00
(PID.TID 0000.0001)  ploadbar=  1.01143233957332E+05
 cg2d: Sum(rhs),rhsMax =  -6.17298195074300E+01  1.19842209108259E+00
(PID.TID 0000.0001)  ploadbar=  1.01143722962201E+05
 cg2d: Sum(rhs),rhsMax =  -6.08280237898519E+01  1.21639367993727E+00
(PID.TID 0000.0001)  ploadbar=  1.01144211967071E+05
 cg2d: Sum(rhs),rhsMax =  -5.99418425293539E+01  1.23456641302637E+00
(PID.TID 0000.0001)  ploadbar=  1.01144700971940E+05
 cg2d: Sum(rhs),rhsMax =  -5.91337164606052E+01  1.25161420357207E+00
(PID.TID 0000.0001)  ploadbar=  1.01145189976810E+05
 cg2d: Sum(rhs),rhsMax =  -5.84043989593297E+01  1.26745299512613E+00
(PID.TID 0000.0001)  ploadbar=  1.01146070302159E+05
 cg2d: Sum(rhs),rhsMax =  -5.77805098633854E+01  1.28137101569472E+00
(PID.TID 0000.0001)  ploadbar=  1.01146950627509E+05
 cg2d: Sum(rhs),rhsMax =  -5.72817179661566E+01  1.29278048597667E+00
(PID.TID 0000.0001)  ploadbar=  1.01147830952858E+05
 cg2d: Sum(rhs),rhsMax =  -5.69089389548526E+01  1.30151841369489E+00
(PID.TID 0000.0001)  ploadbar=  1.01148711278207E+05
 cg2d: Sum(rhs),rhsMax =  -5.66632206249275E+01  1.30744822606007E+00
(PID.TID 0000.0001)  ploadbar=  1.01149591603557E+05
 cg2d: Sum(rhs),rhsMax =  -5.65186422778640E+01  1.31109668743833E+00
(PID.TID 0000.0001)  ploadbar=  1.01150471928906E+05
 cg2d: Sum(rhs),rhsMax =  -5.64781286308808E+01  1.31228911817519E+00
(PID.TID 0000.0001)  ploadbar=  1.01150312956801E+05
 cg2d: Sum(rhs),rhsMax =  -5.64786636593804E+01  1.31247476394636E+00
(PID.TID 0000.0001)  ploadbar=  1.01150153984696E+05
 cg2d: Sum(rhs),rhsMax =  -5.65193531711540E+01  1.31167249968036E+00
(PID.TID 0000.0001)  ploadbar=  1.01149995012590E+05
 cg2d: Sum(rhs),rhsMax =  -5.65920113588628E+01  1.31007614825970E+00
(PID.TID 0000.0001)  ploadbar=  1.01149836040485E+05
 cg2d: Sum(rhs),rhsMax =  -5.66921953258496E+01  1.30779330639236E+00
(PID.TID 0000.0001)  ploadbar=  1.01149677068380E+05
 cg2d: Sum(rhs),rhsMax =  -5.68237441261201E+01  1.30473249763043E+00
(PID.TID 0000.0001)  ploadbar=  1.01149518096274E+05
 cg2d: Sum(rhs),rhsMax =  -5.71014809386681E+01  1.29844396892678E+00
(PID.TID 0000.0001)  ploadbar=  1.01148826412879E+05
 cg2d: Sum(rhs),rhsMax =  -5.73732417773412E+01  1.29243916107088E+00
(PID.TID 0000.0001)  ploadbar=  1.01148134729483E+05
 cg2d: Sum(rhs),rhsMax =  -5.77130185129210E+01  1.28505895300051E+00
(PID.TID 0000.0001)  ploadbar=  1.01147443046088E+05
 cg2d: Sum(rhs),rhsMax =  -5.81771386367625E+01  1.27511546509328E+00
(PID.TID 0000.0001)  ploadbar=  1.01146751362692E+05
 cg2d: Sum(rhs),rhsMax =  -5.78257669038895E+01  1.28325491198484E+00
(PID.TID 0000.0001)  ploadbar=  1.01146059679296E+05
 cg2d: Sum(rhs),rhsMax =  -5.72252731930565E+01  1.29719518663346E+00
(PID.TID 0000.0001)  ploadbar=  1.01145367995901E+05
 cg2d: Sum(rhs),rhsMax =  -5.66823356477629E+01  1.31006106258175E+00
(PID.TID 0000.0001)  ploadbar=  1.01145278734782E+05
 cg2d: Sum(rhs),rhsMax =  -5.61717013412251E+01  1.32237272898850E+00
(PID.TID 0000.0001)  ploadbar=  1.01145189473664E+05
 cg2d: Sum(rhs),rhsMax =  -5.56846202790713E+01  1.33430425885510E+00
(PID.TID 0000.0001)  ploadbar=  1.01145100212545E+05
 cg2d: Sum(rhs),rhsMax =  -5.51899545516802E+01  1.34659305818183E+00
(PID.TID 0000.0001)  ploadbar=  1.01145010951427E+05
 cg2d: Sum(rhs),rhsMax =  -5.48022031838854E+01  1.35641347333960E+00
(PID.TID 0000.0001)  ploadbar=  1.01144921690309E+05
 cg2d: Sum(rhs),rhsMax =  -5.45583375216434E+01  1.36273554670514E+00
(PID.TID 0000.0001)  ploadbar=  1.01144832429190E+05
 cg2d: Sum(rhs),rhsMax =  -5.44183894280655E+01  1.36655918743485E+00
(PID.TID 0000.0001)  ploadbar=  1.01144666659087E+05
 cg2d: Sum(rhs),rhsMax =  -5.43413115722148E+01  1.36886055670414E+00
(PID.TID 0000.0001)  ploadbar=  1.01144500888984E+05
 cg2d: Sum(rhs),rhsMax =  -5.42785321772808E+01  1.37084950046650E+00
(PID.TID 0000.0001)  ploadbar=  1.01144335118881E+05
 cg2d: Sum(rhs),rhsMax =  -5.42302259514761E+01  1.37252186491963E+00
(PID.TID 0000.0001)  ploadbar=  1.01144169348778E+05
 cg2d: Sum(rhs),rhsMax =  -5.41869394605695E+01  1.37411610725212E+00
(PID.TID 0000.0001)  ploadbar=  1.01144003578675E+05
 cg2d: Sum(rhs),rhsMax =  -5.41374507135566E+01  1.37591543447191E+00
(PID.TID 0000.0001)  ploadbar=  1.01143837808572E+05
 cg2d: Sum(rhs),rhsMax =  -5.40806559336549E+01  1.37786425210807E+00
(PID.TID 0000.0001)  ploadbar=  1.01142980129414E+05
 cg2d: Sum(rhs),rhsMax =  -5.40316071273471E+01  1.37957873199567E+00
(PID.TID 0000.0001)  ploadbar=  1.01142122450255E+05
 cg2d: Sum(rhs),rhsMax =  -5.39833240661053E+01  1.38123478780202E+00
(PID.TID 0000.0001)  ploadbar=  1.01141264771097E+05
 cg2d: Sum(rhs),rhsMax =  -5.39462795056347E+01  1.38256489502761E+00
(PID.TID 0000.0001)  ploadbar=  1.01140407091938E+05
 cg2d: Sum(rhs),rhsMax =  -5.39335529230275E+01  1.38322629761050E+00
(PID.TID 0000.0001)  ploadbar=  1.01139549412780E+05
 cg2d: Sum(rhs),rhsMax =  -5.39526918799359E+01  1.38301473952902E+00
(PID.TID 0000.0001)  ploadbar=  1.01138691733621E+05
 cg2d: Sum(rhs),rhsMax =  -5.39724204276882E+01  1.38283945981503E+00
(PID.TID 0000.0001)  ploadbar=  1.01139273009373E+05
 cg2d: Sum(rhs),rhsMax =  -5.40164634900960E+01  1.38209072414635E+00
(PID.TID 0000.0001)  ploadbar=  1.01139854285125E+05
 cg2d: Sum(rhs),rhsMax =  -5.40684003079049E+01  1.38118726687900E+00
(PID.TID 0000.0001)  ploadbar=  1.01140435560877E+05
 cg2d: Sum(rhs),rhsMax =  -5.41241038467184E+01  1.38023416592888E+00
(PID.TID 0000.0001)  ploadbar=  1.01141016836629E+05
 cg2d: Sum(rhs),rhsMax =  -5.40732563157161E+01  1.38204622423261E+00
(PID.TID 0000.0001)  ploadbar=  1.01141598112380E+05
 cg2d: Sum(rhs),rhsMax =  -5.37044005709891E+01  1.39210083179597E+00
(PID.TID 0000.0001)  ploadbar=  1.01142179388132E+05
 cg2d: Sum(rhs),rhsMax =  -5.33735252120596E+01  1.40127233670767E+00
(PID.TID 0000.0001)  ploadbar=  1.01141632540320E+05
 cg2d: Sum(rhs),rhsMax =  -5.30882502175084E+01  1.40932116273680E+00
(PID.TID 0000.0001)  ploadbar=  1.01141085692508E+05
 cg2d: Sum(rhs),rhsMax =  -5.28298954627287E+01  1.41670821491779E+00
(PID.TID 0000.0001)  ploadbar=  1.01140538844696E+05
 cg2d: Sum(rhs),rhsMax =  -5.26046730523814E+01  1.42324626315439E+00
(PID.TID 0000.0001)  ploadbar=  1.01139991996884E+05
 cg2d: Sum(rhs),rhsMax =  -5.24188730197209E+01  1.42874128019757E+00
(PID.TID 0000.0001)  ploadbar=  1.01139445149072E+05
 cg2d: Sum(rhs),rhsMax =  -5.22810640235636E+01  1.43293616144324E+00
(PID.TID 0000.0001)  ploadbar=  1.01138898301261E+05
 cg2d: Sum(rhs),rhsMax =  -5.21426554036439E+01  1.43719071770067E+00
(PID.TID 0000.0001)  ploadbar=  1.01137338028573E+05
 cg2d: Sum(rhs),rhsMax =  -5.20507476917679E+01  1.44019637040440E+00
(PID.TID 0000.0001)  ploadbar=  1.01135777755886E+05
 cg2d: Sum(rhs),rhsMax =  -5.20098968709802E+01  1.44181153992574E+00
(PID.TID 0000.0001)  ploadbar=  1.01134217483198E+05
 cg2d: Sum(rhs),rhsMax =  -5.19986529894081E+01  1.44262327971763E+00
(PID.TID 0000.0001)  ploadbar=  1.01132657210511E+05
 cg2d: Sum(rhs),rhsMax =  -5.20282936421083E+01  1.44232085893417E+00
(PID.TID 0000.0001)  ploadbar=  1.01131096937824E+05
 cg2d: Sum(rhs),rhsMax =  -5.21039689295649E+01  1.44076398234309E+00
(PID.TID 0000.0001)  ploadbar=  1.01129536665136E+05
 cg2d: Sum(rhs),rhsMax =  -5.22452825610972E+01  1.43735209533589E+00
(PID.TID 0000.0001)  ploadbar=  1.01128523156498E+05
 cg2d: Sum(rhs),rhsMax =  -5.23992662535464E+01  1.43355642920713E+00
(PID.TID 0000.0001)  ploadbar=  1.01127509647859E+05
 cg2d: Sum(rhs),rhsMax =  -5.25848958220853E+01  1.42886896079713E+00
(PID.TID 0000.0001)  ploadbar=  1.01126496139220E+05
 cg2d: Sum(rhs),rhsMax =  -5.27814033544543E+01  1.42386624322483E+00
(PID.TID 0000.0001)  ploadbar=  1.01125482630582E+05
 cg2d: Sum(rhs),rhsMax =  -5.29931777407962E+01  1.41843204761981E+00
(PID.TID 0000.0001)  ploadbar=  1.01124469121943E+05
 cg2d: Sum(rhs),rhsMax =  -5.32156109047060E+01  1.41269140830971E+00
(PID.TID 0000.0001)  ploadbar=  1.01123455613305E+05
 cg2d: Sum(rhs),rhsMax =  -5.35064535161199E+01  1.40525267085537E+00
(PID.TID 0000.0001)  ploadbar=  1.01123031552206E+05
 cg2d: Sum(rhs),rhsMax =  -5.38084356427637E+01  1.39765609412195E+00
(PID.TID 0000.0001)  ploadbar=  1.01122607491107E+05
 cg2d: Sum(rhs),rhsMax =  -5.41111502923120E+01  1.39017707586643E+00
(PID.TID 0000.0001)  ploadbar=  1.01122183430009E+05
 cg2d: Sum(rhs),rhsMax =  -5.44032211259187E+01  1.38310425715788E+00
(PID.TID 0000.0001)  ploadbar=  1.01121759368910E+05
 cg2d: Sum(rhs),rhsMax =  -5.45124623756631E+01  1.38077480157523E+00
(PID.TID 0000.0001)  ploadbar=  1.01121335307812E+05
 cg2d: Sum(rhs),rhsMax =  -5.45872639967837E+01  1.37937443046885E+00
(PID.TID 0000.0001)  ploadbar=  1.01120911246713E+05
 cg2d: Sum(rhs),rhsMax =  -5.46711977125502E+01  1.37776116461287E+00
(PID.TID 0000.0001)  ploadbar=  1.01120006456304E+05
 cg2d: Sum(rhs),rhsMax =  -5.47479584726770E+01  1.37634189996299E+00
(PID.TID 0000.0001)  ploadbar=  1.01119101665894E+05
 cg2d: Sum(rhs),rhsMax =  -5.48242000091704E+01  1.37494731288519E+00
(PID.TID 0000.0001)  ploadbar=  1.01118196875485E+05
 cg2d: Sum(rhs),rhsMax =  -5.48962363854289E+01  1.37366859503661E+00
(PID.TID 0000.0001)  ploadbar=  1.01117292085075E+05
 cg2d: Sum(rhs),rhsMax =  -5.49592279330478E+01  1.37262644961135E+00
(PID.TID 0000.0001)  ploadbar=  1.01116387294666E+05
 cg2d: Sum(rhs),rhsMax =  -5.50136995617704E+01  1.37181075452048E+00
(PID.TID 0000.0001)  ploadbar=  1.01115482504256E+05
 cg2d: Sum(rhs),rhsMax =  -5.50034574299528E+01  1.37262197607608E+00
(PID.TID 0000.0001)  ploadbar=  1.01115349068450E+05
 cg2d: Sum(rhs),rhsMax =  -5.49888265082357E+01  1.37355146730031E+00
(PID.TID 0000.0001)  ploadbar=  1.01115215632643E+05
 cg2d: Sum(rhs),rhsMax =  -5.49387860131677E+01  1.37537412629865E+00
(PID.TID 0000.0001)  ploadbar=  1.01115082196837E+05
 cg2d: Sum(rhs),rhsMax =  -5.48962806402206E+01  1.37701741320768E+00
(PID.TID 0000.0001)  ploadbar=  1.01114948761030E+05
 cg2d: Sum(rhs),rhsMax =  -5.48564076880513E+01  1.37859972137206E+00
(PID.TID 0000.0001)  ploadbar=  1.01114815325224E+05
 cg2d: Sum(rhs),rhsMax =  -5.48188895821291E+01  1.38012970185657E+00
(PID.TID 0000.0001)  ploadbar=  1.01114681889417E+05
 cg2d: Sum(rhs),rhsMax =  -5.48196514167633E+01  1.38063128452682E+00
(PID.TID 0000.0001)  ploadbar=  1.01115414858209E+05
 cg2d: Sum(rhs),rhsMax =  -5.48175250018817E+01  1.38113432512666E+00
(PID.TID 0000.0001)  ploadbar=  1.01116147827001E+05
 cg2d: Sum(rhs),rhsMax =  -5.48100309979301E+01  1.38170014304490E+00
(PID.TID 0000.0001)  ploadbar=  1.01116880795793E+05
 cg2d: Sum(rhs),rhsMax =  -5.48022622681967E+01  1.38220065234914E+00
(PID.TID 0000.0001)  ploadbar=  1.01117613764585E+05
 cg2d: Sum(rhs),rhsMax =  -5.47893267112499E+01  1.38275609341220E+00
(PID.TID 0000.0001)  ploadbar=  1.01118346733377E+05
 cg2d: Sum(rhs),rhsMax =  -5.47710574722964E+01  1.38336286236035E+00
(PID.TID 0000.0001)  ploadbar=  1.01119079702169E+05
 cg2d: Sum(rhs),rhsMax =  -5.47721654181671E+01  1.38356570202797E+00
(PID.TID 0000.0001)  ploadbar=  1.01121456037074E+05
 cg2d: Sum(rhs),rhsMax =  -5.47808364092525E+01  1.38366022410521E+00
(PID.TID 0000.0001)  ploadbar=  1.01123832371979E+05
 cg2d: Sum(rhs),rhsMax =  -5.47982745600345E+01  1.38361557357531E+00
(PID.TID 0000.0001)  ploadbar=  1.01126208706885E+05
 cg2d: Sum(rhs),rhsMax =  -5.48245703997371E+01  1.38342815230786E+00
(PID.TID 0000.0001)  ploadbar=  1.01128585041790E+05
 cg2d: Sum(rhs),rhsMax =  -5.48563600582627E+01  1.38318311913853E+00
(PID.TID 0000.0001)  ploadbar=  1.01130961376695E+05
 cg2d: Sum(rhs),rhsMax =  -5.48909773988451E+01  1.38294701435034E+00
(PID.TID 0000.0001)  ploadbar=  1.01133337711600E+05
 cg2d: Sum(rhs),rhsMax =  -5.49384989162564E+01  1.38238041954971E+00
(PID.TID 0000.0001)  ploadbar=  1.01136020827045E+05
 cg2d: Sum(rhs),rhsMax =  -5.49805522335546E+01  1.38193990328312E+00
(PID.TID 0000.0001)  ploadbar=  1.01138703942489E+05
 cg2d: Sum(rhs),rhsMax =  -5.50140806751915E+01  1.38170046563712E+00
(PID.TID 0000.0001)  ploadbar=  1.01141387057933E+05
 cg2d: Sum(rhs),rhsMax =  -5.50476064876280E+01  1.38144936533845E+00
(PID.TID 0000.0001)  ploadbar=  1.01144070173378E+05
 cg2d: Sum(rhs),rhsMax =  -5.50895661161857E+01  1.38098228539612E+00
(PID.TID 0000.0001)  ploadbar=  1.01146753288822E+05
 cg2d: Sum(rhs),rhsMax =  -5.51433064282046E+01  1.38022767396350E+00
(PID.TID 0000.0001)  ploadbar=  1.01149436404266E+05
 cg2d: Sum(rhs),rhsMax =  -5.52022622186542E+01  1.37935193358636E+00
(PID.TID 0000.0001)  ploadbar=  1.01151700027060E+05
 cg2d: Sum(rhs),rhsMax =  -5.52679002703001E+01  1.37830730507336E+00
(PID.TID 0000.0001)  ploadbar=  1.01153963649853E+05
 cg2d: Sum(rhs),rhsMax =  -5.53387253641946E+01  1.37712928076349E+00
(PID.TID 0000.0001)  ploadbar=  1.01156227272646E+05
 cg2d: Sum(rhs),rhsMax =  -5.54180205162195E+01  1.37573739125109E+00
(PID.TID 0000.0001)  ploadbar=  1.01158490895440E+05
 cg2d: Sum(rhs),rhsMax =  -5.55043487980973E+01  1.37416816892883E+00
(PID.TID 0000.0001)  ploadbar=  1.01160754518233E+05
 cg2d: Sum(rhs),rhsMax =  -5.55947274124763E+01  1.37249745363409E+00
(PID.TID 0000.0001)  ploadbar=  1.01163018141026E+05
 cg2d: Sum(rhs),rhsMax =  -5.57097101766839E+01  1.37016680805895E+00
(PID.TID 0000.0001)  ploadbar=  1.01164271766714E+05
 cg2d: Sum(rhs),rhsMax =  -5.58322707038360E+01  1.36759746420935E+00
(PID.TID 0000.0001)  ploadbar=  1.01165525392401E+05
 cg2d: Sum(rhs),rhsMax =  -5.59417793355422E+01  1.36529624527758E+00
(PID.TID 0000.0001)  ploadbar=  1.01166779018089E+05
 cg2d: Sum(rhs),rhsMax =  -5.60326909524060E+01  1.36339475055835E+00
(PID.TID 0000.0001)  ploadbar=  1.01168032643776E+05
 cg2d: Sum(rhs),rhsMax =  -5.61042870398269E+01  1.36190088871550E+00
(PID.TID 0000.0001)  ploadbar=  1.01169286269464E+05
 cg2d: Sum(rhs),rhsMax =  -5.61543350252328E+01  1.36085988144902E+00
(PID.TID 0000.0001)  ploadbar=  1.01170539895151E+05
 cg2d: Sum(rhs),rhsMax =  -5.62921905462242E+01  1.35774990637993E+00
(PID.TID 0000.0001)  ploadbar=  1.01170886560771E+05
 cg2d: Sum(rhs),rhsMax =  -5.64572802961528E+01  1.35405096026402E+00
(PID.TID 0000.0001)  ploadbar=  1.01171233226391E+05
 cg2d: Sum(rhs),rhsMax =  -5.66383511196749E+01  1.35004111740971E+00
(PID.TID 0000.0001)  ploadbar=  1.01171579892010E+05
 cg2d: Sum(rhs),rhsMax =  -5.68239324356258E+01  1.34599668807566E+00
(PID.TID 0000.0001)  ploadbar=  1.01171926557630E+05
 cg2d: Sum(rhs),rhsMax =  -5.70125485777013E+01  1.34195193594517E+00
(PID.TID 0000.0001)  ploadbar=  1.01172273223250E+05
 cg2d: Sum(rhs),rhsMax =  -5.72190001038616E+01  1.33755904499208E+00
(PID.TID 0000.0001)  ploadbar=  1.01172619888869E+05
 cg2d: Sum(rhs),rhsMax =  -5.74674973753323E+01  1.33219570189949E+00
(PID.TID 0000.0001)  ploadbar=  1.01172951574043E+05
 cg2d: Sum(rhs),rhsMax =  -5.77955029450997E+01  1.32502255778875E+00
(PID.TID 0000.0001)  ploadbar=  1.01173283259217E+05
 cg2d: Sum(rhs),rhsMax =  -5.81746848689638E+01  1.31674082084546E+00
(PID.TID 0000.0001)  ploadbar=  1.01173614944391E+05
 cg2d: Sum(rhs),rhsMax =  -5.86020816951421E+01  1.30746135812029E+00
(PID.TID 0000.0001)  ploadbar=  1.01173946629564E+05
 cg2d: Sum(rhs),rhsMax =  -5.90984918176253E+01  1.29677348754385E+00
(PID.TID 0000.0001)  ploadbar=  1.01174278314738E+05
 cg2d: Sum(rhs),rhsMax =  -5.96953814298170E+01  1.28407379572141E+00
(PID.TID 0000.0001)  ploadbar=  1.01174609999912E+05
 cg2d: Sum(rhs),rhsMax =  -6.03217612611717E+01  1.27106036765452E+00
(PID.TID 0000.0001)  ploadbar=  1.01173873106345E+05
 cg2d: Sum(rhs),rhsMax =  -6.19149776410861E+01  1.23871216919644E+00
(PID.TID 0000.0001)  ploadbar=  1.01173136212778E+05
 cg2d: Sum(rhs),rhsMax =  -6.37471235595065E+01  1.20350437315698E+00
(PID.TID 0000.0001)  ploadbar=  1.01172399319211E+05
 cg2d: Sum(rhs),rhsMax =  -6.39068573637493E+01  1.20093613676494E+00
(PID.TID 0000.0001)  ploadbar=  1.01171662425644E+05
 cg2d: Sum(rhs),rhsMax =  -6.37844549394532E+01  1.20372729003451E+00
(PID.TID 0000.0001)  ploadbar=  1.01170925532077E+05
 cg2d: Sum(rhs),rhsMax =  -6.36731389596561E+01  1.20636592102209E+00
(PID.TID 0000.0001)  ploadbar=  1.01170188638510E+05
 cg2d: Sum(rhs),rhsMax =  -6.35607965430940E+01  1.20896618788359E+00
(PID.TID 0000.0001)  ploadbar=  1.01169965996292E+05
 cg2d: Sum(rhs),rhsMax =  -6.34920300644857E+01  1.21066985581435E+00
(PID.TID 0000.0001)  ploadbar=  1.01169743354074E+05
 cg2d: Sum(rhs),rhsMax =  -6.34510270251460E+01  1.21177189691034E+00
(PID.TID 0000.0001)  ploadbar=  1.01169520711857E+05
 cg2d: Sum(rhs),rhsMax =  -6.34366733497602E+01  1.21229388382657E+00
(PID.TID 0000.0001)  ploadbar=  1.01169298069639E+05
 cg2d: Sum(rhs),rhsMax =  -6.34306104273946E+01  1.21257950594530E+00
(PID.TID 0000.0001)  ploadbar=  1.01169075427421E+05
 cg2d: Sum(rhs),rhsMax =  -6.34047999860292E+01  1.21316027415159E+00
(PID.TID 0000.0001)  ploadbar=  1.01168852785203E+05
 cg2d: Sum(rhs),rhsMax =  -6.33142658268911E+01  1.21501884571093E+00
(PID.TID 0000.0001)  ploadbar=  1.01169387030025E+05
 cg2d: Sum(rhs),rhsMax =  -6.31168137658683E+01  1.21897969104410E+00
(PID.TID 0000.0001)  ploadbar=  1.01169921274847E+05
 cg2d: Sum(rhs),rhsMax =  -6.28128268049556E+01  1.22507520487456E+00
(PID.TID 0000.0001)  ploadbar=  1.01170455519669E+05
 cg2d: Sum(rhs),rhsMax =  -6.24389544020274E+01  1.23264308462989E+00
(PID.TID 0000.0001)  ploadbar=  1.01170989764491E+05
 cg2d: Sum(rhs),rhsMax =  -6.20756405727422E+01  1.24012493417377E+00
(PID.TID 0000.0001)  ploadbar=  1.01171524009313E+05
 cg2d: Sum(rhs),rhsMax =  -6.17803632327569E+01  1.24635611685519E+00
(PID.TID 0000.0001)  ploadbar=  1.01172058254135E+05
 cg2d: Sum(rhs),rhsMax =  -6.16110031460402E+01  1.25007141905964E+00
(PID.TID 0000.0001)  ploadbar=  1.01171796891589E+05
 cg2d: Sum(rhs),rhsMax =  -6.15114725555396E+01  1.25236626176845E+00
(PID.TID 0000.0001)  ploadbar=  1.01171535529044E+05
 cg2d: Sum(rhs),rhsMax =  -6.14960984767782E+01  1.25293661373919E+00
(PID.TID 0000.0001)  ploadbar=  1.01171274166498E+05
 cg2d: Sum(rhs),rhsMax =  -6.15691673650228E+01  1.25169350666494E+00
(PID.TID 0000.0001)  ploadbar=  1.01171012803952E+05
 cg2d: Sum(rhs),rhsMax =  -6.17298375303467E+01  1.24866785945134E+00
(PID.TID 0000.0001)  ploadbar=  1.01170751441406E+05
 cg2d: Sum(rhs),rhsMax =  -6.19786423811977E+01  1.24388456821727E+00
(PID.TID 0000.0001)  ploadbar=  1.01170490078860E+05
 cg2d: Sum(rhs),rhsMax =  -6.23411050171178E+01  1.23692334648422E+00
(PID.TID 0000.0001)  ploadbar=  1.01170199969621E+05
 cg2d: Sum(rhs),rhsMax =  -6.27533575267511E+01  1.22910199135419E+00
(PID.TID 0000.0001)  ploadbar=  1.01169909860381E+05
 cg2d: Sum(rhs),rhsMax =  -6.32188690666287E+01  1.22038930642352E+00
(PID.TID 0000.0001)  ploadbar=  1.01169619751141E+05
 cg2d: Sum(rhs),rhsMax =  -6.37218274708003E+01  1.21113051236777E+00
(PID.TID 0000.0001)  ploadbar=  1.01169329641902E+05
 cg2d: Sum(rhs),rhsMax =  -6.42608024370210E+01  1.20138278921379E+00
(PID.TID 0000.0001)  ploadbar=  1.01169039532662E+05
 cg2d: Sum(rhs),rhsMax =  -6.48231497880692E+01  1.19140854702318E+00
(PID.TID 0000.0001)  ploadbar=  1.01168749423423E+05
 cg2d: Sum(rhs),rhsMax =  -6.54893549430919E+01  1.17969484104106E+00
(PID.TID 0000.0001)  ploadbar=  1.01168403221914E+05
 cg2d: Sum(rhs),rhsMax =  -6.61428023404874E+01  1.16840141509183E+00
(PID.TID 0000.0001)  ploadbar=  1.01168057020405E+05
 cg2d: Sum(rhs),rhsMax =  -6.67588520215436E+01  1.15793869360083E+00
(PID.TID 0000.0001)  ploadbar=  1.01167710818896E+05
 cg2d: Sum(rhs),rhsMax =  -6.73018265125670E+01  1.14887997860990E+00
(PID.TID 0000.0001)  ploadbar=  1.01167364617388E+05
 cg2d: Sum(rhs),rhsMax =  -6.77337013938041E+01  1.14180338363934E+00
(PID.TID 0000.0001)  ploadbar=  1.01167018415879E+05
 cg2d: Sum(rhs),rhsMax =  -6.80172185588908E+01  1.13725570837080E+00
(PID.TID 0000.0001)  ploadbar=  1.01166672214370E+05
 cg2d: Sum(rhs),rhsMax =  -6.81025273288575E+01  1.13609461605360E+00
(PID.TID 0000.0001)  ploadbar=  1.01166412029815E+05
 cg2d: Sum(rhs),rhsMax =  -6.81140422676109E+01  1.13621567097565E+00
(PID.TID 0000.0001)  ploadbar=  1.01166151845261E+05
 cg2d: Sum(rhs),rhsMax =  -6.81615419172154E+01  1.13578779833335E+00
(PID.TID 0000.0001)  ploadbar=  1.01165891660706E+05
 cg2d: Sum(rhs),rhsMax =  -6.84498100129092E+01  1.13141701632712E+00
(PID.TID 0000.0001)  ploadbar=  1.01165631476152E+05
 cg2d: Sum(rhs),rhsMax =  -6.90238449788027E+01  1.12246636857633E+00
(PID.TID 0000.0001)  ploadbar=  1.01165371291597E+05
 cg2d: Sum(rhs),rhsMax =  -6.96216348075836E+01  1.11333231247557E+00
(PID.TID 0000.0001)  ploadbar=  1.01165111107043E+05
 cg2d: Sum(rhs),rhsMax =  -6.99262725051205E+01  1.10898870680141E+00
(PID.TID 0000.0001)  ploadbar=  1.01165252991953E+05
 cg2d: Sum(rhs),rhsMax =  -6.97761338556623E+01  1.11188512019089E+00
(PID.TID 0000.0001)  ploadbar=  1.01165394876864E+05
 cg2d: Sum(rhs),rhsMax =  -6.89521245610463E+01  1.12569268447614E+00
(PID.TID 0000.0001)  ploadbar=  1.01165536761774E+05
 cg2d: Sum(rhs),rhsMax =  -6.76686307707935E+01  1.14758067155922E+00
(PID.TID 0000.0001)  ploadbar=  1.01165678646685E+05
 cg2d: Sum(rhs),rhsMax =  -6.60805780393739E+01  1.17571952470537E+00
(PID.TID 0000.0001)  ploadbar=  1.01165820531595E+05
 cg2d: Sum(rhs),rhsMax =  -6.43556404041401E+01  1.20781960279381E+00
(PID.TID 0000.0001)  ploadbar=  1.01165962416505E+05
 cg2d: Sum(rhs),rhsMax =  -6.25826549573366E+01  1.24265841296409E+00
(PID.TID 0000.0001)  ploadbar=  1.01165139519651E+05
 cg2d: Sum(rhs),rhsMax =  -6.09865837047466E+01  1.27582899302446E+00
(PID.TID 0000.0001)  ploadbar=  1.01164316622796E+05
 cg2d: Sum(rhs),rhsMax =  -5.96219438093208E+01  1.30570641245397E+00
(PID.TID 0000.0001)  ploadbar=  1.01163493725942E+05
 cg2d: Sum(rhs),rhsMax =  -5.85325629994725E+01  1.33070903252140E+00
(PID.TID 0000.0001)  ploadbar=  1.01162670829088E+05
 cg2d: Sum(rhs),rhsMax =  -5.77885149118446E+01  1.34856592486190E+00
(PID.TID 0000.0001)  ploadbar=  1.01161847932233E+05
 cg2d: Sum(rhs),rhsMax =  -5.74310131075686E+01  1.35770506216762E+00
(PID.TID 0000.0001)  ploadbar=  1.01161025035379E+05
 cg2d: Sum(rhs),rhsMax =  -5.71840375503100E+01  1.36422146602515E+00
(PID.TID 0000.0001)  ploadbar=  1.01159815421633E+05
 cg2d: Sum(rhs),rhsMax =  -5.72725917209630E+01  1.36266701906955E+00
(PID.TID 0000.0001)  ploadbar=  1.01158605807888E+05
 cg2d: Sum(rhs),rhsMax =  -5.77262531472579E+01  1.35241546619987E+00
(PID.TID 0000.0001)  ploadbar=  1.01157396194143E+05
 cg2d: Sum(rhs),rhsMax =  -5.84623260352681E+01  1.33575150815286E+00
(PID.TID 0000.0001)  ploadbar=  1.01156186580398E+05
 cg2d: Sum(rhs),rhsMax =  -5.94535885762985E+01  1.31375490554161E+00
(PID.TID 0000.0001)  ploadbar=  1.01154976966653E+05
 cg2d: Sum(rhs),rhsMax =  -6.06852348847338E+01  1.28727469296557E+00
(PID.TID 0000.0001)  ploadbar=  1.01153767352907E+05
 cg2d: Sum(rhs),rhsMax =  -6.19767253472883E+01  1.26071150700584E+00
(PID.TID 0000.0001)  ploadbar=  1.01152669937715E+05
 cg2d: Sum(rhs),rhsMax =  -6.29425348108094E+01  1.24170209459669E+00
(PID.TID 0000.0001)  ploadbar=  1.01151572522522E+05
 cg2d: Sum(rhs),rhsMax =  -6.35414366575417E+01  1.23040758395262E+00
(PID.TID 0000.0001)  ploadbar=  1.01150475107329E+05
 cg2d: Sum(rhs),rhsMax =  -6.38572986021644E+01  1.22480764904818E+00
(PID.TID 0000.0001)  ploadbar=  1.01149377692136E+05
 cg2d: Sum(rhs),rhsMax =  -6.40453706950189E+01  1.22177696078039E+00
(PID.TID 0000.0001)  ploadbar=  1.01148280276944E+05
 cg2d: Sum(rhs),rhsMax =  -6.42285550717882E+01  1.21893684794323E+00
(PID.TID 0000.0001)  ploadbar=  1.01147182861751E+05
 cg2d: Sum(rhs),rhsMax =  -6.46353233235497E+01  1.21189824963006E+00
(PID.TID 0000.0001)  ploadbar=  1.01146502013109E+05
 cg2d: Sum(rhs),rhsMax =  -6.51085198927142E+01  1.20370979515168E+00
(PID.TID 0000.0001)  ploadbar=  1.01145821164466E+05
 cg2d: Sum(rhs),rhsMax =  -6.55967116465110E+01  1.19535919965585E+00
(PID.TID 0000.0001)  ploadbar=  1.01145140315824E+05
 cg2d: Sum(rhs),rhsMax =  -6.58139093069190E+01  1.19201530680191E+00
(PID.TID 0000.0001)  ploadbar=  1.01144459467182E+05
 cg2d: Sum(rhs),rhsMax =  -6.56486003780697E+01  1.19562247874658E+00
(PID.TID 0000.0001)  ploadbar=  1.01143778618539E+05
 cg2d: Sum(rhs),rhsMax =  -6.55046114136413E+01  1.19886507831925E+00
(PID.TID 0000.0001)  ploadbar=  1.01143097769897E+05
 cg2d: Sum(rhs),rhsMax =  -6.54249660555014E+01  1.20093999938326E+00
(PID.TID 0000.0001)  ploadbar=  1.01142112627958E+05
 cg2d: Sum(rhs),rhsMax =  -6.54048350639562E+01  1.20191504742835E+00
(PID.TID 0000.0001)  ploadbar=  1.01141127486018E+05
 cg2d: Sum(rhs),rhsMax =  -6.54487235511668E+01  1.20170366111620E+00
(PID.TID 0000.0001)  ploadbar=  1.01140142344079E+05
 cg2d: Sum(rhs),rhsMax =  -6.55490365365436E+01  1.20044917835803E+00
(PID.TID 0000.0001)  ploadbar=  1.01139157202140E+05
 cg2d: Sum(rhs),rhsMax =  -6.57021978170864E+01  1.19822638191746E+00
(PID.TID 0000.0001)  ploadbar=  1.01138172060200E+05
 cg2d: Sum(rhs),rhsMax =  -6.59010712528502E+01  1.19517810548963E+00
(PID.TID 0000.0001)  ploadbar=  1.01137186918261E+05
 cg2d: Sum(rhs),rhsMax =  -6.61016397009479E+01  1.19204494697191E+00
(PID.TID 0000.0001)  ploadbar=  1.01135858037308E+05
 cg2d: Sum(rhs),rhsMax =  -6.62315856304674E+01  1.19012200584403E+00
(PID.TID 0000.0001)  ploadbar=  1.01134529156354E+05
 cg2d: Sum(rhs),rhsMax =  -6.61773929731108E+01  1.19143776859775E+00
(PID.TID 0000.0001)  ploadbar=  1.01133200275401E+05
 cg2d: Sum(rhs),rhsMax =  -6.61091159352960E+01  1.19293863857371E+00
(PID.TID 0000.0001)  ploadbar=  1.01131871394447E+05
 cg2d: Sum(rhs),rhsMax =  -6.60158527951080E+01  1.19482673489296E+00
(PID.TID 0000.0001)  ploadbar=  1.01130542513494E+05
 cg2d: Sum(rhs),rhsMax =  -6.59016961691283E+01  1.19702872665476E+00
(PID.TID 0000.0001)  ploadbar=  1.01129213632540E+05
 cg2d: Sum(rhs),rhsMax =  -6.57228394558110E+01  1.20046676701901E+00
(PID.TID 0000.0001)  ploadbar=  1.01129978402546E+05
 cg2d: Sum(rhs),rhsMax =  -6.55327195912881E+01  1.20417861017164E+00
(PID.TID 0000.0001)  ploadbar=  1.01130743172552E+05
 cg2d: Sum(rhs),rhsMax =  -6.53374966764954E+01  1.20805540985751E+00
(PID.TID 0000.0001)  ploadbar=  1.01131507942559E+05
 cg2d: Sum(rhs),rhsMax =  -6.51486984339944E+01  1.21188598694844E+00
(PID.TID 0000.0001)  ploadbar=  1.01132272712565E+05
 cg2d: Sum(rhs),rhsMax =  -6.49670777621980E+01  1.21565480304816E+00
(PID.TID 0000.0001)  ploadbar=  1.01133037482571E+05
 cg2d: Sum(rhs),rhsMax =  -6.47842710265138E+01  1.21951595076353E+00
(PID.TID 0000.0001)  ploadbar=  1.01133802252577E+05
 cg2d: Sum(rhs),rhsMax =  -6.45923869834509E+01  1.22355758212145E+00
(PID.TID 0000.0001)  ploadbar=  1.01132484449642E+05
 cg2d: Sum(rhs),rhsMax =  -6.44489342271555E+01  1.22668736133788E+00
(PID.TID 0000.0001)  ploadbar=  1.01131166646707E+05
 cg2d: Sum(rhs),rhsMax =  -6.43449005439903E+01  1.22907005755331E+00
(PID.TID 0000.0001)  ploadbar=  1.01129848843772E+05
 cg2d: Sum(rhs),rhsMax =  -6.42727609219212E+01  1.23084433718189E+00
(PID.TID 0000.0001)  ploadbar=  1.01128531040837E+05
 cg2d: Sum(rhs),rhsMax =  -6.42288156940027E+01  1.23208270000589E+00
(PID.TID 0000.0001)  ploadbar=  1.01127213237903E+05
 cg2d: Sum(rhs),rhsMax =  -6.41364969649125E+01  1.23425957769521E+00
(PID.TID 0000.0001)  ploadbar=  1.01125895434968E+05
 cg2d: Sum(rhs),rhsMax =  -6.40075919346670E+01  1.23714922250940E+00
(PID.TID 0000.0001)  ploadbar=  1.01124829209727E+05
 cg2d: Sum(rhs),rhsMax =  -6.38795914507415E+01  1.24002407024077E+00
(PID.TID 0000.0001)  ploadbar=  1.01123762984485E+05
 cg2d: Sum(rhs),rhsMax =  -6.37548068721823E+01  1.24283649961997E+00
(PID.TID 0000.0001)  ploadbar=  1.01122696759244E+05
 cg2d: Sum(rhs),rhsMax =  -6.36368392737948E+01  1.24551237702762E+00
(PID.TID 0000.0001)  ploadbar=  1.01121630534003E+05
 cg2d: Sum(rhs),rhsMax =  -6.35272612696109E+01  1.24801847774971E+00
(PID.TID 0000.0001)  ploadbar=  1.01120564308762E+05
 cg2d: Sum(rhs),rhsMax =  -6.34264087400528E+01  1.25034474364668E+00
(PID.TID 0000.0001)  ploadbar=  1.01119498083521E+05
 cg2d: Sum(rhs),rhsMax =  -6.33344740835132E+01  1.25246207289008E+00
(PID.TID 0000.0001)  ploadbar=  1.01118239131688E+05
 cg2d: Sum(rhs),rhsMax =  -6.32291814310873E+01  1.25480978956515E+00
(PID.TID 0000.0001)  ploadbar=  1.01116980179855E+05
 cg2d: Sum(rhs),rhsMax =  -6.31107138647346E+01  1.25738988847022E+00
(PID.TID 0000.0001)  ploadbar=  1.01115721228022E+05
 cg2d: Sum(rhs),rhsMax =  -6.29910615752632E+01  1.25996760726634E+00
(PID.TID 0000.0001)  ploadbar=  1.01114462276189E+05
 cg2d: Sum(rhs),rhsMax =  -6.28658800992978E+01  1.26263217552638E+00
(PID.TID 0000.0001)  ploadbar=  1.01113203324357E+05
 cg2d: Sum(rhs),rhsMax =  -6.27314070664926E+01  1.26545545889528E+00
(PID.TID 0000.0001)  ploadbar=  1.01111944372524E+05
 cg2d: Sum(rhs),rhsMax =  -6.25731993078647E+01  1.26882584215275E+00
(PID.TID 0000.0001)  ploadbar=  1.01111167582509E+05
 cg2d: Sum(rhs),rhsMax =  -6.24153732928024E+01  1.27225642109241E+00
(PID.TID 0000.0001)  ploadbar=  1.01110390792494E+05
 cg2d: Sum(rhs),rhsMax =  -6.22649740620251E+01  1.27560129165629E+00
(PID.TID 0000.0001)  ploadbar=  1.01109614002479E+05
 cg2d: Sum(rhs),rhsMax =  -6.21248485511997E+01  1.27880036053868E+00
(PID.TID 0000.0001)  ploadbar=  1.01108837212465E+05
 cg2d: Sum(rhs),rhsMax =  -6.19963859619516E+01  1.28182155792687E+00
(PID.TID 0000.0001)  ploadbar=  1.01108060422450E+05
 cg2d: Sum(rhs),rhsMax =  -6.18798202537304E+01  1.28465799916186E+00
(PID.TID 0000.0001)  ploadbar=  1.01107283632435E+05
 cg2d: Sum(rhs),rhsMax =  -6.18105316725475E+01  1.28650391677522E+00
(PID.TID 0000.0001)  ploadbar=  1.01106215628180E+05
 cg2d: Sum(rhs),rhsMax =  -6.17478775621324E+01  1.28819913150248E+00
(PID.TID 0000.0001)  ploadbar=  1.01105147623925E+05
 cg2d: Sum(rhs),rhsMax =  -6.16899159794187E+01  1.28978502041839E+00
(PID.TID 0000.0001)  ploadbar=  1.01104079619670E+05
 cg2d: Sum(rhs),rhsMax =  -6.16368210824355E+01  1.29126136675038E+00
(PID.TID 0000.0001)  ploadbar=  1.01103011615415E+05
 cg2d: Sum(rhs),rhsMax =  -6.15873995025116E+01  1.29265760161201E+00
(PID.TID 0000.0001)  ploadbar=  1.01101943611160E+05
 cg2d: Sum(rhs),rhsMax =  -6.15413439726663E+01  1.29398031257040E+00
(PID.TID 0000.0001)  ploadbar=  1.01100875606905E+05
 cg2d: Sum(rhs),rhsMax =  -6.14792517223524E+01  1.29566528356594E+00
(PID.TID 0000.0001)  ploadbar=  1.01101916688943E+05
 cg2d: Sum(rhs),rhsMax =  -6.14112487424241E+01  1.29749467093862E+00
(PID.TID 0000.0001)  ploadbar=  1.01102957770981E+05
 cg2d: Sum(rhs),rhsMax =  -6.13346079380805E+01  1.29953044730627E+00
(PID.TID 0000.0001)  ploadbar=  1.01103998853019E+05
 cg2d: Sum(rhs),rhsMax =  -6.12415906437454E+01  1.30193956034812E+00
(PID.TID 0000.0001)  ploadbar=  1.01105039935057E+05
 cg2d: Sum(rhs),rhsMax =  -6.11249242491970E+01  1.30488073362496E+00
(PID.TID 0000.0001)  ploadbar=  1.01106081017095E+05
 cg2d: Sum(rhs),rhsMax =  -6.09780077613620E+01  1.30850177590556E+00
(PID.TID 0000.0001)  ploadbar=  1.01107122099133E+05
 cg2d: Sum(rhs),rhsMax =  -6.08020608925266E+01  1.31270243725024E+00
(PID.TID 0000.0001)  ploadbar=  1.01107155440714E+05
 cg2d: Sum(rhs),rhsMax =  -6.06005407984678E+01  1.31741364046750E+00
(PID.TID 0000.0001)  ploadbar=  1.01107188782296E+05
 cg2d: Sum(rhs),rhsMax =  -6.03765291326726E+01  1.32258015164667E+00
(PID.TID 0000.0001)  ploadbar=  1.01107222123877E+05
 cg2d: Sum(rhs),rhsMax =  -6.01429933205230E+01  1.32792994547782E+00
(PID.TID 0000.0001)  ploadbar=  1.01107255465458E+05
 cg2d: Sum(rhs),rhsMax =  -5.99188726171962E+01  1.33305028186624E+00
(PID.TID 0000.0001)  ploadbar=  1.01107288807040E+05
 cg2d: Sum(rhs),rhsMax =  -5.97188976122269E+01  1.33760276913553E+00
(PID.TID 0000.0001)  ploadbar=  1.01107322148621E+05
 cg2d: Sum(rhs),rhsMax =  -5.94881955688924E+01  1.34293159982169E+00
(PID.TID 0000.0001)  ploadbar=  1.01106796604661E+05
 cg2d: Sum(rhs),rhsMax =  -5.92681047087038E+01  1.34811113506226E+00
(PID.TID 0000.0001)  ploadbar=  1.01106271060700E+05
 cg2d: Sum(rhs),rhsMax =  -5.90612944199072E+01  1.35307452528962E+00
(PID.TID 0000.0001)  ploadbar=  1.01105745516740E+05
 cg2d: Sum(rhs),rhsMax =  -5.88695668380865E+01  1.35777604783247E+00
(PID.TID 0000.0001)  ploadbar=  1.01105219972780E+05
 cg2d: Sum(rhs),rhsMax =  -5.86912091590859E+01  1.36225284011660E+00
(PID.TID 0000.0001)  ploadbar=  1.01104694428819E+05
 cg2d: Sum(rhs),rhsMax =  -5.87751389715252E+01  1.36071549765648E+00
(PID.TID 0000.0001)  ploadbar=  1.01104168884859E+05
 cg2d: Sum(rhs),rhsMax =  -5.93941466770696E+01  1.34693054399309E+00
(PID.TID 0000.0001)  ploadbar=  1.01104900793006E+05
 cg2d: Sum(rhs),rhsMax =  -6.00733069612506E+01  1.33209010600231E+00
(PID.TID 0000.0001)  ploadbar=  1.01105632701153E+05
 cg2d: Sum(rhs),rhsMax =  -6.08144605610967E+01  1.31623769128074E+00
(PID.TID 0000.0001)  ploadbar=  1.01106364609300E+05
 cg2d: Sum(rhs),rhsMax =  -6.16213381835096E+01  1.29938440711398E+00
(PID.TID 0000.0001)  ploadbar=  1.01107096517447E+05
 cg2d: Sum(rhs),rhsMax =  -6.24913019237554E+01  1.28168200732232E+00
(PID.TID 0000.0001)  ploadbar=  1.01107828425594E+05
 cg2d: Sum(rhs),rhsMax =  -6.34299045033490E+01  1.26310956470966E+00
(PID.TID 0000.0001)  ploadbar=  1.01108560333741E+05
 cg2d: Sum(rhs),rhsMax =  -6.44095039468903E+01  1.24431507230174E+00
(PID.TID 0000.0001)  ploadbar=  1.01109126972413E+05
 cg2d: Sum(rhs),rhsMax =  -6.53888773975079E+01  1.22611165180555E+00
(PID.TID 0000.0001)  ploadbar=  1.01109693611086E+05
 cg2d: Sum(rhs),rhsMax =  -6.63537235121250E+01  1.20873610164505E+00
(PID.TID 0000.0001)  ploadbar=  1.01110260249758E+05
 cg2d: Sum(rhs),rhsMax =  -6.72982818365981E+01  1.19224652373917E+00
(PID.TID 0000.0001)  ploadbar=  1.01110826888430E+05
 cg2d: Sum(rhs),rhsMax =  -6.82211980764090E+01  1.17661594045383E+00
(PID.TID 0000.0001)  ploadbar=  1.01111393527103E+05
 cg2d: Sum(rhs),rhsMax =  -6.91247399974046E+01  1.16175958936546E+00
(PID.TID 0000.0001)  ploadbar=  1.01111960165775E+05
 cg2d: Sum(rhs),rhsMax =  -7.00177368861187E+01  1.14741427410879E+00
(PID.TID 0000.0001)  ploadbar=  1.01113234911292E+05
 cg2d: Sum(rhs),rhsMax =  -7.03762947444624E+01  1.14198761686312E+00
(PID.TID 0000.0001)  ploadbar=  1.01114509656809E+05
 cg2d: Sum(rhs),rhsMax =  -7.00646877739808E+01  1.14743981330040E+00
(PID.TID 0000.0001)  ploadbar=  1.01115784402326E+05
 cg2d: Sum(rhs),rhsMax =  -6.97665682943966E+01  1.15267147310240E+00
(PID.TID 0000.0001)  ploadbar=  1.01117059147843E+05
 cg2d: Sum(rhs),rhsMax =  -6.94713383179040E+01  1.15785298886984E+00
(PID.TID 0000.0001)  ploadbar=  1.01118333893360E+05
 cg2d: Sum(rhs),rhsMax =  -6.91706473626013E+01  1.16311982063848E+00
(PID.TID 0000.0001)  ploadbar=  1.01119608638877E+05
 cg2d: Sum(rhs),rhsMax =  -6.88955046553381E+01  1.16803115418574E+00
(PID.TID 0000.0001)  ploadbar=  1.01120220236145E+05
 cg2d: Sum(rhs),rhsMax =  -6.86301729170941E+01  1.17284370549070E+00
(PID.TID 0000.0001)  ploadbar=  1.01120831833413E+05
 cg2d: Sum(rhs),rhsMax =  -6.83658372839632E+01  1.17770657010921E+00
(PID.TID 0000.0001)  ploadbar=  1.01121443430680E+05
 cg2d: Sum(rhs),rhsMax =  -6.81050471188401E+01  1.18257720509504E+00
(PID.TID 0000.0001)  ploadbar=  1.01122055027948E+05
 cg2d: Sum(rhs),rhsMax =  -6.78490213316614E+01  1.18743408418591E+00
(PID.TID 0000.0001)  ploadbar=  1.01122666625215E+05
 cg2d: Sum(rhs),rhsMax =  -6.75966332410647E+01  1.19229870439930E+00
(PID.TID 0000.0001)  ploadbar=  1.01123278222483E+05
 cg2d: Sum(rhs),rhsMax =  -6.73278898365276E+01  1.19747642544920E+00
(PID.TID 0000.0001)  ploadbar=  1.01124307438285E+05
 cg2d: Sum(rhs),rhsMax =  -6.70717973112494E+01  1.20245491235260E+00
(PID.TID 0000.0001)  ploadbar=  1.01125336654088E+05
 cg2d: Sum(rhs),rhsMax =  -6.68573188251746E+01  1.20670959225389E+00
(PID.TID 0000.0001)  ploadbar=  1.01126365869891E+05
 cg2d: Sum(rhs),rhsMax =  -6.66873017221872E+01  1.21017192833667E+00
(PID.TID 0000.0001)  ploadbar=  1.01127395085693E+05
 cg2d: Sum(rhs),rhsMax =  -6.65637661558018E+01  1.21279794702096E+00
(PID.TID 0000.0001)  ploadbar=  1.01128424301496E+05
 cg2d: Sum(rhs),rhsMax =  -6.64854712454496E+01  1.21459662892504E+00
(PID.TID 0000.0001)  ploadbar=  1.01129453517298E+05
 cg2d: Sum(rhs),rhsMax =  -6.65740650832899E+01  1.21337055785507E+00
(PID.TID 0000.0001)  ploadbar=  1.01129701330261E+05
 cg2d: Sum(rhs),rhsMax =  -6.66052201384904E+01  1.21321010607099E+00
(PID.TID 0000.0001)  ploadbar=  1.01129949143223E+05
 cg2d: Sum(rhs),rhsMax =  -6.65941228329703E+01  1.21383742102809E+00
(PID.TID 0000.0001)  ploadbar=  1.01130196956185E+05
 cg2d: Sum(rhs),rhsMax =  -6.65553752961667E+01  1.21498790297572E+00
(PID.TID 0000.0001)  ploadbar=  1.01130444769147E+05
 cg2d: Sum(rhs),rhsMax =  -6.65050298927859E+01  1.21637506705855E+00
(PID.TID 0000.0001)  ploadbar=  1.01130692582110E+05
 cg2d: Sum(rhs),rhsMax =  -6.64504892388103E+01  1.21786683117507E+00
(PID.TID 0000.0001)  ploadbar=  1.01130940395072E+05
 cg2d: Sum(rhs),rhsMax =  -6.64982953455071E+01  1.21741077570734E+00
(PID.TID 0000.0001)  ploadbar=  1.01131295781730E+05
 cg2d: Sum(rhs),rhsMax =  -6.65893619016997E+01  1.21608685682631E+00
(PID.TID 0000.0001)  ploadbar=  1.01131651168389E+05
 cg2d: Sum(rhs),rhsMax =  -6.67244748129684E+01  1.21389014526561E+00
(PID.TID 0000.0001)  ploadbar=  1.01132006555047E+05
 cg2d: Sum(rhs),rhsMax =  -6.69311779931235E+01  1.21033425552890E+00
(PID.TID 0000.0001)  ploadbar=  1.01132361941706E+05
 cg2d: Sum(rhs),rhsMax =  -6.71873004903782E+01  1.20583955490504E+00
(PID.TID 0000.0001)  ploadbar=  1.01132717328364E+05
 cg2d: Sum(rhs),rhsMax =  -6.74837205458711E+01  1.20058821662010E+00
(PID.TID 0000.0001)  ploadbar=  1.01133072715022E+05
 cg2d: Sum(rhs),rhsMax =  -6.76784701185972E+01  1.19724348996848E+00
(PID.TID 0000.0001)  ploadbar=  1.01132503151574E+05
 cg2d: Sum(rhs),rhsMax =  -6.78742962426252E+01  1.19395960122672E+00
(PID.TID 0000.0001)  ploadbar=  1.01131933588125E+05
 cg2d: Sum(rhs),rhsMax =  -6.80389910355770E+01  1.19129738945077E+00
(PID.TID 0000.0001)  ploadbar=  1.01131364024676E+05
 cg2d: Sum(rhs),rhsMax =  -6.81697646637033E+01  1.18929954576418E+00
(PID.TID 0000.0001)  ploadbar=  1.01130794461228E+05
 cg2d: Sum(rhs),rhsMax =  -6.82651485768934E+01  1.18798755913527E+00
(PID.TID 0000.0001)  ploadbar=  1.01130224897779E+05
 cg2d: Sum(rhs),rhsMax =  -6.83257807647229E+01  1.18734545904170E+00
(PID.TID 0000.0001)  ploadbar=  1.01129655334330E+05
 cg2d: Sum(rhs),rhsMax =  -6.83150361190411E+01  1.18792769647298E+00
(PID.TID 0000.0001)  ploadbar=  1.01130308624749E+05
 cg2d: Sum(rhs),rhsMax =  -6.82904259258385E+01  1.18873468749538E+00
(PID.TID 0000.0001)  ploadbar=  1.01130961915168E+05
 cg2d: Sum(rhs),rhsMax =  -6.82537999564808E+01  1.18973497557238E+00
(PID.TID 0000.0001)  ploadbar=  1.01131615205587E+05
 cg2d: Sum(rhs),rhsMax =  -6.82129865515920E+01  1.19079292383098E+00
(PID.TID 0000.0001)  ploadbar=  1.01132268496006E+05
 cg2d: Sum(rhs),rhsMax =  -6.81894177083431E+01  1.19153405959859E+00
(PID.TID 0000.0001)  ploadbar=  1.01132921786425E+05
 cg2d: Sum(rhs),rhsMax =  -6.81912540823283E+01  1.19181506609624E+00
(PID.TID 0000.0001)  ploadbar=  1.01133575076843E+05
 cg2d: Sum(rhs),rhsMax =  -6.81316867873890E+01  1.19317293636469E+00
(PID.TID 0000.0001)  ploadbar=  1.01133789471669E+05
 cg2d: Sum(rhs),rhsMax =  -6.80991913319911E+01  1.19405462860135E+00
(PID.TID 0000.0001)  ploadbar=  1.01134003866494E+05
 cg2d: Sum(rhs),rhsMax =  -6.80702126040685E+01  1.19487091385273E+00
(PID.TID 0000.0001)  ploadbar=  1.01134218261320E+05
 cg2d: Sum(rhs),rhsMax =  -6.80453188777888E+01  1.19561280243055E+00
(PID.TID 0000.0001)  ploadbar=  1.01134432656146E+05
 cg2d: Sum(rhs),rhsMax =  -6.80299231922279E+01  1.19618711197641E+00
(PID.TID 0000.0001)  ploadbar=  1.01134647050971E+05
 cg2d: Sum(rhs),rhsMax =  -6.80080061869349E+01  1.19687870274616E+00
(PID.TID 0000.0001)  ploadbar=  1.01134861445797E+05
 cg2d: Sum(rhs),rhsMax =  -6.79717447857972E+01  1.19776279236991E+00
(PID.TID 0000.0001)  ploadbar=  1.01133812565457E+05
 cg2d: Sum(rhs),rhsMax =  -6.79050643569445E+01  1.19912110539326E+00
(PID.TID 0000.0001)  ploadbar=  1.01132763685117E+05
 cg2d: Sum(rhs),rhsMax =  -6.78161248629732E+01  1.20081559645513E+00
(PID.TID 0000.0001)  ploadbar=  1.01131714804777E+05
 cg2d: Sum(rhs),rhsMax =  -6.76986055194793E+01  1.20296564293813E+00
(PID.TID 0000.0001)  ploadbar=  1.01130665924437E+05
 cg2d: Sum(rhs),rhsMax =  -6.75663213651662E+01  1.20533337430480E+00
(PID.TID 0000.0001)  ploadbar=  1.01129617044097E+05
 cg2d: Sum(rhs),rhsMax =  -6.74422024623746E+01  1.20751018369805E+00
(PID.TID 0000.0001)  ploadbar=  1.01128568163758E+05
 cg2d: Sum(rhs),rhsMax =  -6.74306202580928E+01  1.20774305904965E+00
(PID.TID 0000.0001)  ploadbar=  1.01127572200042E+05
 cg2d: Sum(rhs),rhsMax =  -6.74095919272783E+01  1.20820132453832E+00
(PID.TID 0000.0001)  ploadbar=  1.01126576236327E+05
 cg2d: Sum(rhs),rhsMax =  -6.73933333185643E+01  1.20863177825431E+00
(PID.TID 0000.0001)  ploadbar=  1.01125580272611E+05
 cg2d: Sum(rhs),rhsMax =  -6.74059824366666E+01  1.20860238690007E+00
(PID.TID 0000.0001)  ploadbar=  1.01124584308896E+05
 cg2d: Sum(rhs),rhsMax =  -6.74487838689854E+01  1.20809034764092E+00
(PID.TID 0000.0001)  ploadbar=  1.01123588345180E+05
 cg2d: Sum(rhs),rhsMax =  -6.75334736131331E+01  1.20689119216156E+00
(PID.TID 0000.0001)  ploadbar=  1.01122592381465E+05
 cg2d: Sum(rhs),rhsMax =  -6.76051209085273E+01  1.20591957557569E+00
(PID.TID 0000.0001)  ploadbar=  1.01121363376317E+05
 cg2d: Sum(rhs),rhsMax =  -6.75059488950073E+01  1.20799225456334E+00
(PID.TID 0000.0001)  ploadbar=  1.01120134371170E+05
 cg2d: Sum(rhs),rhsMax =  -6.74500205068699E+01  1.20929118161800E+00
(PID.TID 0000.0001)  ploadbar=  1.01118905366022E+05
 cg2d: Sum(rhs),rhsMax =  -6.74218036234105E+01  1.21009204233551E+00
(PID.TID 0000.0001)  ploadbar=  1.01117676360875E+05
 cg2d: Sum(rhs),rhsMax =  -6.74086637523552E+01  1.21062772707706E+00
(PID.TID 0000.0001)  ploadbar=  1.01116447355728E+05
 cg2d: Sum(rhs),rhsMax =  -6.74004105989083E+01  1.21108471448237E+00
(PID.TID 0000.0001)  ploadbar=  1.01115218350580E+05
 cg2d: Sum(rhs),rhsMax =  -6.73644751423687E+01  1.21207933106943E+00
(PID.TID 0000.0001)  ploadbar=  1.01114595599669E+05
 cg2d: Sum(rhs),rhsMax =  -6.72799326756719E+01  1.21398413391178E+00
(PID.TID 0000.0001)  ploadbar=  1.01113972848757E+05
 cg2d: Sum(rhs),rhsMax =  -6.71440942104926E+01  1.21685864843481E+00
(PID.TID 0000.0001)  ploadbar=  1.01113350097846E+05
 cg2d: Sum(rhs),rhsMax =  -6.69659536039608E+01  1.22055502530535E+00
(PID.TID 0000.0001)  ploadbar=  1.01112727346934E+05
 cg2d: Sum(rhs),rhsMax =  -6.67721308260046E+01  1.22460230680632E+00
(PID.TID 0000.0001)  ploadbar=  1.01112104596023E+05
 cg2d: Sum(rhs),rhsMax =  -6.65922382586457E+01  1.22846440963271E+00
(PID.TID 0000.0001)  ploadbar=  1.01111481845111E+05
 cg2d: Sum(rhs),rhsMax =  -6.63402439848204E+01  1.23363507190171E+00
(PID.TID 0000.0001)  ploadbar=  1.01110582923777E+05
 cg2d: Sum(rhs),rhsMax =  -6.61737492703435E+01  1.23719029460462E+00
(PID.TID 0000.0001)  ploadbar=  1.01109684002443E+05
 cg2d: Sum(rhs),rhsMax =  -6.61613849609198E+01  1.23782013890887E+00
(PID.TID 0000.0001)  ploadbar=  1.01108785081108E+05
 cg2d: Sum(rhs),rhsMax =  -6.62860936241791E+01  1.23584239330818E+00
(PID.TID 0000.0001)  ploadbar=  1.01107886159774E+05
 cg2d: Sum(rhs),rhsMax =  -6.71685456965717E+01  1.21991126440152E+00
(PID.TID 0000.0001)  ploadbar=  1.01106987238440E+05
 cg2d: Sum(rhs),rhsMax =  -6.78000107574687E+01  1.20881382920152E+00
(PID.TID 0000.0001)  ploadbar=  1.01106088317106E+05
 cg2d: Sum(rhs),rhsMax =  -6.77937259126105E+01  1.20924622104015E+00
(PID.TID 0000.0001)  ploadbar=  1.01107364155545E+05
 cg2d: Sum(rhs),rhsMax =  -6.77471917250458E+01  1.21045223474635E+00
(PID.TID 0000.0001)  ploadbar=  1.01108639993984E+05
 cg2d: Sum(rhs),rhsMax =  -6.77796495247039E+01  1.21030155180903E+00
(PID.TID 0000.0001)  ploadbar=  1.01109915832423E+05
 cg2d: Sum(rhs),rhsMax =  -6.78899532331104E+01  1.20882046192658E+00
(PID.TID 0000.0001)  ploadbar=  1.01111191670862E+05
 cg2d: Sum(rhs),rhsMax =  -6.80532328771973E+01  1.20646762075941E+00
(PID.TID 0000.0001)  ploadbar=  1.01112467509301E+05
 cg2d: Sum(rhs),rhsMax =  -6.82321278413614E+01  1.20391544062757E+00
(PID.TID 0000.0001)  ploadbar=  1.01113743347740E+05
 cg2d: Sum(rhs),rhsMax =  -6.82128137414752E+01  1.20483983814588E+00
(PID.TID 0000.0001)  ploadbar=  1.01113584410854E+05
 cg2d: Sum(rhs),rhsMax =  -6.81858726598249E+01  1.20587251362469E+00
(PID.TID 0000.0001)  ploadbar=  1.01113425473969E+05
 cg2d: Sum(rhs),rhsMax =  -6.81576245434810E+01  1.20690901021545E+00
(PID.TID 0000.0001)  ploadbar=  1.01113266537083E+05
 cg2d: Sum(rhs),rhsMax =  -6.81311646059184E+01  1.20789702166088E+00
(PID.TID 0000.0001)  ploadbar=  1.01113107600198E+05
 cg2d: Sum(rhs),rhsMax =  -6.81083664886725E+01  1.20880735603706E+00
(PID.TID 0000.0001)  ploadbar=  1.01112948663312E+05
 cg2d: Sum(rhs),rhsMax =  -6.80940056304979E+01  1.20955688795996E+00
(PID.TID 0000.0001)  ploadbar=  1.01112789726426E+05
 cg2d: Sum(rhs),rhsMax =  -6.80189593043703E+01  1.21142963011360E+00
(PID.TID 0000.0001)  ploadbar=  1.01112199177453E+05
 cg2d: Sum(rhs),rhsMax =  -6.79400610054658E+01  1.21341766903806E+00
(PID.TID 0000.0001)  ploadbar=  1.01111608628480E+05
 cg2d: Sum(rhs),rhsMax =  -6.78030468087929E+01  1.21649514701373E+00
(PID.TID 0000.0001)  ploadbar=  1.01111018079507E+05
 cg2d: Sum(rhs),rhsMax =  -6.76239765141036E+01  1.22038910843521E+00
(PID.TID 0000.0001)  ploadbar=  1.01110427530535E+05
 cg2d: Sum(rhs),rhsMax =  -6.74155120300563E+01  1.22488554381748E+00
(PID.TID 0000.0001)  ploadbar=  1.01109836981562E+05
 cg2d: Sum(rhs),rhsMax =  -6.71922089618781E+01  1.22973337872695E+00
(PID.TID 0000.0001)  ploadbar=  1.01109246432589E+05
 cg2d: Sum(rhs),rhsMax =  -6.70285618480645E+01  1.23345072450746E+00
(PID.TID 0000.0001)  ploadbar=  1.01109096272372E+05
 cg2d: Sum(rhs),rhsMax =  -6.69031589585838E+01  1.23641048013502E+00
(PID.TID 0000.0001)  ploadbar=  1.01108946112155E+05
 cg2d: Sum(rhs),rhsMax =  -6.67494140203694E+01  1.23984116721162E+00
(PID.TID 0000.0001)  ploadbar=  1.01108795951938E+05
 cg2d: Sum(rhs),rhsMax =  -6.65929876427234E+01  1.24327436588202E+00
(PID.TID 0000.0001)  ploadbar=  1.01108645791721E+05
 cg2d: Sum(rhs),rhsMax =  -6.64924058080296E+01  1.24561242362957E+00
(PID.TID 0000.0001)  ploadbar=  1.01108495631504E+05
 cg2d: Sum(rhs),rhsMax =  -6.64438672150627E+01  1.24691335988313E+00
(PID.TID 0000.0001)  ploadbar=  1.01108345471287E+05
 cg2d: Sum(rhs),rhsMax =  -6.63210675249432E+01  1.24965684646509E+00
(PID.TID 0000.0001)  ploadbar=  1.01107045492021E+05
 cg2d: Sum(rhs),rhsMax =  -6.62858876811240E+01  1.25079748811045E+00
(PID.TID 0000.0001)  ploadbar=  1.01105745512755E+05
 cg2d: Sum(rhs),rhsMax =  -6.63584592364344E+01  1.24995110156485E+00
(PID.TID 0000.0001)  ploadbar=  1.01104445533489E+05
 cg2d: Sum(rhs),rhsMax =  -6.65287323154800E+01  1.24731967351829E+00
(PID.TID 0000.0001)  ploadbar=  1.01103145554223E+05
 cg2d: Sum(rhs),rhsMax =  -6.67894468089471E+01  1.24306590688811E+00
(PID.TID 0000.0001)  ploadbar=  1.01101845574957E+05
 cg2d: Sum(rhs),rhsMax =  -6.70755918594808E+01  1.23842972794580E+00
(PID.TID 0000.0001)  ploadbar=  1.01100545595691E+05
 cg2d: Sum(rhs),rhsMax =  -6.72379639796226E+01  1.23612075502262E+00
(PID.TID 0000.0001)  ploadbar=  1.01099411674153E+05
 cg2d: Sum(rhs),rhsMax =  -6.73750916138756E+01  1.23430188519054E+00
(PID.TID 0000.0001)  ploadbar=  1.01098277752616E+05
 cg2d: Sum(rhs),rhsMax =  -6.75145355631699E+01  1.23246608656214E+00
(PID.TID 0000.0001)  ploadbar=  1.01097143831078E+05
 cg2d: Sum(rhs),rhsMax =  -6.76589454210512E+01  1.23056813958369E+00
(PID.TID 0000.0001)  ploadbar=  1.01096009909541E+05
 cg2d: Sum(rhs),rhsMax =  -6.78304367984325E+01  1.22821294503387E+00
(PID.TID 0000.0001)  ploadbar=  1.01094875988003E+05
 cg2d: Sum(rhs),rhsMax =  -6.80463990190664E+01  1.22509440445524E+00
(PID.TID 0000.0001)  ploadbar=  1.01093742066465E+05
 cg2d: Sum(rhs),rhsMax =  -6.82516211009800E+01  1.22221582422006E+00
(PID.TID 0000.0001)  ploadbar=  1.01092701111389E+05
 cg2d: Sum(rhs),rhsMax =  -6.84440422585842E+01  1.21961183639228E+00
(PID.TID 0000.0001)  ploadbar=  1.01091660156312E+05
 cg2d: Sum(rhs),rhsMax =  -6.86194480162181E+01  1.21735757118485E+00
(PID.TID 0000.0001)  ploadbar=  1.01090619201235E+05
 cg2d: Sum(rhs),rhsMax =  -6.87480012970550E+01  1.21598093438321E+00
(PID.TID 0000.0001)  ploadbar=  1.01089578246158E+05
 cg2d: Sum(rhs),rhsMax =  -6.88208471386461E+01  1.21563273650911E+00
(PID.TID 0000.0001)  ploadbar=  1.01088537291081E+05
 cg2d: Sum(rhs),rhsMax =  -6.88358087538039E+01  1.21634972185413E+00
(PID.TID 0000.0001)  ploadbar=  1.01087496336004E+05
 cg2d: Sum(rhs),rhsMax =  -6.87039248372927E+01  1.21959784444198E+00
(PID.TID 0000.0001)  ploadbar=  1.01086826328499E+05
 cg2d: Sum(rhs),rhsMax =  -6.85044267205668E+01  1.22399316136266E+00
(PID.TID 0000.0001)  ploadbar=  1.01086156320993E+05
 cg2d: Sum(rhs),rhsMax =  -6.82616339769417E+01  1.22912300778233E+00
(PID.TID 0000.0001)  ploadbar=  1.01085486313488E+05
 cg2d: Sum(rhs),rhsMax =  -6.79833966104457E+01  1.23486480863796E+00
(PID.TID 0000.0001)  ploadbar=  1.01084816305982E+05
 cg2d: Sum(rhs),rhsMax =  -6.76338899983479E+01  1.24188891824267E+00
(PID.TID 0000.0001)  ploadbar=  1.01084146298477E+05
 cg2d: Sum(rhs),rhsMax =  -6.71924623277525E+01  1.25061875424352E+00
(PID.TID 0000.0001)  ploadbar=  1.01083476290971E+05
 cg2d: Sum(rhs),rhsMax =  -6.67847250876198E+01  1.25886803030402E+00
(PID.TID 0000.0001)  ploadbar=  1.01083304002315E+05
 cg2d: Sum(rhs),rhsMax =  -6.64251931727867E+01  1.26633790154330E+00
(PID.TID 0000.0001)  ploadbar=  1.01083131713659E+05
 cg2d: Sum(rhs),rhsMax =  -6.61049503702739E+01  1.27317183791068E+00
(PID.TID 0000.0001)  ploadbar=  1.01082959425003E+05
 cg2d: Sum(rhs),rhsMax =  -6.58257325870574E+01  1.27931559822158E+00
(PID.TID 0000.0001)  ploadbar=  1.01082787136347E+05
 cg2d: Sum(rhs),rhsMax =  -6.55797574255336E+01  1.28490253641992E+00
(PID.TID 0000.0001)  ploadbar=  1.01082614847691E+05
 cg2d: Sum(rhs),rhsMax =  -6.53723461941050E+01  1.28981648908794E+00
(PID.TID 0000.0001)  ploadbar=  1.01082442559036E+05
 cg2d: Sum(rhs),rhsMax =  -6.52586434494380E+01  1.29289569611515E+00
(PID.TID 0000.0001)  ploadbar=  1.01083286208359E+05
 cg2d: Sum(rhs),rhsMax =  -6.51613435780718E+01  1.29565053320141E+00
(PID.TID 0000.0001)  ploadbar=  1.01084129857683E+05
 cg2d: Sum(rhs),rhsMax =  -6.50782959026508E+01  1.29812178428051E+00
(PID.TID 0000.0001)  ploadbar=  1.01084973507007E+05
 cg2d: Sum(rhs),rhsMax =  -6.50294790065316E+01  1.29990988493955E+00
(PID.TID 0000.0001)  ploadbar=  1.01085817156330E+05
 cg2d: Sum(rhs),rhsMax =  -6.50146893327482E+01  1.30101746700135E+00
(PID.TID 0000.0001)  ploadbar=  1.01086660805654E+05
 cg2d: Sum(rhs),rhsMax =  -6.50324399176254E+01  1.30147545635991E+00
(PID.TID 0000.0001)  ploadbar=  1.01087504454978E+05
 cg2d: Sum(rhs),rhsMax =  -6.50990772670582E+01  1.30100673295645E+00
(PID.TID 0000.0001)  ploadbar=  1.01086759892293E+05
 cg2d: Sum(rhs),rhsMax =  -6.51835898904061E+01  1.30022938375812E+00
(PID.TID 0000.0001)  ploadbar=  1.01086015329608E+05
 cg2d: Sum(rhs),rhsMax =  -6.52769756875013E+01  1.29932760023124E+00
(PID.TID 0000.0001)  ploadbar=  1.01085270766922E+05
 cg2d: Sum(rhs),rhsMax =  -6.53915411590319E+01  1.29805879544374E+00
(PID.TID 0000.0001)  ploadbar=  1.01084526204237E+05
 cg2d: Sum(rhs),rhsMax =  -6.55239413282004E+01  1.29649215409883E+00
(PID.TID 0000.0001)  ploadbar=  1.01083781641552E+05
 cg2d: Sum(rhs),rhsMax =  -6.56618006106493E+01  1.29487694691032E+00
(PID.TID 0000.0001)  ploadbar=  1.01083037078867E+05
 cg2d: Sum(rhs),rhsMax =  -6.58093302022405E+01  1.29297525254409E+00
(PID.TID 0000.0001)  ploadbar=  1.01082852806172E+05
 cg2d: Sum(rhs),rhsMax =  -6.59565875260340E+01  1.29097998619374E+00
(PID.TID 0000.0001)  ploadbar=  1.01082668533477E+05
 cg2d: Sum(rhs),rhsMax =  -6.60874769249426E+01  1.28920654828977E+00
(PID.TID 0000.0001)  ploadbar=  1.01082484260782E+05
 cg2d: Sum(rhs),rhsMax =  -6.61999677203157E+01  1.28769665077040E+00
(PID.TID 0000.0001)  ploadbar=  1.01082299988087E+05
 cg2d: Sum(rhs),rhsMax =  -6.62992230870901E+01  1.28634652319760E+00
(PID.TID 0000.0001)  ploadbar=  1.01082115715392E+05
 cg2d: Sum(rhs),rhsMax =  -6.63875277165032E+01  1.28510663238564E+00
(PID.TID 0000.0001)  ploadbar=  1.01081931442697E+05
 cg2d: Sum(rhs),rhsMax =  -6.65097658803273E+01  1.28325455545505E+00
(PID.TID 0000.0001)  ploadbar=  1.01081581899087E+05
 cg2d: Sum(rhs),rhsMax =  -6.66100564512614E+01  1.28186947324220E+00
(PID.TID 0000.0001)  ploadbar=  1.01081232355477E+05
 cg2d: Sum(rhs),rhsMax =  -6.66868471641314E+01  1.28097860434656E+00
(PID.TID 0000.0001)  ploadbar=  1.01080882811867E+05
 cg2d: Sum(rhs),rhsMax =  -6.67391063311096E+01  1.28059700160554E+00
(PID.TID 0000.0001)  ploadbar=  1.01080533268257E+05
 cg2d: Sum(rhs),rhsMax =  -6.67587420209804E+01  1.28087998364948E+00
(PID.TID 0000.0001)  ploadbar=  1.01080183724647E+05
 cg2d: Sum(rhs),rhsMax =  -6.67591800657902E+01  1.28157148505844E+00
(PID.TID 0000.0001)  ploadbar=  1.01079834181037E+05
 cg2d: Sum(rhs),rhsMax =  -6.69493807638879E+01  1.27858341903244E+00
(PID.TID 0000.0001)  ploadbar=  1.01078923877792E+05
 cg2d: Sum(rhs),rhsMax =  -6.73215966788336E+01  1.27211711395879E+00
(PID.TID 0000.0001)  ploadbar=  1.01078013574547E+05
 cg2d: Sum(rhs),rhsMax =  -6.77820417819032E+01  1.26403006344512E+00
(PID.TID 0000.0001)  ploadbar=  1.01077103271302E+05
 cg2d: Sum(rhs),rhsMax =  -6.83183191046958E+01  1.25461681378127E+00
(PID.TID 0000.0001)  ploadbar=  1.01076192968057E+05
 cg2d: Sum(rhs),rhsMax =  -6.89114351218311E+01  1.24429012000122E+00
(PID.TID 0000.0001)  ploadbar=  1.01075282664813E+05
 cg2d: Sum(rhs),rhsMax =  -6.95529959205326E+01  1.23325625578141E+00
(PID.TID 0000.0001)  ploadbar=  1.01074372361568E+05
 cg2d: Sum(rhs),rhsMax =  -7.02576107397972E+01  1.22137243056334E+00
(PID.TID 0000.0001)  ploadbar=  1.01073358278788E+05
 cg2d: Sum(rhs),rhsMax =  -7.09584676749796E+01  1.20982626590565E+00
(PID.TID 0000.0001)  ploadbar=  1.01072344196008E+05
 cg2d: Sum(rhs),rhsMax =  -7.16136764258820E+01  1.19931149360982E+00
(PID.TID 0000.0001)  ploadbar=  1.01071330113228E+05
 cg2d: Sum(rhs),rhsMax =  -7.22397121505741E+01  1.18950957892979E+00
(PID.TID 0000.0001)  ploadbar=  1.01070316030448E+05
 cg2d: Sum(rhs),rhsMax =  -7.28406408437101E+01  1.18032625846219E+00
(PID.TID 0000.0001)  ploadbar=  1.01069301947668E+05
 cg2d: Sum(rhs),rhsMax =  -7.34159830381978E+01  1.17174659575757E+00
(PID.TID 0000.0001)  ploadbar=  1.01068287864888E+05
 cg2d: Sum(rhs),rhsMax =  -7.37383433311535E+01  1.16721390629230E+00
(PID.TID 0000.0001)  ploadbar=  1.01067765693047E+05
 cg2d: Sum(rhs),rhsMax =  -7.41051465166974E+01  1.16194430272621E+00
(PID.TID 0000.0001)  ploadbar=  1.01067243521206E+05
 cg2d: Sum(rhs),rhsMax =  -7.45008688537628E+01  1.15620328586893E+00
(PID.TID 0000.0001)  ploadbar=  1.01066721349365E+05
 cg2d: Sum(rhs),rhsMax =  -7.49727412980598E+01  1.14928612569367E+00
(PID.TID 0000.0001)  ploadbar=  1.01066199177524E+05
 cg2d: Sum(rhs),rhsMax =  -7.55739232014836E+01  1.14043506336373E+00
(PID.TID 0000.0001)  ploadbar=  1.01065677005682E+05
 cg2d: Sum(rhs),rhsMax =  -7.62167735953908E+01  1.13103488707378E+00
(PID.TID 0000.0001)  ploadbar=  1.01065154833841E+05
 cg2d: Sum(rhs),rhsMax =  -7.71805679248936E+01  1.11715154722879E+00
(PID.TID 0000.0001)  ploadbar=  1.01063994978433E+05
 cg2d: Sum(rhs),rhsMax =  -7.85752725053659E+01  1.09757817309791E+00
(PID.TID 0000.0001)  ploadbar=  1.01062835123024E+05
 cg2d: Sum(rhs),rhsMax =  -8.00618675737502E+01  1.07746814552728E+00
(PID.TID 0000.0001)  ploadbar=  1.01061675267616E+05
 cg2d: Sum(rhs),rhsMax =  -8.14923520762839E+01  1.05883879873865E+00
(PID.TID 0000.0001)  ploadbar=  1.01060515412207E+05
 cg2d: Sum(rhs),rhsMax =  -8.29051844968082E+01  1.04109265236291E+00
(PID.TID 0000.0001)  ploadbar=  1.01059355556799E+05
 cg2d: Sum(rhs),rhsMax =  -8.31932282236134E+01  1.03780575664026E+00
(PID.TID 0000.0001)  ploadbar=  1.01058195701390E+05
 cg2d: Sum(rhs),rhsMax =  -8.23319402513112E+01  1.04897612118015E+00
(PID.TID 0000.0001)  ploadbar=  1.01056807551891E+05
 cg2d: Sum(rhs),rhsMax =  -8.15163506682303E+01  1.05978012246397E+00
(PID.TID 0000.0001)  ploadbar=  1.01055419402391E+05
 cg2d: Sum(rhs),rhsMax =  -8.07537611029538E+01  1.07009485158710E+00
(PID.TID 0000.0001)  ploadbar=  1.01054031252892E+05
 cg2d: Sum(rhs),rhsMax =  -8.00400985147260E+01  1.07994593882396E+00
(PID.TID 0000.0001)  ploadbar=  1.01052643103392E+05
 cg2d: Sum(rhs),rhsMax =  -7.93798085582639E+01  1.08924904246697E+00
(PID.TID 0000.0001)  ploadbar=  1.01051254953893E+05
 cg2d: Sum(rhs),rhsMax =  -7.87630884039640E+01  1.09812224922277E+00
(PID.TID 0000.0001)  ploadbar=  1.01049866804393E+05
 cg2d: Sum(rhs),rhsMax =  -7.83152734325234E+01  1.10479724885150E+00
(PID.TID 0000.0001)  ploadbar=  1.01048264543047E+05
 cg2d: Sum(rhs),rhsMax =  -7.79747783142545E+01  1.11006209479989E+00
(PID.TID 0000.0001)  ploadbar=  1.01046662281700E+05
 cg2d: Sum(rhs),rhsMax =  -7.77843951160838E+01  1.11326538574919E+00
(PID.TID 0000.0001)  ploadbar=  1.01045060020353E+05
 cg2d: Sum(rhs),rhsMax =  -7.76478330956874E+01  1.11575530333444E+00
(PID.TID 0000.0001)  ploadbar=  1.01043457759006E+05
 cg2d: Sum(rhs),rhsMax =  -7.65251825042055E+01  1.13270934619504E+00
(PID.TID 0000.0001)  ploadbar=  1.01041855497659E+05
 cg2d: Sum(rhs),rhsMax =  -7.54161824991956E+01  1.15000538542166E+00
(PID.TID 0000.0001)  ploadbar=  1.01040253236312E+05
 cg2d: Sum(rhs),rhsMax =  -7.43308268704021E+01  1.16736972294853E+00
(PID.TID 0000.0001)  ploadbar=  1.01040131450435E+05
 cg2d: Sum(rhs),rhsMax =  -7.33012721527144E+01  1.18427096648000E+00
(PID.TID 0000.0001)  ploadbar=  1.01040009664557E+05
 cg2d: Sum(rhs),rhsMax =  -7.24431649818180E+01  1.19873674882480E+00
(PID.TID 0000.0001)  ploadbar=  1.01039887878680E+05
 cg2d: Sum(rhs),rhsMax =  -7.18364201937242E+01  1.20923258140803E+00
(PID.TID 0000.0001)  ploadbar=  1.01039766092802E+05
 cg2d: Sum(rhs),rhsMax =  -7.15112889967559E+01  1.21503297389061E+00
(PID.TID 0000.0001)  ploadbar=  1.01039644306925E+05
 cg2d: Sum(rhs),rhsMax =  -7.14776612815607E+01  1.21583160062012E+00
(PID.TID 0000.0001)  ploadbar=  1.01039522521047E+05
 cg2d: Sum(rhs),rhsMax =  -7.16935195903020E+01  1.21242238523601E+00
(PID.TID 0000.0001)  ploadbar=  1.01041165243619E+05
 cg2d: Sum(rhs),rhsMax =  -7.20814271522551E+01  1.20616912849721E+00
(PID.TID 0000.0001)  ploadbar=  1.01042807966191E+05
 cg2d: Sum(rhs),rhsMax =  -7.25729481918515E+01  1.19829054551048E+00
(PID.TID 0000.0001)  ploadbar=  1.01044450688763E+05
 cg2d: Sum(rhs),rhsMax =  -7.24664591039478E+01  1.20036337152738E+00
(PID.TID 0000.0001)  ploadbar=  1.01046093411335E+05
 cg2d: Sum(rhs),rhsMax =  -7.18828565235477E+01  1.21044710649345E+00
(PID.TID 0000.0001)  ploadbar=  1.01047736133907E+05
 cg2d: Sum(rhs),rhsMax =  -7.12461191109639E+01  1.22163309791737E+00
(PID.TID 0000.0001)  ploadbar=  1.01049378856479E+05
 cg2d: Sum(rhs),rhsMax =  -7.02209095787941E+01  1.23982935459969E+00
(PID.TID 0000.0001)  ploadbar=  1.01050774038857E+05
 cg2d: Sum(rhs),rhsMax =  -6.84628119989199E+01  1.27202491010749E+00
(PID.TID 0000.0001)  ploadbar=  1.01052169221235E+05
 cg2d: Sum(rhs),rhsMax =  -6.67155397716263E+01  1.30569732756041E+00
(PID.TID 0000.0001)  ploadbar=  1.01053564403614E+05
 cg2d: Sum(rhs),rhsMax =  -6.58171791343434E+01  1.32387632373961E+00
(PID.TID 0000.0001)  ploadbar=  1.01054959585992E+05
 cg2d: Sum(rhs),rhsMax =  -6.52658394550642E+01  1.33542326068188E+00
(PID.TID 0000.0001)  ploadbar=  1.01056354768370E+05
 cg2d: Sum(rhs),rhsMax =  -6.47646795788845E+01  1.34613688180839E+00
(PID.TID 0000.0001)  ploadbar=  1.01057749950748E+05
 cg2d: Sum(rhs),rhsMax =  -6.43634825901804E+01  1.35496587676202E+00
(PID.TID 0000.0001)  ploadbar=  1.01059536933936E+05
 cg2d: Sum(rhs),rhsMax =  -6.39619541407389E+01  1.36396153820995E+00
(PID.TID 0000.0001)  ploadbar=  1.01061323917123E+05
 cg2d: Sum(rhs),rhsMax =  -6.35203502888464E+01  1.37398529739580E+00
(PID.TID 0000.0001)  ploadbar=  1.01063110900311E+05
 cg2d: Sum(rhs),rhsMax =  -6.28720136224925E+01  1.38875288752765E+00
(PID.TID 0000.0001)  ploadbar=  1.01064897883498E+05
 cg2d: Sum(rhs),rhsMax =  -6.20278095016328E+01  1.40831698988986E+00
(PID.TID 0000.0001)  ploadbar=  1.01066684866686E+05
 cg2d: Sum(rhs),rhsMax =  -6.10614979170226E+01  1.43133501070333E+00
(PID.TID 0000.0001)  ploadbar=  1.01068471849874E+05
 cg2d: Sum(rhs),rhsMax =  -6.00109643353270E+01  1.45707755887358E+00
(PID.TID 0000.0001)  ploadbar=  1.01070593432281E+05
 cg2d: Sum(rhs),rhsMax =  -5.88579806687850E+01  1.48626006602546E+00
(PID.TID 0000.0001)  ploadbar=  1.01072715014688E+05
 cg2d: Sum(rhs),rhsMax =  -5.76028759374866E+01  1.51923831190386E+00
(PID.TID 0000.0001)  ploadbar=  1.01074836597095E+05
 cg2d: Sum(rhs),rhsMax =  -5.63461929488396E+01  1.55367170296545E+00
(PID.TID 0000.0001)  ploadbar=  1.01076958179502E+05
 cg2d: Sum(rhs),rhsMax =  -5.51344245697711E+01  1.58832386441452E+00
(PID.TID 0000.0001)  ploadbar=  1.01079079761909E+05
 cg2d: Sum(rhs),rhsMax =  -5.39181427380841E+01  1.62460829759519E+00
(PID.TID 0000.0001)  ploadbar=  1.01081201344317E+05
 cg2d: Sum(rhs),rhsMax =  -5.30660611638375E+01  1.65122407607893E+00
(PID.TID 0000.0001)  ploadbar=  1.01083886422666E+05
 cg2d: Sum(rhs),rhsMax =  -5.27375343400051E+01  1.66210411087695E+00
(PID.TID 0000.0001)  ploadbar=  1.01086571501015E+05
 cg2d: Sum(rhs),rhsMax =  -5.29881233958471E+01  1.65489514840131E+00
(PID.TID 0000.0001)  ploadbar=  1.01089256579364E+05
 cg2d: Sum(rhs),rhsMax =  -5.38296217930348E+01  1.62972451959894E+00
(PID.TID 0000.0001)  ploadbar=  1.01091941657713E+05
 cg2d: Sum(rhs),rhsMax =  -5.47180337060358E+01  1.60401557103430E+00
(PID.TID 0000.0001)  ploadbar=  1.01094626736062E+05
 cg2d: Sum(rhs),rhsMax =  -5.56292639669535E+01  1.57854498265028E+00
(PID.TID 0000.0001)  ploadbar=  1.01097311814411E+05
 cg2d: Sum(rhs),rhsMax =  -5.65015599179062E+01  1.55492910221559E+00
(PID.TID 0000.0001)  ploadbar=  1.01098268134537E+05
 cg2d: Sum(rhs),rhsMax =  -5.73649060442162E+01  1.53223383907480E+00
(PID.TID 0000.0001)  ploadbar=  1.01099224454664E+05
 cg2d: Sum(rhs),rhsMax =  -5.82152230861850E+01  1.51051582896127E+00
(PID.TID 0000.0001)  ploadbar=  1.01100180774790E+05
 cg2d: Sum(rhs),rhsMax =  -5.90584959330097E+01  1.48957684227305E+00
(PID.TID 0000.0001)  ploadbar=  1.01101137094917E+05
 cg2d: Sum(rhs),rhsMax =  -5.99009942213170E+01  1.46922855738395E+00
(PID.TID 0000.0001)  ploadbar=  1.01102093415043E+05
 cg2d: Sum(rhs),rhsMax =  -6.07490081385093E+01  1.44931010335371E+00
(PID.TID 0000.0001)  ploadbar=  1.01103049735169E+05
 cg2d: Sum(rhs),rhsMax =  -6.15751969478216E+01  1.43048958350728E+00
(PID.TID 0000.0001)  ploadbar=  1.01104090568709E+05
 cg2d: Sum(rhs),rhsMax =  -6.16002801031184E+01  1.43056525602171E+00
(PID.TID 0000.0001)  ploadbar=  1.01105131402249E+05
 cg2d: Sum(rhs),rhsMax =  -6.12861907008221E+01  1.43859281045634E+00
(PID.TID 0000.0001)  ploadbar=  1.01106172235789E+05
 cg2d: Sum(rhs),rhsMax =  -6.09771642767029E+01  1.44661884863930E+00
(PID.TID 0000.0001)  ploadbar=  1.01107213069329E+05
 cg2d: Sum(rhs),rhsMax =  -6.06669471641690E+01  1.45479311480873E+00
(PID.TID 0000.0001)  ploadbar=  1.01108253902869E+05
 cg2d: Sum(rhs),rhsMax =  -6.03509506994184E+01  1.46322951457901E+00
(PID.TID 0000.0001)  ploadbar=  1.01109294736409E+05
 cg2d: Sum(rhs),rhsMax =  -6.00118828034278E+01  1.47224903972847E+00
(PID.TID 0000.0001)  ploadbar=  1.01110392765525E+05
 cg2d: Sum(rhs),rhsMax =  -5.96577345895226E+01  1.48167171912976E+00
(PID.TID 0000.0001)  ploadbar=  1.01111490794641E+05
 cg2d: Sum(rhs),rhsMax =  -5.92796030752283E+01  1.49173861485908E+00
(PID.TID 0000.0001)  ploadbar=  1.01112588823758E+05
 cg2d: Sum(rhs),rhsMax =  -5.88794882125069E+01  1.50242583904829E+00
(PID.TID 0000.0001)  ploadbar=  1.01113686852874E+05
 cg2d: Sum(rhs),rhsMax =  -5.84586387877884E+01  1.51372828907973E+00
(PID.TID 0000.0001)  ploadbar=  1.01114784881990E+05
 cg2d: Sum(rhs),rhsMax =  -5.80165633030574E+01  1.52568373382289E+00
(PID.TID 0000.0001)  ploadbar=  1.01115882911106E+05
 cg2d: Sum(rhs),rhsMax =  -5.75918565662284E+01  1.53743098990472E+00
(PID.TID 0000.0001)  ploadbar=  1.01116780141050E+05
 cg2d: Sum(rhs),rhsMax =  -5.71865401689121E+01  1.54889474459120E+00
(PID.TID 0000.0001)  ploadbar=  1.01117677370994E+05
 cg2d: Sum(rhs),rhsMax =  -5.68227822554022E+01  1.55944945946315E+00
(PID.TID 0000.0001)  ploadbar=  1.01118574600937E+05
 cg2d: Sum(rhs),rhsMax =  -5.65174704991662E+01  1.56858663654964E+00
(PID.TID 0000.0001)  ploadbar=  1.01119471830881E+05
 cg2d: Sum(rhs),rhsMax =  -5.62683355683975E+01  1.57631783581358E+00
(PID.TID 0000.0001)  ploadbar=  1.01120369060825E+05
 cg2d: Sum(rhs),rhsMax =  -5.60700746482509E+01  1.58275216338506E+00
(PID.TID 0000.0001)  ploadbar=  1.01121266290768E+05
 cg2d: Sum(rhs),rhsMax =  -5.59367204128087E+01  1.58736434888574E+00
(PID.TID 0000.0001)  ploadbar=  1.01121948811194E+05
 cg2d: Sum(rhs),rhsMax =  -5.58320867889463E+01  1.59115544933591E+00
(PID.TID 0000.0001)  ploadbar=  1.01122631331619E+05
 cg2d: Sum(rhs),rhsMax =  -5.57500443524353E+01  1.59429366637363E+00
(PID.TID 0000.0001)  ploadbar=  1.01123313852044E+05
 cg2d: Sum(rhs),rhsMax =  -5.56858045924659E+01  1.59691956516502E+00
(PID.TID 0000.0001)  ploadbar=  1.01123996372470E+05
 cg2d: Sum(rhs),rhsMax =  -5.56387495030402E+01  1.59905566932269E+00
(PID.TID 0000.0001)  ploadbar=  1.01124678892895E+05
 cg2d: Sum(rhs),rhsMax =  -5.56096177942293E+01  1.60068866885372E+00
(PID.TID 0000.0001)  ploadbar=  1.01125361413320E+05
 cg2d: Sum(rhs),rhsMax =  -5.55498629408644E+01  1.60327311999056E+00
(PID.TID 0000.0001)  ploadbar=  1.01126843386675E+05
 cg2d: Sum(rhs),rhsMax =  -5.55020183107187E+01  1.60558090768451E+00
(PID.TID 0000.0001)  ploadbar=  1.01128325360030E+05
 cg2d: Sum(rhs),rhsMax =  -5.54707301291024E+01  1.60747816346856E+00
(PID.TID 0000.0001)  ploadbar=  1.01129807333384E+05
 cg2d: Sum(rhs),rhsMax =  -5.54510966204909E+01  1.60910499961170E+00
(PID.TID 0000.0001)  ploadbar=  1.01131289306739E+05
 cg2d: Sum(rhs),rhsMax =  -5.54424634760014E+01  1.61047780473348E+00
(PID.TID 0000.0001)  ploadbar=  1.01132771280093E+05
 cg2d: Sum(rhs),rhsMax =  -5.54430427940960E+01  1.61164550495871E+00
(PID.TID 0000.0001)  ploadbar=  1.01134253253448E+05
 cg2d: Sum(rhs),rhsMax =  -5.54415936363423E+01  1.61276107468940E+00
(PID.TID 0000.0001)  ploadbar=  1.01134838336961E+05
 cg2d: Sum(rhs),rhsMax =  -5.54397458553551E+01  1.61377478021673E+00
(PID.TID 0000.0001)  ploadbar=  1.01135423420475E+05
 cg2d: Sum(rhs),rhsMax =  -5.54283342752249E+01  1.61495821946948E+00
(PID.TID 0000.0001)  ploadbar=  1.01136008503988E+05
 cg2d: Sum(rhs),rhsMax =  -5.54043916374836E+01  1.61640400224912E+00
(PID.TID 0000.0001)  ploadbar=  1.01136593587502E+05
 cg2d: Sum(rhs),rhsMax =  -5.53653134546580E+01  1.61819402659408E+00
(PID.TID 0000.0001)  ploadbar=  1.01137178671015E+05
 cg2d: Sum(rhs),rhsMax =  -5.53101963410866E+01  1.62035927660755E+00
(PID.TID 0000.0001)  ploadbar=  1.01137763754529E+05
 cg2d: Sum(rhs),rhsMax =  -5.52739478467824E+01  1.62203311119287E+00
(PID.TID 0000.0001)  ploadbar=  1.01139707825406E+05
 cg2d: Sum(rhs),rhsMax =  -5.52427969020516E+01  1.62361748076918E+00
(PID.TID 0000.0001)  ploadbar=  1.01141651896282E+05
 cg2d: Sum(rhs),rhsMax =  -5.52207778420928E+01  1.62499888468261E+00
(PID.TID 0000.0001)  ploadbar=  1.01143595967159E+05
 cg2d: Sum(rhs),rhsMax =  -5.52140752684767E+01  1.62600008926835E+00
(PID.TID 0000.0001)  ploadbar=  1.01145540038035E+05
 cg2d: Sum(rhs),rhsMax =  -5.52221731002431E+01  1.62663240585597E+00
(PID.TID 0000.0001)  ploadbar=  1.01147484108912E+05
 cg2d: Sum(rhs),rhsMax =  -5.52422943355710E+01  1.62697731436025E+00
(PID.TID 0000.0001)  ploadbar=  1.01149428179789E+05
 cg2d: Sum(rhs),rhsMax =  -5.52667058377658E+01  1.62715149428682E+00
(PID.TID 0000.0001)  ploadbar=  1.01150408580517E+05
 cg2d: Sum(rhs),rhsMax =  -5.52959154923600E+01  1.62714280204386E+00
(PID.TID 0000.0001)  ploadbar=  1.01151388981245E+05
 cg2d: Sum(rhs),rhsMax =  -5.53352911465199E+01  1.62679813830967E+00
(PID.TID 0000.0001)  ploadbar=  1.01152369381974E+05
 cg2d: Sum(rhs),rhsMax =  -5.53828565564236E+01  1.62618350285627E+00
(PID.TID 0000.0001)  ploadbar=  1.01153349782702E+05
 cg2d: Sum(rhs),rhsMax =  -5.54399515148533E+01  1.62526549263567E+00
(PID.TID 0000.0001)  ploadbar=  1.01154330183430E+05
 cg2d: Sum(rhs),rhsMax =  -5.55075253411834E+01  1.62402130715245E+00
(PID.TID 0000.0001)  ploadbar=  1.01155310584159E+05
 cg2d: Sum(rhs),rhsMax =  -5.55774004421742E+01  1.62280122856470E+00
(PID.TID 0000.0001)  ploadbar=  1.01155631357877E+05
 cg2d: Sum(rhs),rhsMax =  -5.56540930010869E+01  1.62147209536969E+00
(PID.TID 0000.0001)  ploadbar=  1.01155952131596E+05
 cg2d: Sum(rhs),rhsMax =  -5.57412342771323E+01  1.61992958852997E+00
(PID.TID 0000.0001)  ploadbar=  1.01156272905314E+05
 cg2d: Sum(rhs),rhsMax =  -5.58390524605736E+01  1.61816946015994E+00
(PID.TID 0000.0001)  ploadbar=  1.01156593679032E+05
 cg2d: Sum(rhs),rhsMax =  -5.59473777328295E+01  1.61619782683155E+00
(PID.TID 0000.0001)  ploadbar=  1.01156914452751E+05
 cg2d: Sum(rhs),rhsMax =  -5.60657967400484E+01  1.61402920825669E+00
(PID.TID 0000.0001)  ploadbar=  1.01157235226469E+05
 cg2d: Sum(rhs),rhsMax =  -5.61833630248354E+01  1.61181588001268E+00
(PID.TID 0000.0001)  ploadbar=  1.01157461144988E+05
 cg2d: Sum(rhs),rhsMax =  -5.63033023242457E+01  1.60946707711821E+00
(PID.TID 0000.0001)  ploadbar=  1.01157687063508E+05
 cg2d: Sum(rhs),rhsMax =  -5.64237682888475E+01  1.60703918630994E+00
(PID.TID 0000.0001)  ploadbar=  1.01157912982027E+05
 cg2d: Sum(rhs),rhsMax =  -5.65412743479217E+01  1.60463441004031E+00
(PID.TID 0000.0001)  ploadbar=  1.01158138900546E+05
 cg2d: Sum(rhs),rhsMax =  -5.66522742531520E+01  1.60235680366638E+00
(PID.TID 0000.0001)  ploadbar=  1.01158364819065E+05
 cg2d: Sum(rhs),rhsMax =  -5.67535738617588E+01  1.60030099384340E+00
(PID.TID 0000.0001)  ploadbar=  1.01158590737585E+05
 cg2d: Sum(rhs),rhsMax =  -5.68523936177144E+01  1.59837357719816E+00
(PID.TID 0000.0001)  ploadbar=  1.01158598601625E+05
 cg2d: Sum(rhs),rhsMax =  -5.69413475797309E+01  1.59677987109047E+00
(PID.TID 0000.0001)  ploadbar=  1.01158606465666E+05
 cg2d: Sum(rhs),rhsMax =  -5.70169241172941E+01  1.59561666335456E+00
(PID.TID 0000.0001)  ploadbar=  1.01158614329707E+05
 cg2d: Sum(rhs),rhsMax =  -5.70801843145066E+01  1.59485433998675E+00
(PID.TID 0000.0001)  ploadbar=  1.01158622193748E+05
 cg2d: Sum(rhs),rhsMax =  -5.71318363644879E+01  1.59447107251794E+00
(PID.TID 0000.0001)  ploadbar=  1.01158630057789E+05
 cg2d: Sum(rhs),rhsMax =  -5.71726065861289E+01  1.59444668326872E+00
(PID.TID 0000.0001)  ploadbar=  1.01158637921830E+05
 cg2d: Sum(rhs),rhsMax =  -5.71983793124466E+01  1.59481217810789E+00
(PID.TID 0000.0001)  ploadbar=  1.01157854220366E+05
 cg2d: Sum(rhs),rhsMax =  -5.72132984443631E+01  1.59545546841593E+00
(PID.TID 0000.0001)  ploadbar=  1.01157070518902E+05
 cg2d: Sum(rhs),rhsMax =  -5.72159314490820E+01  1.59642584142341E+00
(PID.TID 0000.0001)  ploadbar=  1.01156286817438E+05
 cg2d: Sum(rhs),rhsMax =  -5.72086122641491E+01  1.59767038287332E+00
(PID.TID 0000.0001)  ploadbar=  1.01155503115974E+05
 cg2d: Sum(rhs),rhsMax =  -5.71932413359745E+01  1.59913842561123E+00
(PID.TID 0000.0001)  ploadbar=  1.01154719414510E+05
 cg2d: Sum(rhs),rhsMax =  -5.71713093118274E+01  1.60078785659147E+00
(PID.TID 0000.0001)  ploadbar=  1.01153935713046E+05
 cg2d: Sum(rhs),rhsMax =  -5.71530085737380E+01  1.60237314187263E+00
(PID.TID 0000.0001)  ploadbar=  1.01153124097338E+05
 cg2d: Sum(rhs),rhsMax =  -5.71341996561776E+01  1.60400772497241E+00
(PID.TID 0000.0001)  ploadbar=  1.01152312481630E+05
 cg2d: Sum(rhs),rhsMax =  -5.71138216988360E+01  1.60572293328863E+00
(PID.TID 0000.0001)  ploadbar=  1.01151500865921E+05
 cg2d: Sum(rhs),rhsMax =  -5.70934750407545E+01  1.60747559330686E+00
(PID.TID 0000.0001)  ploadbar=  1.01150689250213E+05
 cg2d: Sum(rhs),rhsMax =  -5.70735466160158E+01  1.60925377256582E+00
(PID.TID 0000.0001)  ploadbar=  1.01149877634505E+05
 cg2d: Sum(rhs),rhsMax =  -5.70645834368549E+01  1.61076004335621E+00
(PID.TID 0000.0001)  ploadbar=  1.01149066018796E+05
 cg2d: Sum(rhs),rhsMax =  -5.70565078301010E+01  1.61213623097743E+00
(PID.TID 0000.0001)  ploadbar=  1.01148741382566E+05
 cg2d: Sum(rhs),rhsMax =  -5.70502037516227E+01  1.61335865804050E+00
(PID.TID 0000.0001)  ploadbar=  1.01148416746335E+05
 cg2d: Sum(rhs),rhsMax =  -5.70484706554385E+01  1.61435338226013E+00
(PID.TID 0000.0001)  ploadbar=  1.01148092110105E+05
 cg2d: Sum(rhs),rhsMax =  -5.70526012117879E+01  1.61508638534395E+00
(PID.TID 0000.0001)  ploadbar=  1.01147767473874E+05
 cg2d: Sum(rhs),rhsMax =  -5.70631554215208E+01  1.61554492348264E+00
(PID.TID 0000.0001)  ploadbar=  1.01147442837644E+05
 cg2d: Sum(rhs),rhsMax =  -5.70809271937577E+01  1.61570647769261E+00
(PID.TID 0000.0001)  ploadbar=  1.01147118201414E+05
 cg2d: Sum(rhs),rhsMax =  -5.71069261669282E+01  1.61567822642723E+00
(PID.TID 0000.0001)  ploadbar=  1.01146220524335E+05
 cg2d: Sum(rhs),rhsMax =  -5.71369094783878E+01  1.61557872334159E+00
(PID.TID 0000.0001)  ploadbar=  1.01145322847257E+05
 cg2d: Sum(rhs),rhsMax =  -5.71694242907288E+01  1.61545066939594E+00
(PID.TID 0000.0001)  ploadbar=  1.01144425170179E+05
 cg2d: Sum(rhs),rhsMax =  -5.72024644708659E+01  1.61535119033682E+00
(PID.TID 0000.0001)  ploadbar=  1.01143527493101E+05
 cg2d: Sum(rhs),rhsMax =  -5.72344470292817E+01  1.61532502402238E+00
(PID.TID 0000.0001)  ploadbar=  1.01142629816022E+05
 cg2d: Sum(rhs),rhsMax =  -5.72644106000793E+01  1.61539945578839E+00
(PID.TID 0000.0001)  ploadbar=  1.01141732138944E+05
 cg2d: Sum(rhs),rhsMax =  -5.72825114774302E+01  1.61576706161807E+00
(PID.TID 0000.0001)  ploadbar=  1.01141047470121E+05
 cg2d: Sum(rhs),rhsMax =  -5.72926185555933E+01  1.61632328785770E+00
(PID.TID 0000.0001)  ploadbar=  1.01140362801297E+05
 cg2d: Sum(rhs),rhsMax =  -5.72967953117420E+01  1.61701664403121E+00
(PID.TID 0000.0001)  ploadbar=  1.01139678132474E+05
 cg2d: Sum(rhs),rhsMax =  -5.72949015853546E+01  1.61785263420389E+00
(PID.TID 0000.0001)  ploadbar=  1.01138993463651E+05
 cg2d: Sum(rhs),rhsMax =  -5.72876995995906E+01  1.61881138698125E+00
(PID.TID 0000.0001)  ploadbar=  1.01138308794827E+05
 cg2d: Sum(rhs),rhsMax =  -5.72765551988914E+01  1.61985566047780E+00
(PID.TID 0000.0001)  ploadbar=  1.01137624126004E+05
 cg2d: Sum(rhs),rhsMax =  -5.72691187951677E+01  1.62084599476113E+00
(PID.TID 0000.0001)  ploadbar=  1.01136898945751E+05
 cg2d: Sum(rhs),rhsMax =  -5.72616296201175E+01  1.62188767279999E+00
(PID.TID 0000.0001)  ploadbar=  1.01136173765498E+05
 cg2d: Sum(rhs),rhsMax =  -5.72563825225849E+01  1.62291710334350E+00
(PID.TID 0000.0001)  ploadbar=  1.01135448585245E+05
 cg2d: Sum(rhs),rhsMax =  -5.72531137386833E+01  1.62394011399971E+00
(PID.TID 0000.0001)  ploadbar=  1.01134723404992E+05
 cg2d: Sum(rhs),rhsMax =  -5.72514058548630E+01  1.62496689344353E+00
(PID.TID 0000.0001)  ploadbar=  1.01133998224739E+05
 cg2d: Sum(rhs),rhsMax =  -5.72514359656616E+01  1.62599059487109E+00
(PID.TID 0000.0001)  ploadbar=  1.01133273044486E+05
 cg2d: Sum(rhs),rhsMax =  -5.72453396261587E+01  1.62710258908667E+00
(PID.TID 0000.0001)  ploadbar=  1.01132354929650E+05
 cg2d: Sum(rhs),rhsMax =  -5.72374129030671E+01  1.62817927339386E+00
(PID.TID 0000.0001)  ploadbar=  1.01131436814815E+05
 cg2d: Sum(rhs),rhsMax =  -5.72275335785706E+01  1.62922747221410E+00
(PID.TID 0000.0001)  ploadbar=  1.01130518699979E+05
 cg2d: Sum(rhs),rhsMax =  -5.72147243725816E+01  1.63027440118645E+00
(PID.TID 0000.0001)  ploadbar=  1.01129600585144E+05
 cg2d: Sum(rhs),rhsMax =  -5.72003481959148E+01  1.63128322265011E+00
(PID.TID 0000.0001)  ploadbar=  1.01128682470308E+05
 cg2d: Sum(rhs),rhsMax =  -5.71849926124470E+01  1.63223579666349E+00
(PID.TID 0000.0001)  ploadbar=  1.01127764355472E+05
 cg2d: Sum(rhs),rhsMax =  -5.71755597675492E+01  1.63309767445142E+00
(PID.TID 0000.0001)  ploadbar=  1.01126020878325E+05
 cg2d: Sum(rhs),rhsMax =  -5.71749332734598E+01  1.63378520019476E+00
(PID.TID 0000.0001)  ploadbar=  1.01124277401178E+05
 cg2d: Sum(rhs),rhsMax =  -5.71831949414095E+01  1.63429546074220E+00
(PID.TID 0000.0001)  ploadbar=  1.01122533924031E+05
 cg2d: Sum(rhs),rhsMax =  -5.72011428641222E+01  1.63460357127759E+00
(PID.TID 0000.0001)  ploadbar=  1.01120790446884E+05
 cg2d: Sum(rhs),rhsMax =  -5.72304443960720E+01  1.63465965805476E+00
(PID.TID 0000.0001)  ploadbar=  1.01119046969737E+05
 cg2d: Sum(rhs),rhsMax =  -5.72721776995705E+01  1.63443154028541E+00
(PID.TID 0000.0001)  ploadbar=  1.01117303492590E+05
 cg2d: Sum(rhs),rhsMax =  -5.73172183644705E+01  1.63406498219170E+00
(PID.TID 0000.0001)  ploadbar=  1.01116071988899E+05
 cg2d: Sum(rhs),rhsMax =  -5.73735386376870E+01  1.63333518088614E+00
(PID.TID 0000.0001)  ploadbar=  1.01114840485209E+05
 cg2d: Sum(rhs),rhsMax =  -5.74406085630504E+01  1.63225886563576E+00
(PID.TID 0000.0001)  ploadbar=  1.01113608981518E+05
 cg2d: Sum(rhs),rhsMax =  -5.75174711718671E+01  1.63086228745057E+00
(PID.TID 0000.0001)  ploadbar=  1.01112377477827E+05
 cg2d: Sum(rhs),rhsMax =  -5.76036010385723E+01  1.62916126637564E+00
(PID.TID 0000.0001)  ploadbar=  1.01111145974137E+05
 cg2d: Sum(rhs),rhsMax =  -5.76975072385024E+01  1.62720087714271E+00
(PID.TID 0000.0001)  ploadbar=  1.01109914470446E+05
 cg2d: Sum(rhs),rhsMax =  -5.78025137620342E+01  1.62499304424175E+00
(PID.TID 0000.0001)  ploadbar=  1.01106933136417E+05
 cg2d: Sum(rhs),rhsMax =  -5.79193136587091E+01  1.62252206036135E+00
(PID.TID 0000.0001)  ploadbar=  1.01103951802388E+05
 cg2d: Sum(rhs),rhsMax =  -5.80443144558329E+01  1.61988943936542E+00
(PID.TID 0000.0001)  ploadbar=  1.01100970468358E+05
 cg2d: Sum(rhs),rhsMax =  -5.81751475975198E+01  1.61716069326123E+00
(PID.TID 0000.0001)  ploadbar=  1.01097989134329E+05
 cg2d: Sum(rhs),rhsMax =  -5.83098650558522E+01  1.61438624775739E+00
(PID.TID 0000.0001)  ploadbar=  1.01095007800300E+05
 cg2d: Sum(rhs),rhsMax =  -5.84465824883342E+01  1.61161719179592E+00
(PID.TID 0000.0001)  ploadbar=  1.01092026466271E+05
 cg2d: Sum(rhs),rhsMax =  -5.85769403146060E+01  1.60894262874765E+00
(PID.TID 0000.0001)  ploadbar=  1.01090978275003E+05
 cg2d: Sum(rhs),rhsMax =  -5.87006972021883E+01  1.60636774060587E+00
(PID.TID 0000.0001)  ploadbar=  1.01089930083735E+05
 cg2d: Sum(rhs),rhsMax =  -5.88177347646447E+01  1.60389389575321E+00
(PID.TID 0000.0001)  ploadbar=  1.01088881892467E+05
 cg2d: Sum(rhs),rhsMax =  -5.89281346548702E+01  1.60151835742439E+00
(PID.TID 0000.0001)  ploadbar=  1.01087833701200E+05
 cg2d: Sum(rhs),rhsMax =  -5.90324200283845E+01  1.59922712903564E+00
(PID.TID 0000.0001)  ploadbar=  1.01086785509932E+05
 cg2d: Sum(rhs),rhsMax =  -5.91308163794419E+01  1.59701481231642E+00
(PID.TID 0000.0001)  ploadbar=  1.01085737318664E+05
 cg2d: Sum(rhs),rhsMax =  -5.92251587026303E+01  1.59499952479804E+00
(PID.TID 0000.0001)  ploadbar=  1.01085895827018E+05
 cg2d: Sum(rhs),rhsMax =  -5.93232197962723E+01  1.59297009349901E+00
(PID.TID 0000.0001)  ploadbar=  1.01086054335372E+05
 cg2d: Sum(rhs),rhsMax =  -5.94238883797023E+01  1.59095517272682E+00
(PID.TID 0000.0001)  ploadbar=  1.01086212843726E+05
 cg2d: Sum(rhs),rhsMax =  -5.95269696000278E+01  1.58896038060601E+00
(PID.TID 0000.0001)  ploadbar=  1.01086371352080E+05
 cg2d: Sum(rhs),rhsMax =  -5.96329231135754E+01  1.58697524807398E+00
(PID.TID 0000.0001)  ploadbar=  1.01086529860433E+05
 cg2d: Sum(rhs),rhsMax =  -5.97412737660705E+01  1.58501364499126E+00
(PID.TID 0000.0001)  ploadbar=  1.01086688368787E+05
 cg2d: Sum(rhs),rhsMax =  -5.98502221762107E+01  1.58303248086150E+00
(PID.TID 0000.0001)  ploadbar=  1.01085783940595E+05
 cg2d: Sum(rhs),rhsMax =  -5.99552721199829E+01  1.58115315460622E+00
(PID.TID 0000.0001)  ploadbar=  1.01084879512403E+05
 cg2d: Sum(rhs),rhsMax =  -6.00552461327431E+01  1.57941076377334E+00
(PID.TID 0000.0001)  ploadbar=  1.01083975084211E+05
 cg2d: Sum(rhs),rhsMax =  -6.01504953029218E+01  1.57779847730804E+00
(PID.TID 0000.0001)  ploadbar=  1.01083070656019E+05
 cg2d: Sum(rhs),rhsMax =  -6.02397794165141E+01  1.57635315555723E+00
(PID.TID 0000.0001)  ploadbar=  1.01082166227827E+05
 cg2d: Sum(rhs),rhsMax =  -6.03221361392434E+01  1.57509985857312E+00
(PID.TID 0000.0001)  ploadbar=  1.01081261799634E+05
 cg2d: Sum(rhs),rhsMax =  -6.04072323855308E+01  1.57381518473905E+00
(PID.TID 0000.0001)  ploadbar=  1.01079810517372E+05
 cg2d: Sum(rhs),rhsMax =  -6.04910629457137E+01  1.57260509139566E+00
(PID.TID 0000.0001)  ploadbar=  1.01078359235110E+05
 cg2d: Sum(rhs),rhsMax =  -6.05739276996922E+01  1.57146013318560E+00
(PID.TID 0000.0001)  ploadbar=  1.01076907952848E+05
 cg2d: Sum(rhs),rhsMax =  -6.06581687721084E+01  1.57031975043265E+00
(PID.TID 0000.0001)  ploadbar=  1.01075456670586E+05
 cg2d: Sum(rhs),rhsMax =  -6.07438660264921E+01  1.56918274249175E+00
(PID.TID 0000.0001)  ploadbar=  1.01074005388324E+05
 cg2d: Sum(rhs),rhsMax =  -6.08313781754947E+01  1.56804093309533E+00
(PID.TID 0000.0001)  ploadbar=  1.01072554106062E+05
 cg2d: Sum(rhs),rhsMax =  -6.09234669388958E+01  1.56668130133354E+00
(PID.TID 0000.0001)  ploadbar=  1.01071922237422E+05
 cg2d: Sum(rhs),rhsMax =  -6.10098722350645E+01  1.56536918784537E+00
(PID.TID 0000.0001)  ploadbar=  1.01071290368782E+05
 cg2d: Sum(rhs),rhsMax =  -6.10905188091708E+01  1.56410720581891E+00
(PID.TID 0000.0001)  ploadbar=  1.01070658500141E+05
 cg2d: Sum(rhs),rhsMax =  -6.11665353519411E+01  1.56286751678946E+00
(PID.TID 0000.0001)  ploadbar=  1.01070026631501E+05
 cg2d: Sum(rhs),rhsMax =  -6.12376906476836E+01  1.56165925999933E+00
(PID.TID 0000.0001)  ploadbar=  1.01069394762861E+05
 cg2d: Sum(rhs),rhsMax =  -6.13042728088934E+01  1.56047513236928E+00
(PID.TID 0000.0001)  ploadbar=  1.01068762894220E+05
 cg2d: Sum(rhs),rhsMax =  -6.13700627046328E+01  1.55938766972979E+00
(PID.TID 0000.0001)  ploadbar=  1.01068452414673E+05
 cg2d: Sum(rhs),rhsMax =  -6.14050245975304E+01  1.55915750925561E+00
(PID.TID 0000.0001)  ploadbar=  1.01068141935125E+05
 cg2d: Sum(rhs),rhsMax =  -6.05504337924015E+01  1.58190365702466E+00
(PID.TID 0000.0001)  ploadbar=  1.01067831455578E+05
 cg2d: Sum(rhs),rhsMax =  -5.97192201507274E+01  1.60474691409940E+00
(PID.TID 0000.0001)  ploadbar=  1.01067520976030E+05
 cg2d: Sum(rhs),rhsMax =  -5.89121838320933E+01  1.62764111056781E+00
(PID.TID 0000.0001)  ploadbar=  1.01067210496483E+05
 cg2d: Sum(rhs),rhsMax =  -5.81299387198421E+01  1.65054307564307E+00
(PID.TID 0000.0001)  ploadbar=  1.01066900016935E+05
 cg2d: Sum(rhs),rhsMax =  -5.73849374756540E+01  1.67296592340732E+00
(PID.TID 0000.0001)  ploadbar=  1.01067159477641E+05
 cg2d: Sum(rhs),rhsMax =  -5.66692494436006E+01  1.69508599195589E+00
(PID.TID 0000.0001)  ploadbar=  1.01067418938346E+05
 cg2d: Sum(rhs),rhsMax =  -5.59762258985640E+01  1.71706729142393E+00
(PID.TID 0000.0001)  ploadbar=  1.01067678399051E+05
 cg2d: Sum(rhs),rhsMax =  -5.53039337122105E+01  1.73894313699868E+00
(PID.TID 0000.0001)  ploadbar=  1.01067937859756E+05
 cg2d: Sum(rhs),rhsMax =  -5.46470231396352E+01  1.76085920972901E+00
(PID.TID 0000.0001)  ploadbar=  1.01068197320462E+05
 cg2d: Sum(rhs),rhsMax =  -5.40023153171481E+01  1.78290033184356E+00
(PID.TID 0000.0001)  ploadbar=  1.01068456781167E+05
 cg2d: Sum(rhs),rhsMax =  -5.34010817862148E+01  1.80409554254383E+00
(PID.TID 0000.0001)  ploadbar=  1.01068522016617E+05
 cg2d: Sum(rhs),rhsMax =  -5.28214691069703E+01  1.82511621145119E+00
(PID.TID 0000.0001)  ploadbar=  1.01068587252067E+05
 cg2d: Sum(rhs),rhsMax =  -5.22916944089449E+01  1.84493726668128E+00
(PID.TID 0000.0001)  ploadbar=  1.01068652487518E+05
 cg2d: Sum(rhs),rhsMax =  -5.18250272638276E+01  1.86298899399465E+00
(PID.TID 0000.0001)  ploadbar=  1.01068717722968E+05
 cg2d: Sum(rhs),rhsMax =  -5.14231612290271E+01  1.87909594150278E+00
(PID.TID 0000.0001)  ploadbar=  1.01068782958418E+05
 cg2d: Sum(rhs),rhsMax =  -5.10874127076380E+01  1.89310173348579E+00
(PID.TID 0000.0001)  ploadbar=  1.01068848193868E+05
 cg2d: Sum(rhs),rhsMax =  -5.08311954823178E+01  1.90416626130770E+00
(PID.TID 0000.0001)  ploadbar=  1.01069903721491E+05
 cg2d: Sum(rhs),rhsMax =  -5.06476762360122E+01  1.91245171488416E+00
(PID.TID 0000.0001)  ploadbar=  1.01070959249113E+05
 cg2d: Sum(rhs),rhsMax =  -5.05401905435285E+01  1.91776715586040E+00
(PID.TID 0000.0001)  ploadbar=  1.01072014776735E+05
 cg2d: Sum(rhs),rhsMax =  -5.05048492358086E+01  1.92022006193683E+00
(PID.TID 0000.0001)  ploadbar=  1.01073070304357E+05
 cg2d: Sum(rhs),rhsMax =  -5.05385562960023E+01  1.91991445684457E+00
(PID.TID 0000.0001)  ploadbar=  1.01074125831979E+05
 cg2d: Sum(rhs),rhsMax =  -5.05971573834116E+01  1.91853122315951E+00
(PID.TID 0000.0001)  ploadbar=  1.01075181359601E+05
 cg2d: Sum(rhs),rhsMax =  -5.06919295604020E+01  1.91583085852096E+00
(PID.TID 0000.0001)  ploadbar=  1.01077198514796E+05
 cg2d: Sum(rhs),rhsMax =  -5.09775533636816E+01  1.90602228355259E+00
(PID.TID 0000.0001)  ploadbar=  1.01079215669990E+05
 cg2d: Sum(rhs),rhsMax =  -5.13952094046563E+01  1.89149549881931E+00
(PID.TID 0000.0001)  ploadbar=  1.01081232825185E+05
 cg2d: Sum(rhs),rhsMax =  -5.19184719670366E+01  1.87342965447287E+00
(PID.TID 0000.0001)  ploadbar=  1.01083249980379E+05
 cg2d: Sum(rhs),rhsMax =  -5.25321499779453E+01  1.85257569018535E+00
(PID.TID 0000.0001)  ploadbar=  1.01085267135574E+05
 cg2d: Sum(rhs),rhsMax =  -5.32305304979702E+01  1.82933168405317E+00
(PID.TID 0000.0001)  ploadbar=  1.01087284290768E+05
 cg2d: Sum(rhs),rhsMax =  -5.39096478914345E+01  1.80727838358801E+00
(PID.TID 0000.0001)  ploadbar=  1.01088210007314E+05
 cg2d: Sum(rhs),rhsMax =  -5.45533382618840E+01  1.78688136688909E+00
(PID.TID 0000.0001)  ploadbar=  1.01089135723860E+05
 cg2d: Sum(rhs),rhsMax =  -5.51634747792636E+01  1.76798879289505E+00
(PID.TID 0000.0001)  ploadbar=  1.01090061440407E+05
 cg2d: Sum(rhs),rhsMax =  -5.57401104354654E+01  1.75052443058597E+00
(PID.TID 0000.0001)  ploadbar=  1.01090987156953E+05
 cg2d: Sum(rhs),rhsMax =  -5.62868829022958E+01  1.73430022541678E+00
(PID.TID 0000.0001)  ploadbar=  1.01091912873499E+05
 cg2d: Sum(rhs),rhsMax =  -5.67950484999020E+01  1.71951716681201E+00
(PID.TID 0000.0001)  ploadbar=  1.01092838590045E+05
 cg2d: Sum(rhs),rhsMax =  -5.72469185773188E+01  1.70674268408862E+00
(PID.TID 0000.0001)  ploadbar=  1.01093372586079E+05
 cg2d: Sum(rhs),rhsMax =  -5.76494491072946E+01  1.69568659832508E+00
(PID.TID 0000.0001)  ploadbar=  1.01093906582113E+05
 cg2d: Sum(rhs),rhsMax =  -5.80767374745622E+01  1.68413380703646E+00
(PID.TID 0000.0001)  ploadbar=  1.01094440578147E+05
 cg2d: Sum(rhs),rhsMax =  -5.84971095063423E+01  1.67301519007867E+00
(PID.TID 0000.0001)  ploadbar=  1.01094974574181E+05
 cg2d: Sum(rhs),rhsMax =  -5.88931563263740E+01  1.66280831680559E+00
(PID.TID 0000.0001)  ploadbar=  1.01095508570215E+05
 cg2d: Sum(rhs),rhsMax =  -5.92624781511928E+01  1.65354773914298E+00
(PID.TID 0000.0001)  ploadbar=  1.01096042566249E+05
 cg2d: Sum(rhs),rhsMax =  -5.96069697058258E+01  1.64501840315711E+00
(PID.TID 0000.0001)  ploadbar=  1.01096870673215E+05
 cg2d: Sum(rhs),rhsMax =  -5.99278979574757E+01  1.63716269249776E+00
(PID.TID 0000.0001)  ploadbar=  1.01097698780181E+05
 cg2d: Sum(rhs),rhsMax =  -6.02227026965765E+01  1.63003451349002E+00
(PID.TID 0000.0001)  ploadbar=  1.01098526887147E+05
 cg2d: Sum(rhs),rhsMax =  -6.04935908170750E+01  1.62355901480216E+00
(PID.TID 0000.0001)  ploadbar=  1.01099354994113E+05
 cg2d: Sum(rhs),rhsMax =  -6.07420061887356E+01  1.61768506640584E+00
(PID.TID 0000.0001)  ploadbar=  1.01100183101079E+05
 cg2d: Sum(rhs),rhsMax =  -6.09693865083464E+01  1.61236445265589E+00
(PID.TID 0000.0001)  ploadbar=  1.01101011208045E+05
 cg2d: Sum(rhs),rhsMax =  -6.11380832443785E+01  1.60867124424028E+00
(PID.TID 0000.0001)  ploadbar=  1.01102741562178E+05
 cg2d: Sum(rhs),rhsMax =  -6.12803066272878E+01  1.60573624199141E+00
(PID.TID 0000.0001)  ploadbar=  1.01104471916311E+05
 cg2d: Sum(rhs),rhsMax =  -6.14361669535872E+01  1.60250393010663E+00
(PID.TID 0000.0001)  ploadbar=  1.01106202270444E+05
 cg2d: Sum(rhs),rhsMax =  -6.15992503828606E+01  1.59914601646101E+00
(PID.TID 0000.0001)  ploadbar=  1.01107932624577E+05
 cg2d: Sum(rhs),rhsMax =  -6.17647611187497E+01  1.59578936475588E+00
(PID.TID 0000.0001)  ploadbar=  1.01109662978710E+05
 cg2d: Sum(rhs),rhsMax =  -6.19324293683530E+01  1.59244343148030E+00
(PID.TID 0000.0001)  ploadbar=  1.01111393332843E+05
 cg2d: Sum(rhs),rhsMax =  -6.21011081179469E+01  1.58907811950440E+00
(PID.TID 0000.0001)  ploadbar=  1.01111949743183E+05
 cg2d: Sum(rhs),rhsMax =  -6.22775105602437E+01  1.58552928482373E+00
(PID.TID 0000.0001)  ploadbar=  1.01112506153524E+05
 cg2d: Sum(rhs),rhsMax =  -6.24600651839702E+01  1.58184663791129E+00
(PID.TID 0000.0001)  ploadbar=  1.01113062563864E+05
 cg2d: Sum(rhs),rhsMax =  -6.26508247294784E+01  1.57798289760822E+00
(PID.TID 0000.0001)  ploadbar=  1.01113618974204E+05
 cg2d: Sum(rhs),rhsMax =  -6.28449720871202E+01  1.57406307575891E+00
(PID.TID 0000.0001)  ploadbar=  1.01114175384545E+05
 cg2d: Sum(rhs),rhsMax =  -6.30360708340935E+01  1.57024936262300E+00
(PID.TID 0000.0001)  ploadbar=  1.01114731794885E+05
 cg2d: Sum(rhs),rhsMax =  -6.31993643194208E+01  1.56719347714931E+00
(PID.TID 0000.0001)  ploadbar=  1.01114458854136E+05
 cg2d: Sum(rhs),rhsMax =  -6.33563004278318E+01  1.56435642190580E+00
(PID.TID 0000.0001)  ploadbar=  1.01114185913386E+05
 cg2d: Sum(rhs),rhsMax =  -6.35053551496582E+01  1.56177375856248E+00
(PID.TID 0000.0001)  ploadbar=  1.01113912972637E+05
 cg2d: Sum(rhs),rhsMax =  -6.36440267281492E+01  1.55950437691909E+00
(PID.TID 0000.0001)  ploadbar=  1.01113640031888E+05
 cg2d: Sum(rhs),rhsMax =  -6.37715866940034E+01  1.55756279190516E+00
(PID.TID 0000.0001)  ploadbar=  1.01113367091138E+05
 cg2d: Sum(rhs),rhsMax =  -6.38889902591187E+01  1.55592189632400E+00
(PID.TID 0000.0001)  ploadbar=  1.01113094150389E+05
 cg2d: Sum(rhs),rhsMax =  -6.39928802503350E+01  1.55454914066736E+00
(PID.TID 0000.0001)  ploadbar=  1.01112241067451E+05
 cg2d: Sum(rhs),rhsMax =  -6.40939169204510E+01  1.55318429234386E+00
(PID.TID 0000.0001)  ploadbar=  1.01111387984513E+05
 cg2d: Sum(rhs),rhsMax =  -6.42018086002698E+01  1.55159326762116E+00
(PID.TID 0000.0001)  ploadbar=  1.01110534901575E+05
 cg2d: Sum(rhs),rhsMax =  -6.43155038685384E+01  1.54980366399888E+00
(PID.TID 0000.0001)  ploadbar=  1.01109681818637E+05
 cg2d: Sum(rhs),rhsMax =  -6.44315054136213E+01  1.54790309969335E+00
(PID.TID 0000.0001)  ploadbar=  1.01108828735700E+05
 cg2d: Sum(rhs),rhsMax =  -6.45460784519677E+01  1.54598075129658E+00
(PID.TID 0000.0001)  ploadbar=  1.01107975652762E+05
 cg2d: Sum(rhs),rhsMax =  -6.46351074454770E+01  1.54474127917381E+00
(PID.TID 0000.0001)  ploadbar=  1.01107176299239E+05
 cg2d: Sum(rhs),rhsMax =  -6.47079126418963E+01  1.54395815723552E+00
(PID.TID 0000.0001)  ploadbar=  1.01106376945716E+05
 cg2d: Sum(rhs),rhsMax =  -6.47573185309440E+01  1.54380169799895E+00
(PID.TID 0000.0001)  ploadbar=  1.01105577592193E+05
 cg2d: Sum(rhs),rhsMax =  -6.47743635003701E+01  1.54448673326271E+00
(PID.TID 0000.0001)  ploadbar=  1.01104778238671E+05
 cg2d: Sum(rhs),rhsMax =  -6.47509967180627E+01  1.54620681287102E+00
(PID.TID 0000.0001)  ploadbar=  1.01103978885148E+05
 cg2d: Sum(rhs),rhsMax =  -6.46786557610507E+01  1.54917158966333E+00
(PID.TID 0000.0001)  ploadbar=  1.01103179531625E+05
 cg2d: Sum(rhs),rhsMax =  -6.45414685443216E+01  1.55364848938715E+00
(PID.TID 0000.0001)  ploadbar=  1.01102663006294E+05
 cg2d: Sum(rhs),rhsMax =  -6.43793066977327E+01  1.55870043318612E+00
(PID.TID 0000.0001)  ploadbar=  1.01102146480964E+05
 cg2d: Sum(rhs),rhsMax =  -6.42220624394567E+01  1.56361529008842E+00
(PID.TID 0000.0001)  ploadbar=  1.01101629955633E+05
 cg2d: Sum(rhs),rhsMax =  -6.41015170494159E+01  1.56761488388556E+00
(PID.TID 0000.0001)  ploadbar=  1.01101113430302E+05
 cg2d: Sum(rhs),rhsMax =  -6.37803538251472E+01  1.57653537461718E+00
(PID.TID 0000.0001)  ploadbar=  1.01100596904971E+05
 cg2d: Sum(rhs),rhsMax =  -6.34433918150266E+01  1.58590217604602E+00
(PID.TID 0000.0001)  ploadbar=  1.01100080379640E+05
 cg2d: Sum(rhs),rhsMax =  -6.30711028976634E+01  1.59631615598528E+00
(PID.TID 0000.0001)  ploadbar=  1.01099658312403E+05
 cg2d: Sum(rhs),rhsMax =  -6.26386495457752E+01  1.60845089511936E+00
(PID.TID 0000.0001)  ploadbar=  1.01099236245166E+05
 cg2d: Sum(rhs),rhsMax =  -6.09074623906316E+01  1.65536944556816E+00
(PID.TID 0000.0001)  ploadbar=  1.01098814177928E+05
 cg2d: Sum(rhs),rhsMax =  -5.89664175924032E+01  1.71115981578285E+00
(PID.TID 0000.0001)  ploadbar=  1.01098392110691E+05
 cg2d: Sum(rhs),rhsMax =  -5.72275295026441E+01  1.76455496996739E+00
(PID.TID 0000.0001)  ploadbar=  1.01097970043454E+05
 cg2d: Sum(rhs),rhsMax =  -5.56765285562528E+01  1.81521637779939E+00
(PID.TID 0000.0001)  ploadbar=  1.01097547976217E+05
 cg2d: Sum(rhs),rhsMax =  -5.43763111719133E+01  1.86010694517133E+00
(PID.TID 0000.0001)  ploadbar=  1.01096505994592E+05
 cg2d: Sum(rhs),rhsMax =  -5.31760410293711E+01  1.90355904251045E+00
(PID.TID 0000.0001)  ploadbar=  1.01095464012967E+05
 cg2d: Sum(rhs),rhsMax =  -5.20474437490847E+01  1.94628037975497E+00
(PID.TID 0000.0001)  ploadbar=  1.01094422031342E+05
 cg2d: Sum(rhs),rhsMax =  -5.09571796894743E+01  1.98934494790031E+00
(PID.TID 0000.0001)  ploadbar=  1.01093380049717E+05
 cg2d: Sum(rhs),rhsMax =  -4.98752291038015E+01  2.03390214157964E+00
(PID.TID 0000.0001)  ploadbar=  1.01092338068093E+05
 cg2d: Sum(rhs),rhsMax =  -4.88873629895496E+01  2.07637776014808E+00
(PID.TID 0000.0001)  ploadbar=  1.01091296086468E+05
 cg2d: Sum(rhs),rhsMax =  -4.81817088572516E+01  2.10823385930509E+00
(PID.TID 0000.0001)  ploadbar=  1.01091188720048E+05
 cg2d: Sum(rhs),rhsMax =  -4.77804462120011E+01  2.12744558745429E+00
(PID.TID 0000.0001)  ploadbar=  1.01091081353628E+05
 cg2d: Sum(rhs),rhsMax =  -4.76207111205614E+01  2.13614237587848E+00
(PID.TID 0000.0001)  ploadbar=  1.01090973987208E+05
 cg2d: Sum(rhs),rhsMax =  -4.80475280664961E+01  2.11876369924187E+00
(PID.TID 0000.0001)  ploadbar=  1.01090866620788E+05
 cg2d: Sum(rhs),rhsMax =  -4.92638083273278E+01  2.06805670510833E+00
(PID.TID 0000.0001)  ploadbar=  1.01090759254369E+05
 cg2d: Sum(rhs),rhsMax =  -5.03765605553712E+01  2.02398803552967E+00
(PID.TID 0000.0001)  ploadbar=  1.01090651887949E+05
 cg2d: Sum(rhs),rhsMax =  -5.13151304940101E+01  1.98850065741694E+00
(PID.TID 0000.0001)  ploadbar=  1.01091005796785E+05
 cg2d: Sum(rhs),rhsMax =  -5.21986649916421E+01  1.95630413262755E+00
(PID.TID 0000.0001)  ploadbar=  1.01091359705621E+05
 cg2d: Sum(rhs),rhsMax =  -5.30454106450845E+01  1.92647252616583E+00
(PID.TID 0000.0001)  ploadbar=  1.01091713614457E+05
 cg2d: Sum(rhs),rhsMax =  -5.38574072057663E+01  1.89876337827461E+00
(PID.TID 0000.0001)  ploadbar=  1.01092067523293E+05
 cg2d: Sum(rhs),rhsMax =  -5.20517626139955E+01  1.96597255718174E+00
(PID.TID 0000.0001)  ploadbar=  1.01092421432129E+05
 cg2d: Sum(rhs),rhsMax =  -5.06731969101242E+01  2.02079545630196E+00
(PID.TID 0000.0001)  ploadbar=  1.01092775340965E+05
 cg2d: Sum(rhs),rhsMax =  -5.01063169655034E+01  2.04504657159975E+00
(PID.TID 0000.0001)  ploadbar=  1.01093195952812E+05
 cg2d: Sum(rhs),rhsMax =  -5.02145301140402E+01  2.04205969454800E+00
(PID.TID 0000.0001)  ploadbar=  1.01093616564659E+05
 cg2d: Sum(rhs),rhsMax =  -5.09068947550261E+01  2.01572042438270E+00
(PID.TID 0000.0001)  ploadbar=  1.01094037176505E+05
 cg2d: Sum(rhs),rhsMax =  -5.17156716483368E+01  1.98564227344619E+00
(PID.TID 0000.0001)  ploadbar=  1.01094457788352E+05
 cg2d: Sum(rhs),rhsMax =  -5.25221174838961E+01  1.95661060401385E+00
(PID.TID 0000.0001)  ploadbar=  1.01094878400199E+05
 cg2d: Sum(rhs),rhsMax =  -5.32708675656589E+01  1.93057785171810E+00
(PID.TID 0000.0001)  ploadbar=  1.01095299012046E+05
 cg2d: Sum(rhs),rhsMax =  -5.38682324895743E+01  1.91054744904061E+00
(PID.TID 0000.0001)  ploadbar=  1.01094961351838E+05
 cg2d: Sum(rhs),rhsMax =  -5.43828515541770E+01  1.89376106883977E+00
(PID.TID 0000.0001)  ploadbar=  1.01094623691631E+05
 cg2d: Sum(rhs),rhsMax =  -5.48332803515149E+01  1.87941687551156E+00
(PID.TID 0000.0001)  ploadbar=  1.01094286031424E+05
 cg2d: Sum(rhs),rhsMax =  -5.52595134508068E+01  1.86605515824875E+00
(PID.TID 0000.0001)  ploadbar=  1.01093948371216E+05
 cg2d: Sum(rhs),rhsMax =  -5.57477195036823E+01  1.85077040290072E+00
(PID.TID 0000.0001)  ploadbar=  1.01093610711009E+05
 cg2d: Sum(rhs),rhsMax =  -5.63334800468501E+01  1.83250352290981E+00
(PID.TID 0000.0001)  ploadbar=  1.01093273050802E+05
 cg2d: Sum(rhs),rhsMax =  -5.69829777354710E+01  1.81263314203040E+00
(PID.TID 0000.0001)  ploadbar=  1.01094350026331E+05
 cg2d: Sum(rhs),rhsMax =  -5.75937307603934E+01  1.79446619349978E+00
(PID.TID 0000.0001)  ploadbar=  1.01095427001860E+05
 cg2d: Sum(rhs),rhsMax =  -5.70994708606784E+01  1.81111024192681E+00
(PID.TID 0000.0001)  ploadbar=  1.01096503977390E+05
 cg2d: Sum(rhs),rhsMax =  -5.66916765831695E+01  1.82530275886989E+00
(PID.TID 0000.0001)  ploadbar=  1.01097580952919E+05
 cg2d: Sum(rhs),rhsMax =  -5.63743340771155E+01  1.83679519463548E+00
(PID.TID 0000.0001)  ploadbar=  1.01098657928449E+05
 cg2d: Sum(rhs),rhsMax =  -5.61442437047208E+01  1.84558906036713E+00
(PID.TID 0000.0001)  ploadbar=  1.01099734903978E+05
 cg2d: Sum(rhs),rhsMax =  -5.59136954700834E+01  1.85444424113682E+00
(PID.TID 0000.0001)  ploadbar=  1.01099760582590E+05
 cg2d: Sum(rhs),rhsMax =  -5.57053962793014E+01  1.86260557744423E+00
(PID.TID 0000.0001)  ploadbar=  1.01099786261202E+05
 cg2d: Sum(rhs),rhsMax =  -5.55193955598023E+01  1.87005932720518E+00
(PID.TID 0000.0001)  ploadbar=  1.01099811939814E+05
 cg2d: Sum(rhs),rhsMax =  -5.53282502727660E+01  1.87771893335523E+00
(PID.TID 0000.0001)  ploadbar=  1.01099837618426E+05
 cg2d: Sum(rhs),rhsMax =  -5.51181650334920E+01  1.88605997382326E+00
(PID.TID 0000.0001)  ploadbar=  1.01099863297039E+05
 cg2d: Sum(rhs),rhsMax =  -5.48807184281952E+01  1.89539048878130E+00
(PID.TID 0000.0001)  ploadbar=  1.01099888975651E+05
 cg2d: Sum(rhs),rhsMax =  -5.45862335795826E+01  1.90682771444846E+00
(PID.TID 0000.0001)  ploadbar=  1.01099702918318E+05
 cg2d: Sum(rhs),rhsMax =  -5.42327286095491E+01  1.92051618375080E+00
(PID.TID 0000.0001)  ploadbar=  1.01099516860985E+05
 cg2d: Sum(rhs),rhsMax =  -5.38268833246157E+01  1.93630487560455E+00
(PID.TID 0000.0001)  ploadbar=  1.01099330803652E+05
 cg2d: Sum(rhs),rhsMax =  -5.33720302468525E+01  1.95416560760642E+00
(PID.TID 0000.0001)  ploadbar=  1.01099144746319E+05
 cg2d: Sum(rhs),rhsMax =  -5.28723043754306E+01  1.97404904857876E+00
(PID.TID 0000.0001)  ploadbar=  1.01098958688986E+05
 cg2d: Sum(rhs),rhsMax =  -5.23339347310383E+01  1.99582889308815E+00
(PID.TID 0000.0001)  ploadbar=  1.01098772631653E+05
 cg2d: Sum(rhs),rhsMax =  -5.18042580374304E+01  2.01767525509709E+00
(PID.TID 0000.0001)  ploadbar=  1.01099451948385E+05
 cg2d: Sum(rhs),rhsMax =  -5.12746266654360E+01  2.03991922542141E+00
(PID.TID 0000.0001)  ploadbar=  1.01100131265117E+05
 cg2d: Sum(rhs),rhsMax =  -5.07548280272376E+01  2.06217829098237E+00
(PID.TID 0000.0001)  ploadbar=  1.01100810581850E+05
 cg2d: Sum(rhs),rhsMax =  -5.02826872093205E+01  2.08287219367147E+00
(PID.TID 0000.0001)  ploadbar=  1.01101489898582E+05
 cg2d: Sum(rhs),rhsMax =  -4.98817132859915E+01  2.10090699547242E+00
(PID.TID 0000.0001)  ploadbar=  1.01102169215314E+05
 cg2d: Sum(rhs),rhsMax =  -4.95605448676413E+01  2.11576907361551E+00
(PID.TID 0000.0001)  ploadbar=  1.01102848532047E+05
 cg2d: Sum(rhs),rhsMax =  -4.93483240519316E+01  2.12618000980977E+00
(PID.TID 0000.0001)  ploadbar=  1.01103152329438E+05
 cg2d: Sum(rhs),rhsMax =  -4.92236696755551E+01  2.13293869691896E+00
(PID.TID 0000.0001)  ploadbar=  1.01103456126830E+05
 cg2d: Sum(rhs),rhsMax =  -4.91717880034863E+01  2.13662300052107E+00
(PID.TID 0000.0001)  ploadbar=  1.01103759924222E+05
 cg2d: Sum(rhs),rhsMax =  -4.92619096683814E+01  2.13420104357204E+00
(PID.TID 0000.0001)  ploadbar=  1.01104063721614E+05
 cg2d: Sum(rhs),rhsMax =  -4.95566834334318E+01  2.12304168893336E+00
(PID.TID 0000.0001)  ploadbar=  1.01104367519006E+05
 cg2d: Sum(rhs),rhsMax =  -5.00203315391373E+01  2.10494123676023E+00
(PID.TID 0000.0001)  ploadbar=  1.01104671316398E+05
 cg2d: Sum(rhs),rhsMax =  -5.04621097627213E+01  2.08807939266079E+00
(PID.TID 0000.0001)  ploadbar=  1.01104487671199E+05
 cg2d: Sum(rhs),rhsMax =  -5.08907176529848E+01  2.07205060790770E+00
(PID.TID 0000.0001)  ploadbar=  1.01104304026000E+05
 cg2d: Sum(rhs),rhsMax =  -5.12966189142011E+01  2.05720763257123E+00
(PID.TID 0000.0001)  ploadbar=  1.01104120380801E+05
 cg2d: Sum(rhs),rhsMax =  -5.16693874255637E+01  2.04391465263728E+00
(PID.TID 0000.0001)  ploadbar=  1.01103936735602E+05
 cg2d: Sum(rhs),rhsMax =  -5.20134479264162E+01  2.03194067658170E+00
(PID.TID 0000.0001)  ploadbar=  1.01103753090403E+05
 cg2d: Sum(rhs),rhsMax =  -5.23264699639803E+01  2.02132891355441E+00
(PID.TID 0000.0001)  ploadbar=  1.01103569445204E+05
 cg2d: Sum(rhs),rhsMax =  -5.25975266655061E+01  2.01249628000439E+00
(PID.TID 0000.0001)  ploadbar=  1.01103192413891E+05
 cg2d: Sum(rhs),rhsMax =  -5.28466068385254E+01  2.00463548479378E+00
(PID.TID 0000.0001)  ploadbar=  1.01102815382579E+05
 cg2d: Sum(rhs),rhsMax =  -5.30715516603534E+01  1.99780435980923E+00
(PID.TID 0000.0001)  ploadbar=  1.01102438351266E+05
 cg2d: Sum(rhs),rhsMax =  -5.32758511361974E+01  1.99184727098490E+00
(PID.TID 0000.0001)  ploadbar=  1.01102061319953E+05
 cg2d: Sum(rhs),rhsMax =  -5.34628923611730E+01  1.98662143503651E+00
(PID.TID 0000.0001)  ploadbar=  1.01101684288641E+05
 cg2d: Sum(rhs),rhsMax =  -5.36355925586037E+01  1.98200492880102E+00
(PID.TID 0000.0001)  ploadbar=  1.01101307257328E+05
 cg2d: Sum(rhs),rhsMax =  -5.37733820777562E+01  1.97860245480255E+00
(PID.TID 0000.0001)  ploadbar=  1.01100994505835E+05
 cg2d: Sum(rhs),rhsMax =  -5.39093039375554E+01  1.97518550361556E+00
(PID.TID 0000.0001)  ploadbar=  1.01100681754343E+05
 cg2d: Sum(rhs),rhsMax =  -5.40405042950270E+01  1.97185857190509E+00
(PID.TID 0000.0001)  ploadbar=  1.01100369002850E+05
 cg2d: Sum(rhs),rhsMax =  -5.41679275641757E+01  1.96858671938644E+00
(PID.TID 0000.0001)  ploadbar=  1.01100056251357E+05
 cg2d: Sum(rhs),rhsMax =  -5.42904624794141E+01  1.96540805801548E+00
(PID.TID 0000.0001)  ploadbar=  1.01099743499864E+05
 cg2d: Sum(rhs),rhsMax =  -5.44058064989327E+01  1.96240133319854E+00
(PID.TID 0000.0001)  ploadbar=  1.01099430748371E+05
 cg2d: Sum(rhs),rhsMax =  -5.45369410181668E+01  1.95887295448599E+00
(PID.TID 0000.0001)  ploadbar=  1.01099674921917E+05
 cg2d: Sum(rhs),rhsMax =  -5.46714895900057E+01  1.95527118481888E+00
(PID.TID 0000.0001)  ploadbar=  1.01099919095463E+05
 cg2d: Sum(rhs),rhsMax =  -5.48097607282794E+01  1.95158683065828E+00
(PID.TID 0000.0001)  ploadbar=  1.01100163269008E+05
 cg2d: Sum(rhs),rhsMax =  -5.49501823444046E+01  1.94787902193645E+00
(PID.TID 0000.0001)  ploadbar=  1.01100407442554E+05
 cg2d: Sum(rhs),rhsMax =  -5.50934394471540E+01  1.94412218079071E+00
(PID.TID 0000.0001)  ploadbar=  1.01100651616100E+05
 cg2d: Sum(rhs),rhsMax =  -5.52400053789690E+01  1.94030225272480E+00
(PID.TID 0000.0001)  ploadbar=  1.01100895789645E+05
 cg2d: Sum(rhs),rhsMax =  -5.53591011272597E+01  1.93744547040339E+00
(PID.TID 0000.0001)  ploadbar=  1.01100607174328E+05
 cg2d: Sum(rhs),rhsMax =  -5.54829923961515E+01  1.93441937385947E+00
(PID.TID 0000.0001)  ploadbar=  1.01100318559010E+05
 cg2d: Sum(rhs),rhsMax =  -5.56116857810859E+01  1.93122757680864E+00
(PID.TID 0000.0001)  ploadbar=  1.01100029943692E+05
 cg2d: Sum(rhs),rhsMax =  -5.57429489564313E+01  1.92795000917545E+00
(PID.TID 0000.0001)  ploadbar=  1.01099741328374E+05
 cg2d: Sum(rhs),rhsMax =  -5.58757766271125E+01  1.92462119089544E+00
(PID.TID 0000.0001)  ploadbar=  1.01099452713057E+05
 cg2d: Sum(rhs),rhsMax =  -5.60077790122524E+01  1.92132166477995E+00
(PID.TID 0000.0001)  ploadbar=  1.01099164097739E+05
 cg2d: Sum(rhs),rhsMax =  -5.61311900846805E+01  1.91836130071506E+00
(PID.TID 0000.0001)  ploadbar=  1.01098499160666E+05
 cg2d: Sum(rhs),rhsMax =  -5.62521446350748E+01  1.91553246899246E+00
(PID.TID 0000.0001)  ploadbar=  1.01097834223592E+05
 cg2d: Sum(rhs),rhsMax =  -5.63773343162062E+01  1.91260695849917E+00
(PID.TID 0000.0001)  ploadbar=  1.01097169286519E+05
 cg2d: Sum(rhs),rhsMax =  -5.65010486167219E+01  1.90977666930122E+00
(PID.TID 0000.0001)  ploadbar=  1.01096504349445E+05
 cg2d: Sum(rhs),rhsMax =  -5.66209721110655E+01  1.90711714440511E+00
(PID.TID 0000.0001)  ploadbar=  1.01095839412372E+05
 cg2d: Sum(rhs),rhsMax =  -5.67354610748819E+01  1.90468006680653E+00
(PID.TID 0000.0001)  ploadbar=  1.01095174475298E+05
 cg2d: Sum(rhs),rhsMax =  -5.68518483861145E+01  1.90212903029080E+00
(PID.TID 0000.0001)  ploadbar=  1.01094349269527E+05
 cg2d: Sum(rhs),rhsMax =  -5.69514039628828E+01  1.90008841295283E+00
(PID.TID 0000.0001)  ploadbar=  1.01093524063756E+05
 cg2d: Sum(rhs),rhsMax =  -5.70387594984764E+01  1.89839861976126E+00
(PID.TID 0000.0001)  ploadbar=  1.01092698857985E+05
 cg2d: Sum(rhs),rhsMax =  -5.71107694085112E+01  1.89716064594582E+00
(PID.TID 0000.0001)  ploadbar=  1.01091873652214E+05
 cg2d: Sum(rhs),rhsMax =  -5.71649580102016E+01  1.89645209851885E+00
(PID.TID 0000.0001)  ploadbar=  1.01091048446443E+05
 cg2d: Sum(rhs),rhsMax =  -5.72026340895944E+01  1.89622806234172E+00
(PID.TID 0000.0001)  ploadbar=  1.01090223240672E+05
 cg2d: Sum(rhs),rhsMax =  -5.72471406698919E+01  1.89580961795770E+00
(PID.TID 0000.0001)  ploadbar=  1.01089888669173E+05
 cg2d: Sum(rhs),rhsMax =  -5.72858797892683E+01  1.89561248807690E+00
(PID.TID 0000.0001)  ploadbar=  1.01089554097673E+05
 cg2d: Sum(rhs),rhsMax =  -5.73266092415377E+01  1.89537950484753E+00
(PID.TID 0000.0001)  ploadbar=  1.01089219526174E+05
 cg2d: Sum(rhs),rhsMax =  -5.73698062584103E+01  1.89509244748990E+00
(PID.TID 0000.0001)  ploadbar=  1.01088884954674E+05
 cg2d: Sum(rhs),rhsMax =  -5.74128902301867E+01  1.89483672243382E+00
(PID.TID 0000.0001)  ploadbar=  1.01088550383174E+05
 cg2d: Sum(rhs),rhsMax =  -5.74556146713186E+01  1.89462102928541E+00
(PID.TID 0000.0001)  ploadbar=  1.01088215811675E+05
 cg2d: Sum(rhs),rhsMax =  -5.74802540824973E+01  1.89501421516252E+00
(PID.TID 0000.0001)  ploadbar=  1.01087936964859E+05
 cg2d: Sum(rhs),rhsMax =  -5.75096920266924E+01  1.89526261224062E+00
(PID.TID 0000.0001)  ploadbar=  1.01087658118044E+05
 cg2d: Sum(rhs),rhsMax =  -5.75423628943722E+01  1.89541815423675E+00
(PID.TID 0000.0001)  ploadbar=  1.01087379271228E+05
 cg2d: Sum(rhs),rhsMax =  -5.75842406335021E+01  1.89528305563838E+00
(PID.TID 0000.0001)  ploadbar=  1.01087100424412E+05
 cg2d: Sum(rhs),rhsMax =  -5.76354707102493E+01  1.89485078512985E+00
(PID.TID 0000.0001)  ploadbar=  1.01086821577597E+05
 cg2d: Sum(rhs),rhsMax =  -5.76945308044113E+01  1.89417044101347E+00
(PID.TID 0000.0001)  ploadbar=  1.01086542730781E+05
 cg2d: Sum(rhs),rhsMax =  -5.77768820837757E+01  1.89272909700472E+00
(PID.TID 0000.0001)  ploadbar=  1.01086381754447E+05
 cg2d: Sum(rhs),rhsMax =  -5.76486903678644E+01  1.89820117141203E+00
(PID.TID 0000.0001)  ploadbar=  1.01086220778112E+05
 cg2d: Sum(rhs),rhsMax =  -5.74689029332273E+01  1.90541075922120E+00
(PID.TID 0000.0001)  ploadbar=  1.01086059801778E+05
 cg2d: Sum(rhs),rhsMax =  -5.73164270789556E+01  1.91175998935040E+00
(PID.TID 0000.0001)  ploadbar=  1.01085898825444E+05
 cg2d: Sum(rhs),rhsMax =  -5.71918140070724E+01  1.91721253905752E+00
(PID.TID 0000.0001)  ploadbar=  1.01085737849109E+05
 cg2d: Sum(rhs),rhsMax =  -5.70892761660320E+01  1.92194921762326E+00
(PID.TID 0000.0001)  ploadbar=  1.01085576872775E+05
 cg2d: Sum(rhs),rhsMax =  -5.70793900757346E+01  1.92350966361692E+00
(PID.TID 0000.0001)  ploadbar=  1.01085449877288E+05
 cg2d: Sum(rhs),rhsMax =  -5.71149295052174E+01  1.92347265541871E+00
(PID.TID 0000.0001)  ploadbar=  1.01085322881802E+05
 cg2d: Sum(rhs),rhsMax =  -5.70591211588333E+01  1.92644608407639E+00
(PID.TID 0000.0001)  ploadbar=  1.01085195886315E+05
 cg2d: Sum(rhs),rhsMax =  -5.69788185580922E+01  1.93018459776944E+00
(PID.TID 0000.0001)  ploadbar=  1.01085068890828E+05
 cg2d: Sum(rhs),rhsMax =  -5.69541742988814E+01  1.93197355223459E+00
(PID.TID 0000.0001)  ploadbar=  1.01084941895342E+05
 cg2d: Sum(rhs),rhsMax =  -5.69914206159432E+01  1.93159323529700E+00
(PID.TID 0000.0001)  ploadbar=  1.01084814899855E+05
 cg2d: Sum(rhs),rhsMax =  -5.70732847299469E+01  1.92974875586296E+00
(PID.TID 0000.0001)  ploadbar=  1.01085351689917E+05
 cg2d: Sum(rhs),rhsMax =  -5.71793973810889E+01  1.92713404498423E+00
(PID.TID 0000.0001)  ploadbar=  1.01085888479979E+05
 cg2d: Sum(rhs),rhsMax =  -5.72964257495358E+01  1.92420430245222E+00
(PID.TID 0000.0001)  ploadbar=  1.01086425270041E+05
 cg2d: Sum(rhs),rhsMax =  -5.74363548847868E+01  1.92055996855556E+00
(PID.TID 0000.0001)  ploadbar=  1.01086962060103E+05
 cg2d: Sum(rhs),rhsMax =  -5.76000792826878E+01  1.91618266660063E+00
(PID.TID 0000.0001)  ploadbar=  1.01087498850165E+05
 cg2d: Sum(rhs),rhsMax =  -5.77713580471330E+01  1.91162103847085E+00
(PID.TID 0000.0001)  ploadbar=  1.01088035640227E+05
 cg2d: Sum(rhs),rhsMax =  -5.79955674084192E+01  1.90531878155027E+00
(PID.TID 0000.0001)  ploadbar=  1.01088175427335E+05
 cg2d: Sum(rhs),rhsMax =  -5.82374617077233E+01  1.89846283603309E+00
(PID.TID 0000.0001)  ploadbar=  1.01088315214443E+05
 cg2d: Sum(rhs),rhsMax =  -5.85288703324595E+01  1.89003672621711E+00
(PID.TID 0000.0001)  ploadbar=  1.01088455001552E+05
 cg2d: Sum(rhs),rhsMax =  -5.88672721865986E+01  1.88016490865687E+00
(PID.TID 0000.0001)  ploadbar=  1.01088594788660E+05
 cg2d: Sum(rhs),rhsMax =  -5.92383715347476E+01  1.86934463836202E+00
(PID.TID 0000.0001)  ploadbar=  1.01088734575768E+05
 cg2d: Sum(rhs),rhsMax =  -5.95349471098783E+01  1.86095660699305E+00
(PID.TID 0000.0001)  ploadbar=  1.01088874362877E+05
 cg2d: Sum(rhs),rhsMax =  -5.95867543170041E+01  1.86026404378766E+00
(PID.TID 0000.0001)  ploadbar=  1.01088904338860E+05
 cg2d: Sum(rhs),rhsMax =  -5.96352588066372E+01  1.85967951192451E+00
(PID.TID 0000.0001)  ploadbar=  1.01088934314843E+05
 cg2d: Sum(rhs),rhsMax =  -5.96811540702967E+01  1.85918037235545E+00
(PID.TID 0000.0001)  ploadbar=  1.01088964290827E+05
 cg2d: Sum(rhs),rhsMax =  -5.97245440448797E+01  1.85876269921904E+00
(PID.TID 0000.0001)  ploadbar=  1.01088994266810E+05
 cg2d: Sum(rhs),rhsMax =  -5.97634903220901E+01  1.85848347370001E+00
(PID.TID 0000.0001)  ploadbar=  1.01089024242793E+05
 cg2d: Sum(rhs),rhsMax =  -5.97979518056192E+01  1.85834164176577E+00
(PID.TID 0000.0001)  ploadbar=  1.01089054218776E+05
 cg2d: Sum(rhs),rhsMax =  -5.98408793530742E+01  1.85789403624970E+00
(PID.TID 0000.0001)  ploadbar=  1.01088589613326E+05
 cg2d: Sum(rhs),rhsMax =  -5.98762394359922E+01  1.85763792007365E+00
(PID.TID 0000.0001)  ploadbar=  1.01088125007875E+05
 cg2d: Sum(rhs),rhsMax =  -5.99047355541795E+01  1.85754860134409E+00
(PID.TID 0000.0001)  ploadbar=  1.01087660402425E+05
 cg2d: Sum(rhs),rhsMax =  -5.99293607036922E+01  1.85753310726295E+00
(PID.TID 0000.0001)  ploadbar=  1.01087195796975E+05
 cg2d: Sum(rhs),rhsMax =  -5.99495534678594E+01  1.85760844677476E+00
(PID.TID 0000.0001)  ploadbar=  1.01086731191524E+05
 cg2d: Sum(rhs),rhsMax =  -5.99658087724447E+01  1.85775784732866E+00
(PID.TID 0000.0001)  ploadbar=  1.01086266586074E+05
 cg2d: Sum(rhs),rhsMax =  -5.99528774425332E+01  1.85886552034261E+00
(PID.TID 0000.0001)  ploadbar=  1.01085945704678E+05
 cg2d: Sum(rhs),rhsMax =  -5.99374105635084E+01  1.86010503227862E+00
(PID.TID 0000.0001)  ploadbar=  1.01085624823282E+05
 cg2d: Sum(rhs),rhsMax =  -5.99152909271982E+01  1.86160313321887E+00
(PID.TID 0000.0001)  ploadbar=  1.01085303941887E+05
 cg2d: Sum(rhs),rhsMax =  -5.98859659263989E+01  1.86337275448253E+00
(PID.TID 0000.0001)  ploadbar=  1.01084983060491E+05
 cg2d: Sum(rhs),rhsMax =  -5.98517337465248E+01  1.86534150286589E+00
(PID.TID 0000.0001)  ploadbar=  1.01084662179095E+05
 cg2d: Sum(rhs),rhsMax =  -5.98123160951555E+01  1.86751763497469E+00
(PID.TID 0000.0001)  ploadbar=  1.01084341297699E+05
 cg2d: Sum(rhs),rhsMax =  -5.97889654860185E+01  1.86921626906861E+00
(PID.TID 0000.0001)  ploadbar=  1.01084053085826E+05
 cg2d: Sum(rhs),rhsMax =  -5.97617304726038E+01  1.87106074775327E+00
(PID.TID 0000.0001)  ploadbar=  1.01083764873953E+05
 cg2d: Sum(rhs),rhsMax =  -5.97302020285152E+01  1.87306684202625E+00
(PID.TID 0000.0001)  ploadbar=  1.01083476662079E+05
 cg2d: Sum(rhs),rhsMax =  -5.96931376194387E+01  1.87527733768382E+00
(PID.TID 0000.0001)  ploadbar=  1.01083188450206E+05
 cg2d: Sum(rhs),rhsMax =  -5.96519121483308E+01  1.87764777948747E+00
(PID.TID 0000.0001)  ploadbar=  1.01082900238332E+05
 cg2d: Sum(rhs),rhsMax =  -5.96087373454594E+01  1.88010747898968E+00
(PID.TID 0000.0001)  ploadbar=  1.01082612026459E+05
 cg2d: Sum(rhs),rhsMax =  -5.95515345039741E+01  1.88303523796549E+00
(PID.TID 0000.0001)  ploadbar=  1.01083405504850E+05
 cg2d: Sum(rhs),rhsMax =  -5.94929117221844E+01  1.88603567145412E+00
(PID.TID 0000.0001)  ploadbar=  1.01084198983242E+05
 cg2d: Sum(rhs),rhsMax =  -5.94409511717940E+01  1.88885536703489E+00
(PID.TID 0000.0001)  ploadbar=  1.01084992461634E+05
 cg2d: Sum(rhs),rhsMax =  -5.93906155289020E+01  1.89165236678462E+00
(PID.TID 0000.0001)  ploadbar=  1.01085785940026E+05
 cg2d: Sum(rhs),rhsMax =  -5.93407089454055E+01  1.89446473321825E+00
(PID.TID 0000.0001)  ploadbar=  1.01086579418418E+05
 cg2d: Sum(rhs),rhsMax =  -5.92919394388481E+01  1.89726912944767E+00
(PID.TID 0000.0001)  ploadbar=  1.01087372896810E+05
 cg2d: Sum(rhs),rhsMax =  -5.92556936947714E+01  1.89960315528878E+00
(PID.TID 0000.0001)  ploadbar=  1.01086918346469E+05
 cg2d: Sum(rhs),rhsMax =  -5.92203671704651E+01  1.90183869021276E+00
(PID.TID 0000.0001)  ploadbar=  1.01086463796128E+05
 cg2d: Sum(rhs),rhsMax =  -5.91833800604220E+01  1.90405963018674E+00
(PID.TID 0000.0001)  ploadbar=  1.01086009245787E+05
 cg2d: Sum(rhs),rhsMax =  -5.91487447459608E+01  1.90613411570532E+00
(PID.TID 0000.0001)  ploadbar=  1.01085554695446E+05
 cg2d: Sum(rhs),rhsMax =  -5.91186641576999E+01  1.90799289655544E+00
(PID.TID 0000.0001)  ploadbar=  1.01085100145105E+05
 cg2d: Sum(rhs),rhsMax =  -5.90945914749114E+01  1.90958856354889E+00
(PID.TID 0000.0001)  ploadbar=  1.01084645594764E+05
 cg2d: Sum(rhs),rhsMax =  -5.90681219655709E+01  1.91129025098221E+00
(PID.TID 0000.0001)  ploadbar=  1.01085997886423E+05
 cg2d: Sum(rhs),rhsMax =  -5.90521349308948E+01  1.91268122098030E+00
(PID.TID 0000.0001)  ploadbar=  1.01087350178082E+05
 cg2d: Sum(rhs),rhsMax =  -5.90480698534369E+01  1.91371157461106E+00
(PID.TID 0000.0001)  ploadbar=  1.01088702469740E+05
 cg2d: Sum(rhs),rhsMax =  -5.90588467365444E+01  1.91428684919906E+00
(PID.TID 0000.0001)  ploadbar=  1.01090054761399E+05
 cg2d: Sum(rhs),rhsMax =  -5.90870091341011E+01  1.91432758454094E+00
(PID.TID 0000.0001)  ploadbar=  1.01091407053058E+05
 cg2d: Sum(rhs),rhsMax =  -5.91341956106673E+01  1.91378097090120E+00
(PID.TID 0000.0001)  ploadbar=  1.01092759344716E+05
 cg2d: Sum(rhs),rhsMax =  -5.92042192136092E+01  1.91252306057938E+00
(PID.TID 0000.0001)  ploadbar=  1.01093362655728E+05
 cg2d: Sum(rhs),rhsMax =  -5.92929767257303E+01  1.91069293524692E+00
(PID.TID 0000.0001)  ploadbar=  1.01093965966740E+05
 cg2d: Sum(rhs),rhsMax =  -5.94042769792056E+01  1.90817349368825E+00
(PID.TID 0000.0001)  ploadbar=  1.01094569277752E+05
 cg2d: Sum(rhs),rhsMax =  -5.95358663811908E+01  1.90504165487211E+00
(PID.TID 0000.0001)  ploadbar=  1.01095172588764E+05
 cg2d: Sum(rhs),rhsMax =  -5.96855171912739E+01  1.90137493127465E+00
(PID.TID 0000.0001)  ploadbar=  1.01095775899776E+05
 cg2d: Sum(rhs),rhsMax =  -5.98519100684468E+01  1.89722083133181E+00
(PID.TID 0000.0001)  ploadbar=  1.01096379210788E+05
 cg2d: Sum(rhs),rhsMax =  -6.00535267133425E+01  1.89196749385499E+00
(PID.TID 0000.0001)  ploadbar=  1.01096243348169E+05
 cg2d: Sum(rhs),rhsMax =  -6.02631765713777E+01  1.88649091870280E+00
(PID.TID 0000.0001)  ploadbar=  1.01096107485549E+05
 cg2d: Sum(rhs),rhsMax =  -6.04840031475794E+01  1.88069591708351E+00
(PID.TID 0000.0001)  ploadbar=  1.01095971622930E+05
 cg2d: Sum(rhs),rhsMax =  -6.07145689061470E+01  1.87463283837605E+00
(PID.TID 0000.0001)  ploadbar=  1.01095835760311E+05
 cg2d: Sum(rhs),rhsMax =  -6.09503415707962E+01  1.86844521066068E+00
(PID.TID 0000.0001)  ploadbar=  1.01095699897691E+05
 cg2d: Sum(rhs),rhsMax =  -6.11900797595568E+01  1.86217216366127E+00
(PID.TID 0000.0001)  ploadbar=  1.01095564035072E+05
 cg2d: Sum(rhs),rhsMax =  -6.14094011745723E+01  1.85651841474299E+00
(PID.TID 0000.0001)  ploadbar=  1.01096010581509E+05
 cg2d: Sum(rhs),rhsMax =  -6.16321749151802E+01  1.85075526340286E+00
(PID.TID 0000.0001)  ploadbar=  1.01096457127947E+05
 cg2d: Sum(rhs),rhsMax =  -6.18587190819946E+01  1.84487459762975E+00
(PID.TID 0000.0001)  ploadbar=  1.01096903674385E+05
 cg2d: Sum(rhs),rhsMax =  -6.20895780978003E+01  1.83886261761989E+00
(PID.TID 0000.0001)  ploadbar=  1.01097350220823E+05
 cg2d: Sum(rhs),rhsMax =  -6.23250415154023E+01  1.83271362626418E+00
(PID.TID 0000.0001)  ploadbar=  1.01097796767261E+05
 cg2d: Sum(rhs),rhsMax =  -6.25655007972133E+01  1.82641951601941E+00
(PID.TID 0000.0001)  ploadbar=  1.01098243313698E+05
 cg2d: Sum(rhs),rhsMax =  -6.28153890525735E+01  1.81993225948304E+00
(PID.TID 0000.0001)  ploadbar=  1.01098912385173E+05
 cg2d: Sum(rhs),rhsMax =  -6.30616548554384E+01  1.81363203209298E+00
(PID.TID 0000.0001)  ploadbar=  1.01099581456648E+05
 cg2d: Sum(rhs),rhsMax =  -6.32991924295519E+01  1.80766178953866E+00
(PID.TID 0000.0001)  ploadbar=  1.01100250528122E+05
 cg2d: Sum(rhs),rhsMax =  -6.35289988512822E+01  1.80198731982147E+00
(PID.TID 0000.0001)  ploadbar=  1.01100919599597E+05
 cg2d: Sum(rhs),rhsMax =  -6.37496227070306E+01  1.79664365354771E+00
(PID.TID 0000.0001)  ploadbar=  1.01101588671072E+05
 cg2d: Sum(rhs),rhsMax =  -6.39604914695911E+01  1.79163864953248E+00
(PID.TID 0000.0001)  ploadbar=  1.01102257742546E+05
 cg2d: Sum(rhs),rhsMax =  -6.41800903894978E+01  1.78643053753165E+00
(PID.TID 0000.0001)  ploadbar=  1.01102599485315E+05
 cg2d: Sum(rhs),rhsMax =  -6.43898025751870E+01  1.78153897952561E+00
(PID.TID 0000.0001)  ploadbar=  1.01102941228084E+05
 cg2d: Sum(rhs),rhsMax =  -6.45894442857618E+01  1.77696517821125E+00
(PID.TID 0000.0001)  ploadbar=  1.01103282970853E+05
 cg2d: Sum(rhs),rhsMax =  -6.47815795279871E+01  1.77263251074944E+00
(PID.TID 0000.0001)  ploadbar=  1.01103624713622E+05
 cg2d: Sum(rhs),rhsMax =  -6.49676785205686E+01  1.76849394512661E+00
(PID.TID 0000.0001)  ploadbar=  1.01103966456390E+05
 cg2d: Sum(rhs),rhsMax =  -6.51481608249973E+01  1.76453243966120E+00
(PID.TID 0000.0001)  ploadbar=  1.01104308199159E+05
 cg2d: Sum(rhs),rhsMax =  -6.53210266280096E+01  1.76079966883582E+00
(PID.TID 0000.0001)  ploadbar=  1.01105139929419E+05
 cg2d: Sum(rhs),rhsMax =  -6.54895092326316E+01  1.75720615665883E+00
(PID.TID 0000.0001)  ploadbar=  1.01105971659679E+05
 cg2d: Sum(rhs),rhsMax =  -6.56532589524342E+01  1.75375625742586E+00
(PID.TID 0000.0001)  ploadbar=  1.01106803389939E+05
 cg2d: Sum(rhs),rhsMax =  -6.58112925275756E+01  1.75047344072146E+00
(PID.TID 0000.0001)  ploadbar=  1.01107635120199E+05
 cg2d: Sum(rhs),rhsMax =  -6.59657004628204E+01  1.74729845880366E+00
(PID.TID 0000.0001)  ploadbar=  1.01108466850459E+05
 cg2d: Sum(rhs),rhsMax =  -6.61178376313100E+01  1.74419100295190E+00
(PID.TID 0000.0001)  ploadbar=  1.01109298580719E+05
 cg2d: Sum(rhs),rhsMax =  -6.62407043887394E+01  1.74182621727609E+00
(PID.TID 0000.0001)  ploadbar=  1.01109517227604E+05
 cg2d: Sum(rhs),rhsMax =  -6.63645583415960E+01  1.73940331641156E+00
(PID.TID 0000.0001)  ploadbar=  1.01109735874489E+05
 cg2d: Sum(rhs),rhsMax =  -6.64887136692572E+01  1.73694023906728E+00
(PID.TID 0000.0001)  ploadbar=  1.01109954521374E+05
 cg2d: Sum(rhs),rhsMax =  -6.66106822296622E+01  1.73450160933920E+00
(PID.TID 0000.0001)  ploadbar=  1.01110173168259E+05
 cg2d: Sum(rhs),rhsMax =  -6.67307190078866E+01  1.73207960973914E+00
(PID.TID 0000.0001)  ploadbar=  1.01110391815144E+05
 cg2d: Sum(rhs),rhsMax =  -6.68491818300380E+01  1.72966248348846E+00
(PID.TID 0000.0001)  ploadbar=  1.01110610462030E+05
 cg2d: Sum(rhs),rhsMax =  -6.69374257055124E+01  1.72803939064210E+00
(PID.TID 0000.0001)  ploadbar=  1.01111574045368E+05
 cg2d: Sum(rhs),rhsMax =  -6.70094894406901E+01  1.72684129939340E+00
(PID.TID 0000.0001)  ploadbar=  1.01112537628706E+05
 cg2d: Sum(rhs),rhsMax =  -6.70606336160782E+01  1.72618761903495E+00
(PID.TID 0000.0001)  ploadbar=  1.01113501212044E+05
 cg2d: Sum(rhs),rhsMax =  -6.70838664887993E+01  1.72625584028610E+00
(PID.TID 0000.0001)  ploadbar=  1.01114464795383E+05
 cg2d: Sum(rhs),rhsMax =  -6.70840508835457E+01  1.72692005141733E+00
(PID.TID 0000.0001)  ploadbar=  1.01115428378721E+05
 cg2d: Sum(rhs),rhsMax =  -6.70762194199640E+01  1.72779361318794E+00
(PID.TID 0000.0001)  ploadbar=  1.01116391962059E+05
 cg2d: Sum(rhs),rhsMax =  -6.71029727959954E+01  1.72780513117197E+00
(PID.TID 0000.0001)  ploadbar=  1.01116051085573E+05
 cg2d: Sum(rhs),rhsMax =  -6.71932689391294E+01  1.72621145053118E+00
(PID.TID 0000.0001)  ploadbar=  1.01115710209086E+05
 cg2d: Sum(rhs),rhsMax =  -6.73944962549145E+01  1.72181212583237E+00
(PID.TID 0000.0001)  ploadbar=  1.01115369332600E+05
 cg2d: Sum(rhs),rhsMax =  -6.77395627192903E+01  1.71381889941433E+00
(PID.TID 0000.0001)  ploadbar=  1.01115028456113E+05
 cg2d: Sum(rhs),rhsMax =  -6.82249024148750E+01  1.70242301587154E+00
(PID.TID 0000.0001)  ploadbar=  1.01114687579626E+05
 cg2d: Sum(rhs),rhsMax =  -6.88426081153972E+01  1.68795789393282E+00
(PID.TID 0000.0001)  ploadbar=  1.01114346703140E+05
 cg2d: Sum(rhs),rhsMax =  -6.95814892330604E+01  1.67082600102766E+00
(PID.TID 0000.0001)  ploadbar=  1.01113715662121E+05
 cg2d: Sum(rhs),rhsMax =  -7.04402278390007E+01  1.65123197254791E+00
(PID.TID 0000.0001)  ploadbar=  1.01113084621101E+05
 cg2d: Sum(rhs),rhsMax =  -7.13914893079644E+01  1.62998686621054E+00
(PID.TID 0000.0001)  ploadbar=  1.01112453580082E+05
 cg2d: Sum(rhs),rhsMax =  -7.23680478543104E+01  1.60872736086889E+00
(PID.TID 0000.0001)  ploadbar=  1.01111822539063E+05
 cg2d: Sum(rhs),rhsMax =  -7.33002483024243E+01  1.58898266471754E+00
(PID.TID 0000.0001)  ploadbar=  1.01111191498044E+05
 cg2d: Sum(rhs),rhsMax =  -7.41435286166034E+01  1.57160189734770E+00
(PID.TID 0000.0001)  ploadbar=  1.01110560457024E+05
 cg2d: Sum(rhs),rhsMax =  -7.48883959461334E+01  1.55663054213364E+00
(PID.TID 0000.0001)  ploadbar=  1.01110325594713E+05
 cg2d: Sum(rhs),rhsMax =  -7.55026374318858E+01  1.54459590028218E+00
(PID.TID 0000.0001)  ploadbar=  1.01110090732401E+05
 cg2d: Sum(rhs),rhsMax =  -7.59989397957919E+01  1.53510913451968E+00
(PID.TID 0000.0001)  ploadbar=  1.01109855870089E+05
 cg2d: Sum(rhs),rhsMax =  -7.64080771894627E+01  1.52746040928236E+00
(PID.TID 0000.0001)  ploadbar=  1.01109621007777E+05
 cg2d: Sum(rhs),rhsMax =  -7.67518373142177E+01  1.52116160858501E+00
(PID.TID 0000.0001)  ploadbar=  1.01109386145466E+05
 cg2d: Sum(rhs),rhsMax =  -7.70523355694636E+01  1.51574153642048E+00
(PID.TID 0000.0001)  ploadbar=  1.01109151283154E+05
 cg2d: Sum(rhs),rhsMax =  -7.73036333097590E+01  1.51134415964015E+00
(PID.TID 0000.0001)  ploadbar=  1.01108352701572E+05
 cg2d: Sum(rhs),rhsMax =  -7.75409992256272E+01  1.50726502443763E+00
(PID.TID 0000.0001)  ploadbar=  1.01107554119991E+05
 cg2d: Sum(rhs),rhsMax =  -7.77319208009505E+01  1.50412662821731E+00
(PID.TID 0000.0001)  ploadbar=  1.01106755538409E+05
 cg2d: Sum(rhs),rhsMax =  -7.79048286830213E+01  1.50136847819003E+00
(PID.TID 0000.0001)  ploadbar=  1.01105956956828E+05
 cg2d: Sum(rhs),rhsMax =  -7.80747680745613E+01  1.49869748315529E+00
(PID.TID 0000.0001)  ploadbar=  1.01105158375246E+05
 cg2d: Sum(rhs),rhsMax =  -7.82455193309794E+01  1.49603836415591E+00
(PID.TID 0000.0001)  ploadbar=  1.01104359793664E+05
 cg2d: Sum(rhs),rhsMax =  -7.85098010703256E+01  1.49162623568348E+00
(PID.TID 0000.0001)  ploadbar=  1.01104449950411E+05
 cg2d: Sum(rhs),rhsMax =  -7.87980003015628E+01  1.48680739238193E+00
(PID.TID 0000.0001)  ploadbar=  1.01104540107157E+05
 cg2d: Sum(rhs),rhsMax =  -7.90993497493397E+01  1.48179439256905E+00
(PID.TID 0000.0001)  ploadbar=  1.01104630263903E+05
 cg2d: Sum(rhs),rhsMax =  -7.94242660545012E+01  1.47639967801174E+00
(PID.TID 0000.0001)  ploadbar=  1.01104720420649E+05
 cg2d: Sum(rhs),rhsMax =  -7.97795002434391E+01  1.47050699791116E+00
(PID.TID 0000.0001)  ploadbar=  1.01104810577395E+05
 cg2d: Sum(rhs),rhsMax =  -8.01659967912169E+01  1.46411079018819E+00
(PID.TID 0000.0001)  ploadbar=  1.01104900734141E+05
 cg2d: Sum(rhs),rhsMax =  -8.05962690716875E+01  1.45699142760546E+00
(PID.TID 0000.0001)  ploadbar=  1.01105443440577E+05
 cg2d: Sum(rhs),rhsMax =  -8.10358861455723E+01  1.44978968195238E+00
(PID.TID 0000.0001)  ploadbar=  1.01105986147013E+05
 cg2d: Sum(rhs),rhsMax =  -8.14671367541071E+01  1.44282278992258E+00
(PID.TID 0000.0001)  ploadbar=  1.01106528853449E+05
 cg2d: Sum(rhs),rhsMax =  -8.18824985220924E+01  1.43621490710936E+00
(PID.TID 0000.0001)  ploadbar=  1.01107071559884E+05
 cg2d: Sum(rhs),rhsMax =  -8.22834974787791E+01  1.42992838717237E+00
(PID.TID 0000.0001)  ploadbar=  1.01107614266320E+05
 cg2d: Sum(rhs),rhsMax =  -8.26716944503844E+01  1.42392636332462E+00
(PID.TID 0000.0001)  ploadbar=  1.01108156972756E+05
 cg2d: Sum(rhs),rhsMax =  -8.30736948122204E+01  1.41771101400852E+00
(PID.TID 0000.0001)  ploadbar=  1.01108237493417E+05
 cg2d: Sum(rhs),rhsMax =  -8.34751123742994E+01  1.41153192543591E+00
(PID.TID 0000.0001)  ploadbar=  1.01108318014077E+05
 cg2d: Sum(rhs),rhsMax =  -8.38569248594474E+01  1.40570589482267E+00
(PID.TID 0000.0001)  ploadbar=  1.01108398534738E+05
 cg2d: Sum(rhs),rhsMax =  -8.42251868217100E+01  1.40012289736827E+00
(PID.TID 0000.0001)  ploadbar=  1.01108479055399E+05
 cg2d: Sum(rhs),rhsMax =  -8.45811411034821E+01  1.39475587944366E+00
(PID.TID 0000.0001)  ploadbar=  1.01108559576060E+05
 cg2d: Sum(rhs),rhsMax =  -8.49175463871208E+01  1.38971707675312E+00
(PID.TID 0000.0001)  ploadbar=  1.01108640096721E+05
 cg2d: Sum(rhs),rhsMax =  -8.51424408921613E+01  1.38654214732715E+00
(PID.TID 0000.0001)  ploadbar=  1.01109788139579E+05
 cg2d: Sum(rhs),rhsMax =  -8.53558013432363E+01  1.38358158867642E+00
(PID.TID 0000.0001)  ploadbar=  1.01110936182438E+05
 cg2d: Sum(rhs),rhsMax =  -8.55423067077416E+01  1.38108089989866E+00
(PID.TID 0000.0001)  ploadbar=  1.01112084225297E+05
 cg2d: Sum(rhs),rhsMax =  -8.57230127291503E+01  1.37869748783110E+00
(PID.TID 0000.0001)  ploadbar=  1.01113232268155E+05
 cg2d: Sum(rhs),rhsMax =  -8.59137907531995E+01  1.37617601658193E+00
(PID.TID 0000.0001)  ploadbar=  1.01114380311014E+05
 cg2d: Sum(rhs),rhsMax =  -8.61174237902708E+01  1.37347457714856E+00
(PID.TID 0000.0001)  ploadbar=  1.01115528353873E+05
 cg2d: Sum(rhs),rhsMax =  -8.63074258070417E+01  1.37099903044505E+00
(PID.TID 0000.0001)  ploadbar=  1.01116367720446E+05
 cg2d: Sum(rhs),rhsMax =  -8.65006312867373E+01  1.36848147732884E+00
(PID.TID 0000.0001)  ploadbar=  1.01117207087020E+05
 cg2d: Sum(rhs),rhsMax =  -8.66904064804415E+01  1.36602872917355E+00
(PID.TID 0000.0001)  ploadbar=  1.01118046453594E+05
 cg2d: Sum(rhs),rhsMax =  -8.68779180844562E+01  1.36362174011797E+00
(PID.TID 0000.0001)  ploadbar=  1.01118885820168E+05
 cg2d: Sum(rhs),rhsMax =  -8.70649246124786E+01  1.36123136330546E+00
(PID.TID 0000.0001)  ploadbar=  1.01119725186741E+05
 cg2d: Sum(rhs),rhsMax =  -8.72527502297240E+01  1.35883606551796E+00
(PID.TID 0000.0001)  ploadbar=  1.01120564553315E+05
 cg2d: Sum(rhs),rhsMax =  -8.74206524126497E+01  1.35675414025311E+00
(PID.TID 0000.0001)  ploadbar=  1.01121183688529E+05
 cg2d: Sum(rhs),rhsMax =  -8.75705048156238E+01  1.35495605144479E+00
(PID.TID 0000.0001)  ploadbar=  1.01121802823744E+05
 cg2d: Sum(rhs),rhsMax =  -8.77030080139800E+01  1.35342854336925E+00
(PID.TID 0000.0001)  ploadbar=  1.01122421958959E+05
 cg2d: Sum(rhs),rhsMax =  -8.77999725846265E+01  1.35245017021513E+00
(PID.TID 0000.0001)  ploadbar=  1.01123041094173E+05
 cg2d: Sum(rhs),rhsMax =  -8.78519322112073E+01  1.35216406087534E+00
(PID.TID 0000.0001)  ploadbar=  1.01123660229388E+05
 cg2d: Sum(rhs),rhsMax =  -8.78585293951753E+01  1.35257401601389E+00
(PID.TID 0000.0001)  ploadbar=  1.01124279364602E+05
 cg2d: Sum(rhs),rhsMax =  -8.77384727517003E+01  1.35490734302982E+00
(PID.TID 0000.0001)  ploadbar=  1.01125413926302E+05
 cg2d: Sum(rhs),rhsMax =  -8.74458262498070E+01  1.35989635101605E+00
(PID.TID 0000.0001)  ploadbar=  1.01126548488002E+05
 cg2d: Sum(rhs),rhsMax =  -8.71664636488074E+01  1.36468193873200E+00
(PID.TID 0000.0001)  ploadbar=  1.01127683049702E+05
 cg2d: Sum(rhs),rhsMax =  -8.68874660045598E+01  1.36946503227468E+00
(PID.TID 0000.0001)  ploadbar=  1.01128817611402E+05
 cg2d: Sum(rhs),rhsMax =  -8.65983710097649E+01  1.37441155681639E+00
(PID.TID 0000.0001)  ploadbar=  1.01129952173102E+05
 cg2d: Sum(rhs),rhsMax =  -8.62918806157527E+01  1.37963938506993E+00
(PID.TID 0000.0001)  ploadbar=  1.01131086734802E+05
 cg2d: Sum(rhs),rhsMax =  -8.59871492243478E+01  1.38490498358881E+00
(PID.TID 0000.0001)  ploadbar=  1.01132972447170E+05
 cg2d: Sum(rhs),rhsMax =  -8.56730253639466E+01  1.39039011923994E+00
(PID.TID 0000.0001)  ploadbar=  1.01134858159537E+05
 cg2d: Sum(rhs),rhsMax =  -8.53608363369501E+01  1.39591459728125E+00
(PID.TID 0000.0001)  ploadbar=  1.01136743871904E+05
 cg2d: Sum(rhs),rhsMax =  -8.50559390704056E+01  1.40139130073427E+00
(PID.TID 0000.0001)  ploadbar=  1.01138629584272E+05
 cg2d: Sum(rhs),rhsMax =  -8.47605345979697E+01  1.40678075860289E+00
(PID.TID 0000.0001)  ploadbar=  1.01140515296639E+05
 cg2d: Sum(rhs),rhsMax =  -8.44761923353848E+01  1.41205299511265E+00
(PID.TID 0000.0001)  ploadbar=  1.01142401009006E+05
 cg2d: Sum(rhs),rhsMax =  -8.41687175915953E+01  1.41777514635955E+00
(PID.TID 0000.0001)  ploadbar=  1.01142650543068E+05
 cg2d: Sum(rhs),rhsMax =  -8.38263580486280E+01  1.42415456027892E+00
(PID.TID 0000.0001)  ploadbar=  1.01142900077130E+05
 cg2d: Sum(rhs),rhsMax =  -8.34647052301887E+01  1.43093926060167E+00
(PID.TID 0000.0001)  ploadbar=  1.01143149611192E+05
 cg2d: Sum(rhs),rhsMax =  -8.30934703383823E+01  1.43797247061563E+00
(PID.TID 0000.0001)  ploadbar=  1.01143399145253E+05
 cg2d: Sum(rhs),rhsMax =  -8.27078083561717E+01  1.44534487101907E+00
(PID.TID 0000.0001)  ploadbar=  1.01143648679315E+05
 cg2d: Sum(rhs),rhsMax =  -8.23046866769490E+01  1.45312016900832E+00
(PID.TID 0000.0001)  ploadbar=  1.01143898213377E+05
 cg2d: Sum(rhs),rhsMax =  -8.19077552559490E+01  1.46084496477271E+00
(PID.TID 0000.0001)  ploadbar=  1.01143779337469E+05
 cg2d: Sum(rhs),rhsMax =  -8.15139798482167E+01  1.46857387797366E+00
(PID.TID 0000.0001)  ploadbar=  1.01143660461561E+05
 cg2d: Sum(rhs),rhsMax =  -8.11348672832825E+01  1.47610018987373E+00
(PID.TID 0000.0001)  ploadbar=  1.01143541585653E+05
 cg2d: Sum(rhs),rhsMax =  -8.07844418160520E+01  1.48316234889591E+00
(PID.TID 0000.0001)  ploadbar=  1.01143422709745E+05
 cg2d: Sum(rhs),rhsMax =  -8.04723425801762E+01  1.48957021202814E+00
(PID.TID 0000.0001)  ploadbar=  1.01143303833837E+05
 cg2d: Sum(rhs),rhsMax =  -8.02022240590753E+01  1.49523523421805E+00
(PID.TID 0000.0001)  ploadbar=  1.01143184957929E+05
 cg2d: Sum(rhs),rhsMax =  -7.99606348411538E+01  1.50037803217211E+00
(PID.TID 0000.0001)  ploadbar=  1.01144019998994E+05
 cg2d: Sum(rhs),rhsMax =  -7.97386516089033E+01  1.50515682398010E+00
(PID.TID 0000.0001)  ploadbar=  1.01144855040058E+05
 cg2d: Sum(rhs),rhsMax =  -7.95225750007865E+01  1.50982464927534E+00
(PID.TID 0000.0001)  ploadbar=  1.01145690081123E+05
 cg2d: Sum(rhs),rhsMax =  -7.92991747065598E+01  1.51463367610570E+00
(PID.TID 0000.0001)  ploadbar=  1.01146525122187E+05
 cg2d: Sum(rhs),rhsMax =  -7.90594772766939E+01  1.51975792539124E+00
(PID.TID 0000.0001)  ploadbar=  1.01147360163252E+05
 cg2d: Sum(rhs),rhsMax =  -7.88013182942150E+01  1.52524373834443E+00
(PID.TID 0000.0001)  ploadbar=  1.01148195204316E+05
 cg2d: Sum(rhs),rhsMax =  -7.85258485718808E+01  1.53113972045795E+00
(PID.TID 0000.0001)  ploadbar=  1.01148361054430E+05
 cg2d: Sum(rhs),rhsMax =  -7.82656177670727E+01  1.53681522019898E+00
(PID.TID 0000.0001)  ploadbar=  1.01148526904544E+05
 cg2d: Sum(rhs),rhsMax =  -7.80424764730756E+01  1.54183380133502E+00
(PID.TID 0000.0001)  ploadbar=  1.01148692754658E+05
 cg2d: Sum(rhs),rhsMax =  -7.78751920483361E+01  1.54581093584180E+00
(PID.TID 0000.0001)  ploadbar=  1.01148858604772E+05
 cg2d: Sum(rhs),rhsMax =  -7.77811514188449E+01  1.54838689584752E+00
(PID.TID 0000.0001)  ploadbar=  1.01149024454886E+05
 cg2d: Sum(rhs),rhsMax =  -7.77637150180249E+01  1.54948105409283E+00
(PID.TID 0000.0001)  ploadbar=  1.01149190305000E+05
 cg2d: Sum(rhs),rhsMax =  -7.77986639400952E+01  1.54953797309376E+00
(PID.TID 0000.0001)  ploadbar=  1.01148568704263E+05
 cg2d: Sum(rhs),rhsMax =  -7.78618412858935E+01  1.54904122486762E+00
(PID.TID 0000.0001)  ploadbar=  1.01147947103527E+05
 cg2d: Sum(rhs),rhsMax =  -7.79267983629484E+01  1.54851860404342E+00
(PID.TID 0000.0001)  ploadbar=  1.01147325502790E+05
 cg2d: Sum(rhs),rhsMax =  -7.79741267055543E+01  1.54835442794954E+00
(PID.TID 0000.0001)  ploadbar=  1.01146703902053E+05
 cg2d: Sum(rhs),rhsMax =  -7.79933886607722E+01  1.54875622157543E+00
(PID.TID 0000.0001)  ploadbar=  1.01146082301317E+05
 cg2d: Sum(rhs),rhsMax =  -7.79852432887877E+01  1.54971071895326E+00
(PID.TID 0000.0001)  ploadbar=  1.01145460700580E+05
 cg2d: Sum(rhs),rhsMax =  -7.79283455504150E+01  1.55164674413553E+00
(PID.TID 0000.0001)  ploadbar=  1.01145552353320E+05
 cg2d: Sum(rhs),rhsMax =  -7.78450091207775E+01  1.55412484323193E+00
(PID.TID 0000.0001)  ploadbar=  1.01145644006060E+05
 cg2d: Sum(rhs),rhsMax =  -7.77594463047616E+01  1.55666444337840E+00
(PID.TID 0000.0001)  ploadbar=  1.01145735658800E+05
 cg2d: Sum(rhs),rhsMax =  -7.77327128986915E+01  1.55804010844633E+00
(PID.TID 0000.0001)  ploadbar=  1.01145827311540E+05
 cg2d: Sum(rhs),rhsMax =  -7.77801485791550E+01  1.55794133461910E+00
(PID.TID 0000.0001)  ploadbar=  1.01145918964281E+05
 cg2d: Sum(rhs),rhsMax =  -7.78980152706311E+01  1.55644486607298E+00
(PID.TID 0000.0001)  ploadbar=  1.01146010617021E+05
 cg2d: Sum(rhs),rhsMax =  -7.80385243286957E+01  1.55445377269118E+00
(PID.TID 0000.0001)  ploadbar=  1.01145249168063E+05
 cg2d: Sum(rhs),rhsMax =  -7.81819098028581E+01  1.55236521755872E+00
(PID.TID 0000.0001)  ploadbar=  1.01144487719105E+05
 cg2d: Sum(rhs),rhsMax =  -7.83051126792343E+01  1.55063710073458E+00
(PID.TID 0000.0001)  ploadbar=  1.01143726270147E+05
 cg2d: Sum(rhs),rhsMax =  -7.83922133968459E+01  1.54958125694325E+00
(PID.TID 0000.0001)  ploadbar=  1.01142964821189E+05
 cg2d: Sum(rhs),rhsMax =  -7.84421013932872E+01  1.54921263159977E+00
(PID.TID 0000.0001)  ploadbar=  1.01142203372231E+05
 cg2d: Sum(rhs),rhsMax =  -7.84706295804678E+01  1.54921371748758E+00
(PID.TID 0000.0001)  ploadbar=  1.01141441923272E+05
 cg2d: Sum(rhs),rhsMax =  -7.85558456103977E+01  1.54812348067149E+00
(PID.TID 0000.0001)  ploadbar=  1.01141483220520E+05
 cg2d: Sum(rhs),rhsMax =  -7.95157598554925E+01  1.53004687034535E+00
(PID.TID 0000.0001)  ploadbar=  1.01141524517767E+05
 cg2d: Sum(rhs),rhsMax =  -8.06104250294629E+01  1.50990197169947E+00
(PID.TID 0000.0001)  ploadbar=  1.01141565815014E+05
 cg2d: Sum(rhs),rhsMax =  -8.18227655216065E+01  1.48818134263459E+00
(PID.TID 0000.0001)  ploadbar=  1.01141607112262E+05
 cg2d: Sum(rhs),rhsMax =  -8.31212927661879E+01  1.46560028459941E+00
(PID.TID 0000.0001)  ploadbar=  1.01141648409509E+05
 cg2d: Sum(rhs),rhsMax =  -8.44472516263700E+01  1.44327021727643E+00
(PID.TID 0000.0001)  ploadbar=  1.01141689706756E+05
 cg2d: Sum(rhs),rhsMax =  -8.56563655419257E+01  1.42356458220737E+00
(PID.TID 0000.0001)  ploadbar=  1.01141261242227E+05
 cg2d: Sum(rhs),rhsMax =  -8.66944755490687E+01  1.40717626535023E+00
(PID.TID 0000.0001)  ploadbar=  1.01140832777698E+05
 cg2d: Sum(rhs),rhsMax =  -8.64710505826164E+01  1.41146975502088E+00
(PID.TID 0000.0001)  ploadbar=  1.01140404313169E+05
 cg2d: Sum(rhs),rhsMax =  -8.48138809430751E+01  1.43971800309610E+00
(PID.TID 0000.0001)  ploadbar=  1.01139975848640E+05
 cg2d: Sum(rhs),rhsMax =  -8.33245267947371E+01  1.46613080033752E+00
(PID.TID 0000.0001)  ploadbar=  1.01139547384111E+05
 cg2d: Sum(rhs),rhsMax =  -8.19928430583155E+01  1.49063080832682E+00
(PID.TID 0000.0001)  ploadbar=  1.01139118919582E+05
 cg2d: Sum(rhs),rhsMax =  -8.09175028348247E+01  1.51113639041665E+00
(PID.TID 0000.0001)  ploadbar=  1.01138835232519E+05
 cg2d: Sum(rhs),rhsMax =  -7.99564022999926E+01  1.53000990116135E+00
(PID.TID 0000.0001)  ploadbar=  1.01138551545457E+05
 cg2d: Sum(rhs),rhsMax =  -7.90625304151120E+01  1.54803038839505E+00
(PID.TID 0000.0001)  ploadbar=  1.01138267858394E+05
 cg2d: Sum(rhs),rhsMax =  -7.82265509469639E+01  1.56530609249164E+00
(PID.TID 0000.0001)  ploadbar=  1.01137984171332E+05
 cg2d: Sum(rhs),rhsMax =  -7.74358056921351E+01  1.58203063358299E+00
(PID.TID 0000.0001)  ploadbar=  1.01137700484269E+05
 cg2d: Sum(rhs),rhsMax =  -7.66743541505815E+01  1.59848826223031E+00
(PID.TID 0000.0001)  ploadbar=  1.01137416797207E+05
 cg2d: Sum(rhs),rhsMax =  -7.60327394494924E+01  1.61265852788721E+00
(PID.TID 0000.0001)  ploadbar=  1.01137535182717E+05
 cg2d: Sum(rhs),rhsMax =  -7.54491262766205E+01  1.62574583207207E+00
(PID.TID 0000.0001)  ploadbar=  1.01137653568227E+05
 cg2d: Sum(rhs),rhsMax =  -7.49023014522720E+01  1.63816050331684E+00
(PID.TID 0000.0001)  ploadbar=  1.01137771953737E+05
 cg2d: Sum(rhs),rhsMax =  -7.43980606159718E+01  1.64973877301570E+00
(PID.TID 0000.0001)  ploadbar=  1.01137890339247E+05
 cg2d: Sum(rhs),rhsMax =  -7.39334656627243E+01  1.66051120879676E+00
(PID.TID 0000.0001)  ploadbar=  1.01138008724757E+05
 cg2d: Sum(rhs),rhsMax =  -7.35207712190249E+01  1.67016272428455E+00
(PID.TID 0000.0001)  ploadbar=  1.01138127110267E+05
 cg2d: Sum(rhs),rhsMax =  -7.32296471264383E+01  1.67714990470362E+00
(PID.TID 0000.0001)  ploadbar=  1.01138157085913E+05
 cg2d: Sum(rhs),rhsMax =  -7.30571713109382E+01  1.68147068757684E+00
(PID.TID 0000.0001)  ploadbar=  1.01138187061559E+05
 cg2d: Sum(rhs),rhsMax =  -7.30172367570329E+01  1.68276714128092E+00
(PID.TID 0000.0001)  ploadbar=  1.01138217037205E+05
 cg2d: Sum(rhs),rhsMax =  -7.31401127760378E+01  1.68032902666537E+00
(PID.TID 0000.0001)  ploadbar=  1.01138247012851E+05
 cg2d: Sum(rhs),rhsMax =  -7.33672084006175E+01  1.67552597886629E+00
(PID.TID 0000.0001)  ploadbar=  1.01138276988497E+05
 cg2d: Sum(rhs),rhsMax =  -7.40858205523696E+01  1.65967441562380E+00
(PID.TID 0000.0001)  ploadbar=  1.01138306964143E+05
 cg2d: Sum(rhs),rhsMax =  -7.47635610925124E+01  1.64504118015899E+00
(PID.TID 0000.0001)  ploadbar=  1.01138980294542E+05
 cg2d: Sum(rhs),rhsMax =  -7.54686730574313E+01  1.63009491866230E+00
(PID.TID 0000.0001)  ploadbar=  1.01139653624941E+05
 cg2d: Sum(rhs),rhsMax =  -7.61647590131817E+01  1.61563279356926E+00
(PID.TID 0000.0001)  ploadbar=  1.01140326955340E+05
 cg2d: Sum(rhs),rhsMax =  -7.68289213395798E+01  1.60210984846979E+00
(PID.TID 0000.0001)  ploadbar=  1.01141000285739E+05
 cg2d: Sum(rhs),rhsMax =  -7.74483806533140E+01  1.58974719214335E+00
(PID.TID 0000.0001)  ploadbar=  1.01141673616138E+05
 cg2d: Sum(rhs),rhsMax =  -7.80152651028076E+01  1.57865325888719E+00
(PID.TID 0000.0001)  ploadbar=  1.01142346946537E+05
 cg2d: Sum(rhs),rhsMax =  -7.85407675199209E+01  1.56856527017965E+00
(PID.TID 0000.0001)  ploadbar=  1.01143424753857E+05
 cg2d: Sum(rhs),rhsMax =  -7.90341052748028E+01  1.55926635084932E+00
(PID.TID 0000.0001)  ploadbar=  1.01144502561177E+05
 cg2d: Sum(rhs),rhsMax =  -7.94950646054532E+01  1.55073463950292E+00
(PID.TID 0000.0001)  ploadbar=  1.01145580368498E+05
 cg2d: Sum(rhs),rhsMax =  -7.99215005518015E+01  1.54298713169975E+00
(PID.TID 0000.0001)  ploadbar=  1.01146658175818E+05
 cg2d: Sum(rhs),rhsMax =  -8.03071112532926E+01  1.53611787942933E+00
(PID.TID 0000.0001)  ploadbar=  1.01147735983138E+05
 cg2d: Sum(rhs),rhsMax =  -8.06479441279346E+01  1.53017931370240E+00
(PID.TID 0000.0001)  ploadbar=  1.01148813790459E+05
 cg2d: Sum(rhs),rhsMax =  -8.09556286706094E+01  1.52487851991453E+00
(PID.TID 0000.0001)  ploadbar=  1.01149189070246E+05
 cg2d: Sum(rhs),rhsMax =  -8.12424265917075E+01  1.51997005042170E+00
(PID.TID 0000.0001)  ploadbar=  1.01149564350034E+05
 cg2d: Sum(rhs),rhsMax =  -8.15070402287912E+01  1.51546872826898E+00
(PID.TID 0000.0001)  ploadbar=  1.01149939629821E+05
 cg2d: Sum(rhs),rhsMax =  -8.17549184747461E+01  1.51126403210623E+00
(PID.TID 0000.0001)  ploadbar=  1.01150314909609E+05
 cg2d: Sum(rhs),rhsMax =  -8.19911410716208E+01  1.50725841698151E+00
(PID.TID 0000.0001)  ploadbar=  1.01150690189396E+05
 cg2d: Sum(rhs),rhsMax =  -8.22189176708205E+01  1.50338383865794E+00
(PID.TID 0000.0001)  ploadbar=  1.01151065469184E+05
 cg2d: Sum(rhs),rhsMax =  -8.24433332444926E+01  1.49962236885638E+00
(PID.TID 0000.0001)  ploadbar=  1.01152826998541E+05
 cg2d: Sum(rhs),rhsMax =  -8.26879150372348E+01  1.49554601012306E+00
(PID.TID 0000.0001)  ploadbar=  1.01154588527898E+05
 cg2d: Sum(rhs),rhsMax =  -8.29430032880099E+01  1.49133430583703E+00
(PID.TID 0000.0001)  ploadbar=  1.01156350057256E+05
 cg2d: Sum(rhs),rhsMax =  -8.32047926764309E+01  1.48705643648317E+00
(PID.TID 0000.0001)  ploadbar=  1.01158111586613E+05
 cg2d: Sum(rhs),rhsMax =  -8.34714669264403E+01  1.48274265612174E+00
(PID.TID 0000.0001)  ploadbar=  1.01159873115970E+05
 cg2d: Sum(rhs),rhsMax =  -8.37388353988343E+01  1.47846532784552E+00
(PID.TID 0000.0001)  ploadbar=  1.01161634645328E+05
 cg2d: Sum(rhs),rhsMax =  -8.39332482939260E+01  1.47552663207128E+00
(PID.TID 0000.0001)  ploadbar=  1.01161311865719E+05
 cg2d: Sum(rhs),rhsMax =  -8.41213369054539E+01  1.47274165861066E+00
(PID.TID 0000.0001)  ploadbar=  1.01160989086110E+05
 cg2d: Sum(rhs),rhsMax =  -8.43086233803949E+01  1.47001250783067E+00
(PID.TID 0000.0001)  ploadbar=  1.01160666306501E+05
 cg2d: Sum(rhs),rhsMax =  -8.44962982630096E+01  1.46731665267456E+00
(PID.TID 0000.0001)  ploadbar=  1.01160343526892E+05
 cg2d: Sum(rhs),rhsMax =  -8.46832842355838E+01  1.46466876974889E+00
(PID.TID 0000.0001)  ploadbar=  1.01160020747282E+05
 cg2d: Sum(rhs),rhsMax =  -8.48711747546340E+01  1.46203621758852E+00
(PID.TID 0000.0001)  ploadbar=  1.01159697967673E+05
 cg2d: Sum(rhs),rhsMax =  -8.50120409933498E+01  1.46024487547836E+00
(PID.TID 0000.0001)  ploadbar=  1.01159432137758E+05
 cg2d: Sum(rhs),rhsMax =  -8.51399811236553E+01  1.45870441049817E+00
(PID.TID 0000.0001)  ploadbar=  1.01159166307842E+05
 cg2d: Sum(rhs),rhsMax =  -8.52786377805401E+01  1.45700738896159E+00
(PID.TID 0000.0001)  ploadbar=  1.01158900477926E+05
 cg2d: Sum(rhs),rhsMax =  -8.54263408141019E+01  1.45518161996173E+00
(PID.TID 0000.0001)  ploadbar=  1.01158634648011E+05
 cg2d: Sum(rhs),rhsMax =  -8.55764811476629E+01  1.45333906901845E+00
(PID.TID 0000.0001)  ploadbar=  1.01158368818095E+05
 cg2d: Sum(rhs),rhsMax =  -8.57295179187826E+01  1.45147122565603E+00
(PID.TID 0000.0001)  ploadbar=  1.01158102988179E+05
 cg2d: Sum(rhs),rhsMax =  -8.58988273850964E+01  1.44930853707801E+00
(PID.TID 0000.0001)  ploadbar=  1.01158055346025E+05
 cg2d: Sum(rhs),rhsMax =  -8.60582166537598E+01  1.44729207754992E+00
(PID.TID 0000.0001)  ploadbar=  1.01158007703871E+05
 cg2d: Sum(rhs),rhsMax =  -8.62185963255824E+01  1.44523645762637E+00
(PID.TID 0000.0001)  ploadbar=  1.01157960061717E+05
 cg2d: Sum(rhs),rhsMax =  -8.63944984586706E+01  1.44289846030228E+00
(PID.TID 0000.0001)  ploadbar=  1.01157912419563E+05
 cg2d: Sum(rhs),rhsMax =  -8.65859809954067E+01  1.44027863551437E+00
(PID.TID 0000.0001)  ploadbar=  1.01157864777409E+05
 cg2d: Sum(rhs),rhsMax =  -8.67960227983355E+01  1.43732854974588E+00
(PID.TID 0000.0001)  ploadbar=  1.01157817135255E+05
 cg2d: Sum(rhs),rhsMax =  -8.70819796393463E+01  1.43317884736151E+00
(PID.TID 0000.0001)  ploadbar=  1.01157637928724E+05
 cg2d: Sum(rhs),rhsMax =  -8.73864867318871E+01  1.42878792195229E+00
(PID.TID 0000.0001)  ploadbar=  1.01157458722193E+05
 cg2d: Sum(rhs),rhsMax =  -8.76907687269491E+01  1.42446644370197E+00
(PID.TID 0000.0001)  ploadbar=  1.01157279515662E+05
 cg2d: Sum(rhs),rhsMax =  -8.80009085446212E+01  1.42011634819795E+00
(PID.TID 0000.0001)  ploadbar=  1.01157100309131E+05
 cg2d: Sum(rhs),rhsMax =  -8.83164669055294E+01  1.41574633387592E+00
(PID.TID 0000.0001)  ploadbar=  1.01156921102600E+05
 cg2d: Sum(rhs),rhsMax =  -8.80370022980307E+01  1.42098203534513E+00
(PID.TID 0000.0001)  ploadbar=  1.01156741896069E+05
 cg2d: Sum(rhs),rhsMax =  -8.75872617284365E+01  1.42902423843294E+00
(PID.TID 0000.0001)  ploadbar=  1.01155992284353E+05
 cg2d: Sum(rhs),rhsMax =  -8.71704481760443E+01  1.43660931544293E+00
(PID.TID 0000.0001)  ploadbar=  1.01155242672637E+05
 cg2d: Sum(rhs),rhsMax =  -8.67826274521637E+01  1.44379008432929E+00
(PID.TID 0000.0001)  ploadbar=  1.01154493060922E+05
 cg2d: Sum(rhs),rhsMax =  -8.64304290118974E+01  1.45043984457563E+00
(PID.TID 0000.0001)  ploadbar=  1.01153743449206E+05
 cg2d: Sum(rhs),rhsMax =  -8.61154054871822E+01  1.45651704092271E+00
(PID.TID 0000.0001)  ploadbar=  1.01152993837490E+05
 cg2d: Sum(rhs),rhsMax =  -8.58336343342214E+01  1.46207370215600E+00
(PID.TID 0000.0001)  ploadbar=  1.01152244225775E+05
 cg2d: Sum(rhs),rhsMax =  -8.55929567769759E+01  1.46695417761417E+00
(PID.TID 0000.0001)  ploadbar=  1.01152114683393E+05
 cg2d: Sum(rhs),rhsMax =  -8.54058451024875E+01  1.47093013657451E+00
(PID.TID 0000.0001)  ploadbar=  1.01151985141011E+05
 cg2d: Sum(rhs),rhsMax =  -8.52468025861450E+01  1.47442767807321E+00
(PID.TID 0000.0001)  ploadbar=  1.01151855598629E+05
 cg2d: Sum(rhs),rhsMax =  -8.51960857392421E+01  1.47605026273947E+00
(PID.TID 0000.0001)  ploadbar=  1.01151726056247E+05
 cg2d: Sum(rhs),rhsMax =  -8.51896434714337E+01  1.47689685267543E+00
(PID.TID 0000.0001)  ploadbar=  1.01151596513866E+05
 cg2d: Sum(rhs),rhsMax =  -8.52305317278566E+01  1.47691462174134E+00
(PID.TID 0000.0001)  ploadbar=  1.01151466971484E+05
 cg2d: Sum(rhs),rhsMax =  -8.52985469717293E+01  1.47641111919005E+00
(PID.TID 0000.0001)  ploadbar=  1.01150989720174E+05
 cg2d: Sum(rhs),rhsMax =  -8.53572305454228E+01  1.47601739602611E+00
(PID.TID 0000.0001)  ploadbar=  1.01150512468864E+05
 cg2d: Sum(rhs),rhsMax =  -8.54056629166883E+01  1.47574926406899E+00
(PID.TID 0000.0001)  ploadbar=  1.01150035217555E+05
 cg2d: Sum(rhs),rhsMax =  -8.54415691604630E+01  1.47564674299713E+00
(PID.TID 0000.0001)  ploadbar=  1.01149557966245E+05
 cg2d: Sum(rhs),rhsMax =  -8.54782389594005E+01  1.47548101493539E+00
(PID.TID 0000.0001)  ploadbar=  1.01149080714935E+05
 cg2d: Sum(rhs),rhsMax =  -8.55407150465727E+01  1.47482074310551E+00
(PID.TID 0000.0001)  ploadbar=  1.01148603463625E+05
 cg2d: Sum(rhs),rhsMax =  -8.56817814391604E+01  1.47284084059799E+00
(PID.TID 0000.0001)  ploadbar=  1.01148160941748E+05
 cg2d: Sum(rhs),rhsMax =  -8.58534947070363E+01  1.47037097947419E+00
(PID.TID 0000.0001)  ploadbar=  1.01147718419871E+05
 cg2d: Sum(rhs),rhsMax =  -8.60745124764281E+01  1.46709929939387E+00
(PID.TID 0000.0001)  ploadbar=  1.01147275897994E+05
 cg2d: Sum(rhs),rhsMax =  -8.63313265623635E+01  1.46326714261465E+00
(PID.TID 0000.0001)  ploadbar=  1.01146833376117E+05
 cg2d: Sum(rhs),rhsMax =  -8.65943050278649E+01  1.45938371292861E+00
(PID.TID 0000.0001)  ploadbar=  1.01146390854240E+05
 cg2d: Sum(rhs),rhsMax =  -8.68325024260792E+01  1.45597008880032E+00
(PID.TID 0000.0001)  ploadbar=  1.01145948332364E+05
 cg2d: Sum(rhs),rhsMax =  -8.71336616977493E+01  1.45154479662954E+00
(PID.TID 0000.0001)  ploadbar=  1.01147004052332E+05
 cg2d: Sum(rhs),rhsMax =  -8.74611225681802E+01  1.44673326643963E+00
(PID.TID 0000.0001)  ploadbar=  1.01148059772301E+05
 cg2d: Sum(rhs),rhsMax =  -8.78190775859824E+01  1.44147528026429E+00
(PID.TID 0000.0001)  ploadbar=  1.01149115492269E+05
 cg2d: Sum(rhs),rhsMax =  -8.81796002664411E+01  1.43623545017584E+00
(PID.TID 0000.0001)  ploadbar=  1.01150171212238E+05
 cg2d: Sum(rhs),rhsMax =  -8.85368567186123E+01  1.43110782869411E+00
(PID.TID 0000.0001)  ploadbar=  1.01151226932207E+05
 cg2d: Sum(rhs),rhsMax =  -8.88898638040251E+01  1.42610727333947E+00
(PID.TID 0000.0001)  ploadbar=  1.01152282652175E+05
 cg2d: Sum(rhs),rhsMax =  -8.91456796022655E+01  1.42268981400659E+00
(PID.TID 0000.0001)  ploadbar=  1.01152355378476E+05
 cg2d: Sum(rhs),rhsMax =  -8.93516772155354E+01  1.42007702873354E+00
(PID.TID 0000.0001)  ploadbar=  1.01152428104776E+05
 cg2d: Sum(rhs),rhsMax =  -8.94968703341972E+01  1.41843324683315E+00
(PID.TID 0000.0001)  ploadbar=  1.01152500831077E+05
 cg2d: Sum(rhs),rhsMax =  -8.96276365190683E+01  1.41701553358949E+00
(PID.TID 0000.0001)  ploadbar=  1.01152573557377E+05
 cg2d: Sum(rhs),rhsMax =  -8.97869204374954E+01  1.41514441028300E+00
(PID.TID 0000.0001)  ploadbar=  1.01152646283678E+05
 cg2d: Sum(rhs),rhsMax =  -9.00062709940838E+01  1.41232770916539E+00
(PID.TID 0000.0001)  ploadbar=  1.01152719009978E+05
 cg2d: Sum(rhs),rhsMax =  -9.02463786659635E+01  1.40917700560520E+00
(PID.TID 0000.0001)  ploadbar=  1.01152213060267E+05
 cg2d: Sum(rhs),rhsMax =  -9.05301705408675E+01  1.40534070185229E+00
(PID.TID 0000.0001)  ploadbar=  1.01151707110556E+05
 cg2d: Sum(rhs),rhsMax =  -9.08365156062465E+01  1.40115481575151E+00
(PID.TID 0000.0001)  ploadbar=  1.01151201160844E+05
 cg2d: Sum(rhs),rhsMax =  -9.11521459764034E+01  1.39682733618215E+00
(PID.TID 0000.0001)  ploadbar=  1.01150695211133E+05
 cg2d: Sum(rhs),rhsMax =  -9.14585203975761E+01  1.39264374490021E+00
(PID.TID 0000.0001)  ploadbar=  1.01150189261421E+05
 cg2d: Sum(rhs),rhsMax =  -9.17481441256977E+01  1.38871470013262E+00
(PID.TID 0000.0001)  ploadbar=  1.01149683311710E+05
 cg2d: Sum(rhs),rhsMax =  -9.20269748990553E+01  1.38497819757109E+00
(PID.TID 0000.0001)  ploadbar=  1.01149428290261E+05
 cg2d: Sum(rhs),rhsMax =  -9.22881578705802E+01  1.38153255431166E+00
(PID.TID 0000.0001)  ploadbar=  1.01149173268811E+05
 cg2d: Sum(rhs),rhsMax =  -9.25497065929854E+01  1.37810420896014E+00
(PID.TID 0000.0001)  ploadbar=  1.01148918247362E+05
 cg2d: Sum(rhs),rhsMax =  -9.28052863588024E+01  1.37478578703274E+00
(PID.TID 0000.0001)  ploadbar=  1.01148663225913E+05
 cg2d: Sum(rhs),rhsMax =  -9.30606025747391E+01  1.37148808559354E+00
(PID.TID 0000.0001)  ploadbar=  1.01148408204464E+05
 cg2d: Sum(rhs),rhsMax =  -9.33192192342012E+01  1.36815914770597E+00
(PID.TID 0000.0001)  ploadbar=  1.01148153183014E+05
 cg2d: Sum(rhs),rhsMax =  -9.36015118326463E+01  1.36451139432777E+00
(PID.TID 0000.0001)  ploadbar=  1.01147683072065E+05
 cg2d: Sum(rhs),rhsMax =  -9.38630758293503E+01  1.36119514753359E+00
(PID.TID 0000.0001)  ploadbar=  1.01147212961115E+05
 cg2d: Sum(rhs),rhsMax =  -9.41115635059892E+01  1.35809544946220E+00
(PID.TID 0000.0001)  ploadbar=  1.01146742850166E+05
 cg2d: Sum(rhs),rhsMax =  -9.40591316726094E+01  1.35935609544585E+00
(PID.TID 0000.0001)  ploadbar=  1.01146272739216E+05
 cg2d: Sum(rhs),rhsMax =  -9.39007609539426E+01  1.36215887109373E+00
(PID.TID 0000.0001)  ploadbar=  1.01145802628267E+05
 cg2d: Sum(rhs),rhsMax =  -9.37532709109976E+01  1.36481724743612E+00
(PID.TID 0000.0001)  ploadbar=  1.01145332517317E+05
 cg2d: Sum(rhs),rhsMax =  -9.36020641303490E+01  1.36753490241583E+00
(PID.TID 0000.0001)  ploadbar=  1.01145040983568E+05
 cg2d: Sum(rhs),rhsMax =  -9.34315674110024E+01  1.37054062148351E+00
(PID.TID 0000.0001)  ploadbar=  1.01144749449819E+05
 cg2d: Sum(rhs),rhsMax =  -9.32408835970765E+01  1.37385013654053E+00
(PID.TID 0000.0001)  ploadbar=  1.01144457916069E+05
 cg2d: Sum(rhs),rhsMax =  -9.30354027628565E+01  1.37738769122058E+00
(PID.TID 0000.0001)  ploadbar=  1.01144166382320E+05
 cg2d: Sum(rhs),rhsMax =  -9.28253416920561E+01  1.38100225883817E+00
(PID.TID 0000.0001)  ploadbar=  1.01143874848571E+05
 cg2d: Sum(rhs),rhsMax =  -9.26211745955300E+01  1.38453812750243E+00
(PID.TID 0000.0001)  ploadbar=  1.01143583314822E+05
 cg2d: Sum(rhs),rhsMax =  -9.24520987219433E+01  1.38753957480280E+00
(PID.TID 0000.0001)  ploadbar=  1.01143510338073E+05
 cg2d: Sum(rhs),rhsMax =  -9.23067030041435E+01  1.39017029040448E+00
(PID.TID 0000.0001)  ploadbar=  1.01143437361324E+05
 cg2d: Sum(rhs),rhsMax =  -9.21880493956073E+01  1.39238012438244E+00
(PID.TID 0000.0001)  ploadbar=  1.01143364384575E+05
 cg2d: Sum(rhs),rhsMax =  -9.20934636837500E+01  1.39420420186413E+00
(PID.TID 0000.0001)  ploadbar=  1.01143291407827E+05
 cg2d: Sum(rhs),rhsMax =  -9.20166749485351E+01  1.39573311662348E+00
(PID.TID 0000.0001)  ploadbar=  1.01143218431078E+05
 cg2d: Sum(rhs),rhsMax =  -9.19501652247959E+01  1.39708018504839E+00
(PID.TID 0000.0001)  ploadbar=  1.01143145454329E+05
 cg2d: Sum(rhs),rhsMax =  -9.18725562443927E+01  1.39863712021776E+00
(PID.TID 0000.0001)  ploadbar=  1.01142400999200E+05
 cg2d: Sum(rhs),rhsMax =  -9.17776954123111E+01  1.40049625763349E+00
(PID.TID 0000.0001)  ploadbar=  1.01141656544072E+05
 cg2d: Sum(rhs),rhsMax =  -9.16580161969903E+01  1.40277505769826E+00
(PID.TID 0000.0001)  ploadbar=  1.01140912088943E+05
 cg2d: Sum(rhs),rhsMax =  -9.15141725354002E+01  1.40546801997970E+00
(PID.TID 0000.0001)  ploadbar=  1.01140167633814E+05
 cg2d: Sum(rhs),rhsMax =  -9.13537018992011E+01  1.40846099354396E+00
(PID.TID 0000.0001)  ploadbar=  1.01139423178685E+05
 cg2d: Sum(rhs),rhsMax =  -9.12155507943051E+01  1.41115295341150E+00
(PID.TID 0000.0001)  ploadbar=  1.01138678723556E+05
 cg2d: Sum(rhs),rhsMax =  -9.11095423670704E+01  1.41335698260121E+00
(PID.TID 0000.0001)  ploadbar=  1.01138167990953E+05
 cg2d: Sum(rhs),rhsMax =  -9.10385748674030E+01  1.41502503077708E+00
(PID.TID 0000.0001)  ploadbar=  1.01137657258349E+05
 cg2d: Sum(rhs),rhsMax =  -9.09844780080159E+01  1.41643497408900E+00
(PID.TID 0000.0001)  ploadbar=  1.01137146525746E+05
 cg2d: Sum(rhs),rhsMax =  -9.09339855922124E+01  1.41779372339611E+00
(PID.TID 0000.0001)  ploadbar=  1.01136635793143E+05
 cg2d: Sum(rhs),rhsMax =  -9.08795109275534E+01  1.41921723801321E+00
(PID.TID 0000.0001)  ploadbar=  1.01136125060539E+05
 cg2d: Sum(rhs),rhsMax =  -9.08228497715230E+01  1.42067511797257E+00
(PID.TID 0000.0001)  ploadbar=  1.01135614327936E+05
 cg2d: Sum(rhs),rhsMax =  -9.07631172275449E+01  1.42218140091876E+00
(PID.TID 0000.0001)  ploadbar=  1.01136480980992E+05
 cg2d: Sum(rhs),rhsMax =  -9.13042008880614E+01  1.41431840808108E+00
(PID.TID 0000.0001)  ploadbar=  1.01137347634047E+05
 cg2d: Sum(rhs),rhsMax =  -9.21129648686250E+01  1.40245708799846E+00
(PID.TID 0000.0001)  ploadbar=  1.01138214287103E+05
 cg2d: Sum(rhs),rhsMax =  -9.29268348726727E+01  1.39072246048452E+00
(PID.TID 0000.0001)  ploadbar=  1.01139080940159E+05
 cg2d: Sum(rhs),rhsMax =  -9.37594939732268E+01  1.37890928006481E+00
(PID.TID 0000.0001)  ploadbar=  1.01139947593215E+05
 cg2d: Sum(rhs),rhsMax =  -9.46255845065412E+01  1.36681415507803E+00
(PID.TID 0000.0001)  ploadbar=  1.01140814246271E+05
 cg2d: Sum(rhs),rhsMax =  -9.55277470231788E+01  1.35440377975210E+00
(PID.TID 0000.0001)  ploadbar=  1.01141139651548E+05
 cg2d: Sum(rhs),rhsMax =  -9.64593874805828E+01  1.34179316125901E+00
(PID.TID 0000.0001)  ploadbar=  1.01141465056826E+05
 cg2d: Sum(rhs),rhsMax =  -9.74326968718253E+01  1.32883314688724E+00
(PID.TID 0000.0001)  ploadbar=  1.01141790462104E+05
 cg2d: Sum(rhs),rhsMax =  -9.84544497001238E+01  1.31546117559714E+00
(PID.TID 0000.0001)  ploadbar=  1.01142115867381E+05
 cg2d: Sum(rhs),rhsMax =  -9.95127461899682E+01  1.30186408013394E+00
(PID.TID 0000.0001)  ploadbar=  1.01142441272659E+05
 cg2d: Sum(rhs),rhsMax =  -1.00624706181035E+02  1.28784503899306E+00
(PID.TID 0000.0001)  ploadbar=  1.01142766677937E+05
 cg2d: Sum(rhs),rhsMax =  -1.01752908409979E+02  1.27393204550636E+00
(PID.TID 0000.0001)  ploadbar=  1.01142668819304E+05
 cg2d: Sum(rhs),rhsMax =  -1.01995287495779E+02  1.27127205819783E+00
(PID.TID 0000.0001)  ploadbar=  1.01142570960671E+05
 cg2d: Sum(rhs),rhsMax =  -1.02193792537027E+02  1.26917040947539E+00
(PID.TID 0000.0001)  ploadbar=  1.01142473102038E+05
 cg2d: Sum(rhs),rhsMax =  -1.02397171949963E+02  1.26701973178243E+00
(PID.TID 0000.0001)  ploadbar=  1.01142375243405E+05
 cg2d: Sum(rhs),rhsMax =  -1.02607475535326E+02  1.26479575441035E+00
(PID.TID 0000.0001)  ploadbar=  1.01142277384773E+05
 cg2d: Sum(rhs),rhsMax =  -1.02825817227740E+02  1.26248535389580E+00
(PID.TID 0000.0001)  ploadbar=  1.01142179526140E+05
 cg2d: Sum(rhs),rhsMax =  -1.03052138123322E+02  1.26008543065857E+00
(PID.TID 0000.0001)  ploadbar=  1.01143046417534E+05
 cg2d: Sum(rhs),rhsMax =  -1.03260360530063E+02  1.25791479689142E+00
(PID.TID 0000.0001)  ploadbar=  1.01143913308928E+05
 cg2d: Sum(rhs),rhsMax =  -1.03451756313447E+02  1.25595721023603E+00
(PID.TID 0000.0001)  ploadbar=  1.01144780200322E+05
 cg2d: Sum(rhs),rhsMax =  -1.03628998781803E+02  1.25418035061077E+00
(PID.TID 0000.0001)  ploadbar=  1.01145647091716E+05
 cg2d: Sum(rhs),rhsMax =  -1.03799006637651E+02  1.25249813016994E+00
(PID.TID 0000.0001)  ploadbar=  1.01146513983111E+05
 cg2d: Sum(rhs),rhsMax =  -1.03966467629986E+02  1.25085038619435E+00
(PID.TID 0000.0001)  ploadbar=  1.01147380874505E+05
 cg2d: Sum(rhs),rhsMax =  -1.04185645400032E+02  1.24859231601721E+00
(PID.TID 0000.0001)  ploadbar=  1.01147255817162E+05
 cg2d: Sum(rhs),rhsMax =  -1.04444977701932E+02  1.24586703046760E+00
(PID.TID 0000.0001)  ploadbar=  1.01147130759819E+05
 cg2d: Sum(rhs),rhsMax =  -1.04725540366193E+02  1.24290408525723E+00
(PID.TID 0000.0001)  ploadbar=  1.01147005702476E+05
 cg2d: Sum(rhs),rhsMax =  -1.04284635891535E+02  1.24853583525123E+00
(PID.TID 0000.0001)  ploadbar=  1.01146880645133E+05
 cg2d: Sum(rhs),rhsMax =  -1.03661806808466E+02  1.25641753888255E+00
(PID.TID 0000.0001)  ploadbar=  1.01146755587790E+05
 cg2d: Sum(rhs),rhsMax =  -1.02981262049216E+02  1.26510106306236E+00
(PID.TID 0000.0001)  ploadbar=  1.01146630530447E+05
 cg2d: Sum(rhs),rhsMax =  -1.02273552222977E+02  1.27422307607713E+00
(PID.TID 0000.0001)  ploadbar=  1.01147028103954E+05
 cg2d: Sum(rhs),rhsMax =  -1.01600286426730E+02  1.28302225733196E+00
(PID.TID 0000.0001)  ploadbar=  1.01147425677461E+05
 cg2d: Sum(rhs),rhsMax =  -1.00972609145597E+02  1.29133860289091E+00
(PID.TID 0000.0001)  ploadbar=  1.01147823250968E+05
 cg2d: Sum(rhs),rhsMax =  -1.00385710154038E+02  1.29921361591646E+00
(PID.TID 0000.0001)  ploadbar=  1.01148220824475E+05
 cg2d: Sum(rhs),rhsMax =  -9.97728395779892E+01  1.30750324746004E+00
(PID.TID 0000.0001)  ploadbar=  1.01148618397982E+05
 cg2d: Sum(rhs),rhsMax =  -9.91771292501420E+01  1.31564875707980E+00
(PID.TID 0000.0001)  ploadbar=  1.01149015971490E+05
 cg2d: Sum(rhs),rhsMax =  -9.85556748824817E+01  1.32424458184447E+00
(PID.TID 0000.0001)  ploadbar=  1.01149741075324E+05
 cg2d: Sum(rhs),rhsMax =  -9.79247114594386E+01  1.33308593440423E+00
(PID.TID 0000.0001)  ploadbar=  1.01150466179159E+05
 cg2d: Sum(rhs),rhsMax =  -9.72767822671746E+01  1.34228367907415E+00
(PID.TID 0000.0001)  ploadbar=  1.01151191282994E+05
 cg2d: Sum(rhs),rhsMax =  -9.66180657437163E+01  1.35176096894466E+00
(PID.TID 0000.0001)  ploadbar=  1.01151916386829E+05
 cg2d: Sum(rhs),rhsMax =  -9.59622591368614E+01  1.36133166587951E+00
(PID.TID 0000.0001)  ploadbar=  1.01152641490664E+05
 cg2d: Sum(rhs),rhsMax =  -9.53249361026469E+01  1.37077179894162E+00
(PID.TID 0000.0001)  ploadbar=  1.01153366594499E+05
 cg2d: Sum(rhs),rhsMax =  -9.47734612099314E+01  1.37910299910567E+00
(PID.TID 0000.0001)  ploadbar=  1.01154285010299E+05
 cg2d: Sum(rhs),rhsMax =  -9.43103162592680E+01  1.38624734923319E+00
(PID.TID 0000.0001)  ploadbar=  1.01155203426100E+05
 cg2d: Sum(rhs),rhsMax =  -9.39285960546244E+01  1.39226681336477E+00
(PID.TID 0000.0001)  ploadbar=  1.01156121841900E+05
 cg2d: Sum(rhs),rhsMax =  -9.36098318342518E+01  1.39740504649308E+00
(PID.TID 0000.0001)  ploadbar=  1.01157040257701E+05
 cg2d: Sum(rhs),rhsMax =  -9.33400445573552E+01  1.40184955512556E+00
(PID.TID 0000.0001)  ploadbar=  1.01157958673501E+05
 cg2d: Sum(rhs),rhsMax =  -9.31090957757166E+01  1.40573523254387E+00
(PID.TID 0000.0001)  ploadbar=  1.01158877089301E+05
 cg2d: Sum(rhs),rhsMax =  -9.28131665403274E+01  1.41062113881229E+00
(PID.TID 0000.0001)  ploadbar=  1.01159391863457E+05
 cg2d: Sum(rhs),rhsMax =  -9.25126215267729E+01  1.41560123509296E+00
(PID.TID 0000.0001)  ploadbar=  1.01159906637612E+05
 cg2d: Sum(rhs),rhsMax =  -9.22398017321470E+01  1.42017943980219E+00
(PID.TID 0000.0001)  ploadbar=  1.01160421411768E+05
 cg2d: Sum(rhs),rhsMax =  -9.20228205387304E+01  1.42390981504605E+00
(PID.TID 0000.0001)  ploadbar=  1.01160936185924E+05
 cg2d: Sum(rhs),rhsMax =  -9.18897985555983E+01  1.42633944939829E+00
(PID.TID 0000.0001)  ploadbar=  1.01161450960079E+05
 cg2d: Sum(rhs),rhsMax =  -9.18662705402856E+01  1.42705557695856E+00
(PID.TID 0000.0001)  ploadbar=  1.01161965734235E+05
 cg2d: Sum(rhs),rhsMax =  -9.21078892471671E+01  1.42364714160029E+00
(PID.TID 0000.0001)  ploadbar=  1.01161829403668E+05
 cg2d: Sum(rhs),rhsMax =  -9.25372063998882E+01  1.41735984082762E+00
(PID.TID 0000.0001)  ploadbar=  1.01161693073101E+05
 cg2d: Sum(rhs),rhsMax =  -9.31505043833444E+01  1.40832589256418E+00
(PID.TID 0000.0001)  ploadbar=  1.01161556742534E+05
 cg2d: Sum(rhs),rhsMax =  -9.39291771151966E+01  1.39692729485082E+00
(PID.TID 0000.0001)  ploadbar=  1.01161420411967E+05
 cg2d: Sum(rhs),rhsMax =  -9.48443072150507E+01  1.38370291597436E+00
(PID.TID 0000.0001)  ploadbar=  1.01161284081400E+05
 cg2d: Sum(rhs),rhsMax =  -9.58387967890322E+01  1.36957343957104E+00
(PID.TID 0000.0001)  ploadbar=  1.01161147750833E+05
 cg2d: Sum(rhs),rhsMax =  -9.65997150637391E+01  1.35905759743237E+00
(PID.TID 0000.0001)  ploadbar=  1.01160942490097E+05
 cg2d: Sum(rhs),rhsMax =  -9.71132293167736E+01  1.35218462089161E+00
(PID.TID 0000.0001)  ploadbar=  1.01160737229361E+05
 cg2d: Sum(rhs),rhsMax =  -9.74012717466209E+01  1.34853816503943E+00
(PID.TID 0000.0001)  ploadbar=  1.01160531968625E+05
 cg2d: Sum(rhs),rhsMax =  -9.70771521136609E+01  1.35343150630097E+00
(PID.TID 0000.0001)  ploadbar=  1.01160326707889E+05
 cg2d: Sum(rhs),rhsMax =  -9.67349037225152E+01  1.35864761015845E+00
(PID.TID 0000.0001)  ploadbar=  1.01160121447153E+05
 cg2d: Sum(rhs),rhsMax =  -9.63804626958207E+01  1.36410708908665E+00
(PID.TID 0000.0001)  ploadbar=  1.01159916186417E+05
 cg2d: Sum(rhs),rhsMax =  -9.61028524638834E+01  1.36852320850145E+00
(PID.TID 0000.0001)  ploadbar=  1.01159992658922E+05
 cg2d: Sum(rhs),rhsMax =  -9.58289465581102E+01  1.37292591808192E+00
(PID.TID 0000.0001)  ploadbar=  1.01160069131427E+05
 cg2d: Sum(rhs),rhsMax =  -9.55228446485191E+01  1.37782928216421E+00
(PID.TID 0000.0001)  ploadbar=  1.01160145603932E+05
 cg2d: Sum(rhs),rhsMax =  -9.51837306663318E+01  1.38325455454858E+00
(PID.TID 0000.0001)  ploadbar=  1.01160222076437E+05
 cg2d: Sum(rhs),rhsMax =  -9.48160970716414E+01  1.38914896134965E+00
(PID.TID 0000.0001)  ploadbar=  1.01160298548942E+05
 cg2d: Sum(rhs),rhsMax =  -9.44159852356013E+01  1.39558081794236E+00
(PID.TID 0000.0001)  ploadbar=  1.01160375021447E+05
 cg2d: Sum(rhs),rhsMax =  -9.41405848457508E+01  1.40020786088540E+00
(PID.TID 0000.0001)  ploadbar=  1.01161637482390E+05
 cg2d: Sum(rhs),rhsMax =  -9.38640395141292E+01  1.40487741116890E+00
(PID.TID 0000.0001)  ploadbar=  1.01162899943333E+05
 cg2d: Sum(rhs),rhsMax =  -9.35570552338122E+01  1.41003138464564E+00
(PID.TID 0000.0001)  ploadbar=  1.01164162404276E+05
 cg2d: Sum(rhs),rhsMax =  -9.32278336645558E+01  1.41555288460106E+00
(PID.TID 0000.0001)  ploadbar=  1.01165424865219E+05
 cg2d: Sum(rhs),rhsMax =  -9.28610760363206E+01  1.42168206617318E+00
(PID.TID 0000.0001)  ploadbar=  1.01166687326162E+05
 cg2d: Sum(rhs),rhsMax =  -9.25352317258299E+01  1.42722331691331E+00
(PID.TID 0000.0001)  ploadbar=  1.01167949787105E+05
 cg2d: Sum(rhs),rhsMax =  -9.22809011971855E+01  1.43166396879211E+00
(PID.TID 0000.0001)  ploadbar=  1.01168406212032E+05
 cg2d: Sum(rhs),rhsMax =  -9.21343590244531E+01  1.43441890941943E+00
(PID.TID 0000.0001)  ploadbar=  1.01168862636959E+05
 cg2d: Sum(rhs),rhsMax =  -9.20956037505379E+01  1.43546998454877E+00
(PID.TID 0000.0001)  ploadbar=  1.01169319061885E+05
 cg2d: Sum(rhs),rhsMax =  -9.21374882033219E+01  1.43523192971540E+00
(PID.TID 0000.0001)  ploadbar=  1.01169775486812E+05
 cg2d: Sum(rhs),rhsMax =  -9.29304324914341E+01  1.42336262073674E+00
(PID.TID 0000.0001)  ploadbar=  1.01170231911739E+05
 cg2d: Sum(rhs),rhsMax =  -9.41229723957165E+01  1.40566554545560E+00
(PID.TID 0000.0001)  ploadbar=  1.01170688336665E+05
 cg2d: Sum(rhs),rhsMax =  -9.52916946649961E+01  1.38878452947382E+00
(PID.TID 0000.0001)  ploadbar=  1.01170970359040E+05
 cg2d: Sum(rhs),rhsMax =  -9.64317623971028E+01  1.37275030313532E+00
(PID.TID 0000.0001)  ploadbar=  1.01171252381415E+05
 cg2d: Sum(rhs),rhsMax =  -9.75058324552342E+01  1.35803814905926E+00
(PID.TID 0000.0001)  ploadbar=  1.01171534403790E+05
 cg2d: Sum(rhs),rhsMax =  -9.84965014000358E+01  1.34481079240654E+00
(PID.TID 0000.0001)  ploadbar=  1.01171816426164E+05
 cg2d: Sum(rhs),rhsMax =  -9.93987817385388E+01  1.33305717168329E+00
(PID.TID 0000.0001)  ploadbar=  1.01172098448539E+05
 cg2d: Sum(rhs),rhsMax =  -1.00212889045903E+02  1.32270192000769E+00
(PID.TID 0000.0001)  ploadbar=  1.01172380470914E+05
 cg2d: Sum(rhs),rhsMax =  -1.00929718868778E+02  1.31377834241822E+00
(PID.TID 0000.0001)  ploadbar=  1.01171287150819E+05
 cg2d: Sum(rhs),rhsMax =  -1.01612452924903E+02  1.30542033417822E+00
(PID.TID 0000.0001)  ploadbar=  1.01170193830724E+05
 cg2d: Sum(rhs),rhsMax =  -1.02252041323615E+02  1.29772155453707E+00
(PID.TID 0000.0001)  ploadbar=  1.01169100510629E+05
 cg2d: Sum(rhs),rhsMax =  -1.02827592735067E+02  1.29092214982135E+00
(PID.TID 0000.0001)  ploadbar=  1.01168007190534E+05
 cg2d: Sum(rhs),rhsMax =  -1.03336493159926E+02  1.28502834202595E+00
(PID.TID 0000.0001)  ploadbar=  1.01166913870440E+05
 cg2d: Sum(rhs),rhsMax =  -1.03775305446672E+02  1.28005740259869E+00
(PID.TID 0000.0001)  ploadbar=  1.01165820550345E+05
 cg2d: Sum(rhs),rhsMax =  -1.03715669726784E+02  1.28124581935397E+00
(PID.TID 0000.0001)  ploadbar=  1.01164894956261E+05
 cg2d: Sum(rhs),rhsMax =  -1.03485250231680E+02  1.28454014083993E+00
(PID.TID 0000.0001)  ploadbar=  1.01163969362176E+05
 cg2d: Sum(rhs),rhsMax =  -1.03231598117790E+02  1.28812746687975E+00
(PID.TID 0000.0001)  ploadbar=  1.01163043768092E+05
 cg2d: Sum(rhs),rhsMax =  -1.02962047055475E+02  1.29192072036937E+00
(PID.TID 0000.0001)  ploadbar=  1.01162118174008E+05
 cg2d: Sum(rhs),rhsMax =  -1.02662067715186E+02  1.29610657347771E+00
(PID.TID 0000.0001)  ploadbar=  1.01161192579924E+05
 cg2d: Sum(rhs),rhsMax =  -1.02393995189448E+02  1.29989964585000E+00
(PID.TID 0000.0001)  ploadbar=  1.01160266985840E+05
 cg2d: Sum(rhs),rhsMax =  -1.02243671563031E+02  1.30218344492560E+00
(PID.TID 0000.0001)  ploadbar=  1.01159805414882E+05
 cg2d: Sum(rhs),rhsMax =  -1.02196872323013E+02  1.30312402667441E+00
(PID.TID 0000.0001)  ploadbar=  1.01159343843923E+05
 cg2d: Sum(rhs),rhsMax =  -1.03554448565214E+02  1.28635134871202E+00
(PID.TID 0000.0001)  ploadbar=  1.01158882272965E+05
 cg2d: Sum(rhs),rhsMax =  -1.04965225502069E+02  1.26934132223117E+00
(PID.TID 0000.0001)  ploadbar=  1.01158420702007E+05
 cg2d: Sum(rhs),rhsMax =  -1.06388272312859E+02  1.25261056137348E+00
(PID.TID 0000.0001)  ploadbar=  1.01157959131048E+05
 cg2d: Sum(rhs),rhsMax =  -1.07804356321231E+02  1.23637363024409E+00
(PID.TID 0000.0001)  ploadbar=  1.01157497560090E+05
 cg2d: Sum(rhs),rhsMax =  -1.08496109688990E+02  1.22872341702723E+00
(PID.TID 0000.0001)  ploadbar=  1.01158653440307E+05
 cg2d: Sum(rhs),rhsMax =  -1.08848168396844E+02  1.22499839947167E+00
(PID.TID 0000.0001)  ploadbar=  1.01159809320524E+05
 cg2d: Sum(rhs),rhsMax =  -1.09195038477315E+02  1.22137332958273E+00
(PID.TID 0000.0001)  ploadbar=  1.01160965200741E+05
 cg2d: Sum(rhs),rhsMax =  -1.09537793251022E+02  1.21783484653359E+00
(PID.TID 0000.0001)  ploadbar=  1.01162121080958E+05
 cg2d: Sum(rhs),rhsMax =  -1.09867439844355E+02  1.21448102073881E+00
(PID.TID 0000.0001)  ploadbar=  1.01163276961175E+05
 cg2d: Sum(rhs),rhsMax =  -1.10103539890402E+02  1.21219526283222E+00
(PID.TID 0000.0001)  ploadbar=  1.01164432841392E+05
 cg2d: Sum(rhs),rhsMax =  -1.10406706159869E+02  1.20919756568167E+00
(PID.TID 0000.0001)  ploadbar=  1.01164688998058E+05
 cg2d: Sum(rhs),rhsMax =  -1.10619972619324E+02  1.20720956011056E+00
(PID.TID 0000.0001)  ploadbar=  1.01164945154723E+05
 cg2d: Sum(rhs),rhsMax =  -1.10825197662166E+02  1.20532988443679E+00
(PID.TID 0000.0001)  ploadbar=  1.01165201311388E+05
 cg2d: Sum(rhs),rhsMax =  -1.10634837173842E+02  1.20777304180983E+00
(PID.TID 0000.0001)  ploadbar=  1.01165457468054E+05
 cg2d: Sum(rhs),rhsMax =  -1.10296180953367E+02  1.21186553142860E+00
(PID.TID 0000.0001)  ploadbar=  1.01165713624719E+05
 cg2d: Sum(rhs),rhsMax =  -1.10985502198569E+02  1.20473443909286E+00
(PID.TID 0000.0001)  ploadbar=  1.01165969781384E+05
 cg2d: Sum(rhs),rhsMax =  -1.11624678260153E+02  1.19821579159876E+00
(PID.TID 0000.0001)  ploadbar=  1.01166204440021E+05
 cg2d: Sum(rhs),rhsMax =  -1.11780416289272E+02  1.19691001662773E+00
(PID.TID 0000.0001)  ploadbar=  1.01166439098658E+05
 cg2d: Sum(rhs),rhsMax =  -1.11931264554435E+02  1.19564547919350E+00
(PID.TID 0000.0001)  ploadbar=  1.01166673757295E+05
 cg2d: Sum(rhs),rhsMax =  -1.12081068443394E+02  1.19438114425783E+00
(PID.TID 0000.0001)  ploadbar=  1.01166908415932E+05
 cg2d: Sum(rhs),rhsMax =  -1.10921370792722E+02  1.20719060991594E+00
(PID.TID 0000.0001)  ploadbar=  1.01167143074569E+05
 cg2d: Sum(rhs),rhsMax =  -1.09654606498788E+02  1.22144644417861E+00
(PID.TID 0000.0001)  ploadbar=  1.01167377733206E+05
 cg2d: Sum(rhs),rhsMax =  -1.08336698701389E+02  1.23659199955314E+00
(PID.TID 0000.0001)  ploadbar=  1.01167566848220E+05
 cg2d: Sum(rhs),rhsMax =  -1.06990554430245E+02  1.25241324745451E+00
(PID.TID 0000.0001)  ploadbar=  1.01167755963235E+05
 cg2d: Sum(rhs),rhsMax =  -1.05618910167026E+02  1.26891534495401E+00
(PID.TID 0000.0001)  ploadbar=  1.01167945078249E+05
 cg2d: Sum(rhs),rhsMax =  -1.04249805271555E+02  1.28579031510255E+00
(PID.TID 0000.0001)  ploadbar=  1.01168134193263E+05
 cg2d: Sum(rhs),rhsMax =  -1.02926545149272E+02  1.30250429814304E+00
(PID.TID 0000.0001)  ploadbar=  1.01168323308278E+05
 cg2d: Sum(rhs),rhsMax =  -1.01759437195773E+02  1.31759846602380E+00
(PID.TID 0000.0001)  ploadbar=  1.01168512423292E+05
 cg2d: Sum(rhs),rhsMax =  -1.00868145787195E+02  1.32942129773269E+00
(PID.TID 0000.0001)  ploadbar=  1.01169562519473E+05
 cg2d: Sum(rhs),rhsMax =  -1.00395492437738E+02  1.33588260511281E+00
(PID.TID 0000.0001)  ploadbar=  1.01170612615655E+05
 cg2d: Sum(rhs),rhsMax =  -1.00339786868742E+02  1.33684764972430E+00
(PID.TID 0000.0001)  ploadbar=  1.01171662711836E+05
 cg2d: Sum(rhs),rhsMax =  -1.02205215584385E+02  1.31268509667256E+00
(PID.TID 0000.0001)  ploadbar=  1.01172712808017E+05
 cg2d: Sum(rhs),rhsMax =  -1.04493209258134E+02  1.28419325063039E+00
(PID.TID 0000.0001)  ploadbar=  1.01173762904199E+05
 cg2d: Sum(rhs),rhsMax =  -1.07265101816837E+02  1.25127050028917E+00
(PID.TID 0000.0001)  ploadbar=  1.01174813000380E+05
 cg2d: Sum(rhs),rhsMax =  -1.10794835878250E+02  1.21168535131146E+00
(PID.TID 0000.0001)  ploadbar=  1.01175247032545E+05
 cg2d: Sum(rhs),rhsMax =  -1.14780840264069E+02  1.16989637615099E+00
(PID.TID 0000.0001)  ploadbar=  1.01175681064710E+05
 cg2d: Sum(rhs),rhsMax =  -1.15670354005590E+02  1.16120920939861E+00
(PID.TID 0000.0001)  ploadbar=  1.01176115096875E+05
 cg2d: Sum(rhs),rhsMax =  -1.13164606458579E+02  1.18726025404972E+00
(PID.TID 0000.0001)  ploadbar=  1.01176549129041E+05
 cg2d: Sum(rhs),rhsMax =  -1.10940511702823E+02  1.21143040659252E+00
(PID.TID 0000.0001)  ploadbar=  1.01176983161206E+05
 cg2d: Sum(rhs),rhsMax =  -1.09064410955013E+02  1.23266699248597E+00
(PID.TID 0000.0001)  ploadbar=  1.01177417193371E+05
 cg2d: Sum(rhs),rhsMax =  -1.07643803002979E+02  1.24932799498139E+00
(PID.TID 0000.0001)  ploadbar=  1.01177460220631E+05
 cg2d: Sum(rhs),rhsMax =  -1.06438254685061E+02  1.26386548548681E+00
(PID.TID 0000.0001)  ploadbar=  1.01177503247891E+05
 cg2d: Sum(rhs),rhsMax =  -1.05360541196029E+02  1.27717607443631E+00
(PID.TID 0000.0001)  ploadbar=  1.01177546275151E+05
 cg2d: Sum(rhs),rhsMax =  -1.04335353496248E+02  1.29010398665162E+00
(PID.TID 0000.0001)  ploadbar=  1.01177589302411E+05
 cg2d: Sum(rhs),rhsMax =  -1.03376658641177E+02  1.30244406776457E+00
(PID.TID 0000.0001)  ploadbar=  1.01177632329671E+05
 cg2d: Sum(rhs),rhsMax =  -1.02538641102311E+02  1.31346230392327E+00
(PID.TID 0000.0001)  ploadbar=  1.01177675356931E+05
 cg2d: Sum(rhs),rhsMax =  -1.01843182344925E+02  1.32278613864297E+00
(PID.TID 0000.0001)  ploadbar=  1.01177461613671E+05
 cg2d: Sum(rhs),rhsMax =  -1.01278899990084E+02  1.33048850675231E+00
(PID.TID 0000.0001)  ploadbar=  1.01177247870411E+05
 cg2d: Sum(rhs),rhsMax =  -1.00881032931478E+02  1.33604645216414E+00
(PID.TID 0000.0001)  ploadbar=  1.01177034127151E+05
 cg2d: Sum(rhs),rhsMax =  -1.00693379203179E+02  1.33882454930863E+00
(PID.TID 0000.0001)  ploadbar=  1.01176820383891E+05
 cg2d: Sum(rhs),rhsMax =  -1.00753712386589E+02  1.33828906074527E+00
(PID.TID 0000.0001)  ploadbar=  1.01176606640631E+05
 cg2d: Sum(rhs),rhsMax =  -1.00963961225737E+02  1.33574404935171E+00
(PID.TID 0000.0001)  ploadbar=  1.01176392897371E+05
 cg2d: Sum(rhs),rhsMax =  -1.01318901542887E+02  1.33134151047578E+00
(PID.TID 0000.0001)  ploadbar=  1.01176269949370E+05
 cg2d: Sum(rhs),rhsMax =  -1.01797486180095E+02  1.32539208566727E+00
(PID.TID 0000.0001)  ploadbar=  1.01176147001370E+05
 cg2d: Sum(rhs),rhsMax =  -1.02391549779810E+02  1.31804562496180E+00
(PID.TID 0000.0001)  ploadbar=  1.01176024053369E+05
 cg2d: Sum(rhs),rhsMax =  -1.03080030002366E+02  1.30961830454099E+00
(PID.TID 0000.0001)  ploadbar=  1.01175901105368E+05
 cg2d: Sum(rhs),rhsMax =  -1.03840207791307E+02  1.30044043216738E+00
(PID.TID 0000.0001)  ploadbar=  1.01175778157368E+05
 cg2d: Sum(rhs),rhsMax =  -1.04659086994971E+02  1.29070491598941E+00
(PID.TID 0000.0001)  ploadbar=  1.01175655209367E+05
 cg2d: Sum(rhs),rhsMax =  -1.05511743011784E+02  1.28071845257976E+00
(PID.TID 0000.0001)  ploadbar=  1.01175218792331E+05
 cg2d: Sum(rhs),rhsMax =  -1.06409556905551E+02  1.27035997069409E+00
(PID.TID 0000.0001)  ploadbar=  1.01174782375295E+05
 cg2d: Sum(rhs),rhsMax =  -1.07345610581129E+02  1.25973338100094E+00
(PID.TID 0000.0001)  ploadbar=  1.01174345958258E+05
 cg2d: Sum(rhs),rhsMax =  -1.08331190466898E+02  1.24872710249043E+00
(PID.TID 0000.0001)  ploadbar=  1.01173909541222E+05
 cg2d: Sum(rhs),rhsMax =  -1.09371726932962E+02  1.23730535079390E+00
(PID.TID 0000.0001)  ploadbar=  1.01173473124186E+05
 cg2d: Sum(rhs),rhsMax =  -1.10474336149731E+02  1.22541699726041E+00
(PID.TID 0000.0001)  ploadbar=  1.01173036707150E+05
 cg2d: Sum(rhs),rhsMax =  -1.11573332795382E+02  1.21379891498294E+00
(PID.TID 0000.0001)  ploadbar=  1.01172434636312E+05
 cg2d: Sum(rhs),rhsMax =  -1.12685438427214E+02  1.20226348925757E+00
(PID.TID 0000.0001)  ploadbar=  1.01171832565474E+05
 cg2d: Sum(rhs),rhsMax =  -1.12265388256930E+02  1.20720359466267E+00
(PID.TID 0000.0001)  ploadbar=  1.01171230494635E+05
 cg2d: Sum(rhs),rhsMax =  -1.10037015674638E+02  1.23210022301720E+00
(PID.TID 0000.0001)  ploadbar=  1.01170628423797E+05
 cg2d: Sum(rhs),rhsMax =  -1.07649009619365E+02  1.25988977497489E+00
(PID.TID 0000.0001)  ploadbar=  1.01170026352959E+05
 cg2d: Sum(rhs),rhsMax =  -1.05103265197682E+02  1.29087184978589E+00
(PID.TID 0000.0001)  ploadbar=  1.01169424282120E+05
 cg2d: Sum(rhs),rhsMax =  -1.02882106221750E+02  1.31919084216655E+00
(PID.TID 0000.0001)  ploadbar=  1.01168482885296E+05
 cg2d: Sum(rhs),rhsMax =  -1.00864848830271E+02  1.34600704220649E+00
(PID.TID 0000.0001)  ploadbar=  1.01167541488472E+05
 cg2d: Sum(rhs),rhsMax =  -9.91015889550921E+01  1.37037174075939E+00
(PID.TID 0000.0001)  ploadbar=  1.01166600091648E+05
 cg2d: Sum(rhs),rhsMax =  -9.75869515114117E+01  1.39203882830444E+00
(PID.TID 0000.0001)  ploadbar=  1.01165658694824E+05
 cg2d: Sum(rhs),rhsMax =  -9.62845657794443E+01  1.41124638752131E+00
(PID.TID 0000.0001)  ploadbar=  1.01164717298000E+05
 cg2d: Sum(rhs),rhsMax =  -9.51673970518511E+01  1.42816843343595E+00
(PID.TID 0000.0001)  ploadbar=  1.01163775901176E+05
 cg2d: Sum(rhs),rhsMax =  -9.44276321283760E+01  1.43973123008091E+00
(PID.TID 0000.0001)  ploadbar=  1.01162673587232E+05
 cg2d: Sum(rhs),rhsMax =  -9.38370192558102E+01  1.44918662568811E+00
(PID.TID 0000.0001)  ploadbar=  1.01161571273288E+05
 cg2d: Sum(rhs),rhsMax =  -9.33668723078606E+01  1.45689678197734E+00
(PID.TID 0000.0001)  ploadbar=  1.01160468959344E+05
 cg2d: Sum(rhs),rhsMax =  -9.31085337463491E+01  1.46137078879049E+00
(PID.TID 0000.0001)  ploadbar=  1.01159366645400E+05
 cg2d: Sum(rhs),rhsMax =  -9.30893055083941E+01  1.46212155763808E+00
(PID.TID 0000.0001)  ploadbar=  1.01158264331455E+05
 cg2d: Sum(rhs),rhsMax =  -9.33406839876880E+01  1.45864824279937E+00
(PID.TID 0000.0001)  ploadbar=  1.01157162017511E+05
 cg2d: Sum(rhs),rhsMax =  -9.38676130205551E+01  1.45094325245778E+00
(PID.TID 0000.0001)  ploadbar=  1.01155369734777E+05
 cg2d: Sum(rhs),rhsMax =  -9.47791895987583E+01  1.43748492732217E+00
(PID.TID 0000.0001)  ploadbar=  1.01153577452043E+05
 cg2d: Sum(rhs),rhsMax =  -9.56532533172878E+01  1.42485845590343E+00
(PID.TID 0000.0001)  ploadbar=  1.01151785169309E+05
 cg2d: Sum(rhs),rhsMax =  -9.65198887601008E+01  1.41258668821748E+00
(PID.TID 0000.0001)  ploadbar=  1.01149992886575E+05
 cg2d: Sum(rhs),rhsMax =  -9.73183555533761E+01  1.40153134639474E+00
(PID.TID 0000.0001)  ploadbar=  1.01148200603841E+05
 cg2d: Sum(rhs),rhsMax =  -9.80113059178815E+01  1.39216814107818E+00
(PID.TID 0000.0001)  ploadbar=  1.01146408321107E+05
 cg2d: Sum(rhs),rhsMax =  -9.85481543487439E+01  1.38511609692072E+00
(PID.TID 0000.0001)  ploadbar=  1.01145380892520E+05
 cg2d: Sum(rhs),rhsMax =  -9.89410006121688E+01  1.38013631201349E+00
(PID.TID 0000.0001)  ploadbar=  1.01144353463933E+05
 cg2d: Sum(rhs),rhsMax =  -9.91605086596189E+01  1.37758789966745E+00
(PID.TID 0000.0001)  ploadbar=  1.01143326035346E+05
 cg2d: Sum(rhs),rhsMax =  -9.93721441993717E+01  1.37514768060188E+00
(PID.TID 0000.0001)  ploadbar=  1.01142298606760E+05
 cg2d: Sum(rhs),rhsMax =  -9.97342567201343E+01  1.37063320657761E+00
(PID.TID 0000.0001)  ploadbar=  1.01141271178173E+05
 cg2d: Sum(rhs),rhsMax =  -1.00283440791741E+02  1.36359047130714E+00
(PID.TID 0000.0001)  ploadbar=  1.01140243749586E+05
 cg2d: Sum(rhs),rhsMax =  -1.01029053313230E+02  1.35396032960041E+00
(PID.TID 0000.0001)  ploadbar=  1.01139365022062E+05
 cg2d: Sum(rhs),rhsMax =  -1.02033743855521E+02  1.34103133766053E+00
(PID.TID 0000.0001)  ploadbar=  1.01138486294538E+05
 cg2d: Sum(rhs),rhsMax =  -1.03391784221108E+02  1.32378743501095E+00
(PID.TID 0000.0001)  ploadbar=  1.01137607567014E+05
 cg2d: Sum(rhs),rhsMax =  -1.05078596744981E+02  1.30287268141327E+00
(PID.TID 0000.0001)  ploadbar=  1.01136728839490E+05
 cg2d: Sum(rhs),rhsMax =  -1.07100143045950E+02  1.27858266018991E+00
(PID.TID 0000.0001)  ploadbar=  1.01135850111966E+05
 cg2d: Sum(rhs),rhsMax =  -1.09412827801652E+02  1.25182348963747E+00
(PID.TID 0000.0001)  ploadbar=  1.01134971384442E+05
 cg2d: Sum(rhs),rhsMax =  -1.11978253571546E+02  1.22340852008454E+00
(PID.TID 0000.0001)  ploadbar=  1.01134475751697E+05
 cg2d: Sum(rhs),rhsMax =  -1.14921502374009E+02  1.19233911990660E+00
(PID.TID 0000.0001)  ploadbar=  1.01133980118953E+05
 cg2d: Sum(rhs),rhsMax =  -1.18204045104655E+02  1.15948725728285E+00
(PID.TID 0000.0001)  ploadbar=  1.01133484486208E+05
 cg2d: Sum(rhs),rhsMax =  -1.21754571372907E+02  1.12593025952157E+00
(PID.TID 0000.0001)  ploadbar=  1.01132988853464E+05
 cg2d: Sum(rhs),rhsMax =  -1.25566225587147E+02  1.09200239655736E+00
(PID.TID 0000.0001)  ploadbar=  1.01132493220719E+05
 cg2d: Sum(rhs),rhsMax =  -1.29620551894194E+02  1.05809304393855E+00
(PID.TID 0000.0001)  ploadbar=  1.01131997587975E+05
 cg2d: Sum(rhs),rhsMax =  -1.33710946238228E+02  1.02597361630260E+00
(PID.TID 0000.0001)  ploadbar=  1.01132587970718E+05
 cg2d: Sum(rhs),rhsMax =  -1.35758211973762E+02  1.01075408213599E+00
(PID.TID 0000.0001)  ploadbar=  1.01133178353461E+05
 cg2d: Sum(rhs),rhsMax =  -1.35954024911430E+02  1.00955800036222E+00
(PID.TID 0000.0001)  ploadbar=  1.01133768736204E+05
 cg2d: Sum(rhs),rhsMax =  -1.36017220683619E+02  1.00935505273100E+00
(PID.TID 0000.0001)  ploadbar=  1.01134359118947E+05
 cg2d: Sum(rhs),rhsMax =  -1.35947379008027E+02  1.01014519665335E+00
(PID.TID 0000.0001)  ploadbar=  1.01134949501690E+05
 cg2d: Sum(rhs),rhsMax =  -1.35799462272250E+02  1.01152227118362E+00
(PID.TID 0000.0001)  ploadbar=  1.01135539884433E+05
 cg2d: Sum(rhs),rhsMax =  -1.35540624133637E+02  1.01372228316891E+00
(PID.TID 0000.0001)  ploadbar=  1.01135289585549E+05
 cg2d: Sum(rhs),rhsMax =  -1.35263126568262E+02  1.01606215679750E+00
(PID.TID 0000.0001)  ploadbar=  1.01135039286664E+05
 cg2d: Sum(rhs),rhsMax =  -1.34970844343028E+02  1.01851269270060E+00
(PID.TID 0000.0001)  ploadbar=  1.01134788987779E+05
 cg2d: Sum(rhs),rhsMax =  -1.34702800976895E+02  1.02077824919345E+00
(PID.TID 0000.0001)  ploadbar=  1.01134538688895E+05
 cg2d: Sum(rhs),rhsMax =  -1.34480157961710E+02  1.02269275232230E+00
(PID.TID 0000.0001)  ploadbar=  1.01134288390010E+05
 cg2d: Sum(rhs),rhsMax =  -1.34341179027643E+02  1.02395883786906E+00
(PID.TID 0000.0001)  ploadbar=  1.01134038091126E+05
 cg2d: Sum(rhs),rhsMax =  -1.34201451704498E+02  1.02522087721556E+00
(PID.TID 0000.0001)  ploadbar=  1.01133742719410E+05
 cg2d: Sum(rhs),rhsMax =  -1.34193604845416E+02  1.02546267011696E+00
(PID.TID 0000.0001)  ploadbar=  1.01133447347695E+05
 cg2d: Sum(rhs),rhsMax =  -1.34235455263403E+02  1.02530946253823E+00
(PID.TID 0000.0001)  ploadbar=  1.01133151975980E+05
 cg2d: Sum(rhs),rhsMax =  -1.34179357490625E+02  1.02588742541514E+00
(PID.TID 0000.0001)  ploadbar=  1.01132856604265E+05
 cg2d: Sum(rhs),rhsMax =  -1.34060343421310E+02  1.02692879453761E+00
(PID.TID 0000.0001)  ploadbar=  1.01132561232550E+05
 cg2d: Sum(rhs),rhsMax =  -1.34118197630197E+02  1.02659598427602E+00
(PID.TID 0000.0001)  ploadbar=  1.01132265860835E+05
 cg2d: Sum(rhs),rhsMax =  -1.34312814108145E+02  1.02524477141190E+00
(PID.TID 0000.0001)  ploadbar=  1.01132363408163E+05
 cg2d: Sum(rhs),rhsMax =  -1.34622950491634E+02  1.02304325635290E+00
(PID.TID 0000.0001)  ploadbar=  1.01132460955491E+05
 cg2d: Sum(rhs),rhsMax =  -1.35089437926467E+02  1.01969339522155E+00
(PID.TID 0000.0001)  ploadbar=  1.01132558502819E+05
 cg2d: Sum(rhs),rhsMax =  -1.35246286663422E+02  1.01871562703247E+00
(PID.TID 0000.0001)  ploadbar=  1.01132656050146E+05
 cg2d: Sum(rhs),rhsMax =  -1.34056595486566E+02  1.02798394105882E+00
(PID.TID 0000.0001)  ploadbar=  1.01132753597474E+05
 cg2d: Sum(rhs),rhsMax =  -1.32778691426444E+02  1.03812535173736E+00
(PID.TID 0000.0001)  ploadbar=  1.01132851144802E+05
 cg2d: Sum(rhs),rhsMax =  -1.31689336042118E+02  1.04696978168737E+00
(PID.TID 0000.0001)  ploadbar=  1.01132299186599E+05
 cg2d: Sum(rhs),rhsMax =  -1.30641648797981E+02  1.05563092695172E+00
(PID.TID 0000.0001)  ploadbar=  1.01131747228395E+05
 cg2d: Sum(rhs),rhsMax =  -1.29645916898112E+02  1.06401067817583E+00
(PID.TID 0000.0001)  ploadbar=  1.01131195270192E+05
 cg2d: Sum(rhs),rhsMax =  -1.28768374189651E+02  1.07153912525795E+00
(PID.TID 0000.0001)  ploadbar=  1.01130643311989E+05
 cg2d: Sum(rhs),rhsMax =  -1.28073607287960E+02  1.07763326649390E+00
(PID.TID 0000.0001)  ploadbar=  1.01130091353785E+05
 cg2d: Sum(rhs),rhsMax =  -1.27709756003676E+02  1.08098722377792E+00
(PID.TID 0000.0001)  ploadbar=  1.01129539395582E+05
 cg2d: Sum(rhs),rhsMax =  -1.27575664506207E+02  1.08240333903440E+00
(PID.TID 0000.0001)  ploadbar=  1.01129536080050E+05
 cg2d: Sum(rhs),rhsMax =  -1.27590937883205E+02  1.08254783604600E+00
(PID.TID 0000.0001)  ploadbar=  1.01129532764519E+05
 cg2d: Sum(rhs),rhsMax =  -1.27673405008578E+02  1.08211635108364E+00
(PID.TID 0000.0001)  ploadbar=  1.01129529448987E+05
 cg2d: Sum(rhs),rhsMax =  -1.27718238447404E+02  1.08199592105217E+00
(PID.TID 0000.0001)  ploadbar=  1.01129526133456E+05
 cg2d: Sum(rhs),rhsMax =  -1.27723353131391E+02  1.08220347963388E+00
(PID.TID 0000.0001)  ploadbar=  1.01129522817924E+05
 cg2d: Sum(rhs),rhsMax =  -1.27874337783683E+02  1.08116595208966E+00
(PID.TID 0000.0001)  ploadbar=  1.01129519502393E+05
 cg2d: Sum(rhs),rhsMax =  -1.28212535806780E+02  1.07853685751996E+00
(PID.TID 0000.0001)  ploadbar=  1.01129214570220E+05
 cg2d: Sum(rhs),rhsMax =  -1.28739267399099E+02  1.07432976955860E+00
(PID.TID 0000.0001)  ploadbar=  1.01128909638047E+05
 cg2d: Sum(rhs),rhsMax =  -1.28955350784037E+02  1.07271851205447E+00
(PID.TID 0000.0001)  ploadbar=  1.01128604705875E+05
 cg2d: Sum(rhs),rhsMax =  -1.28420765173489E+02  1.07735552616496E+00
(PID.TID 0000.0001)  ploadbar=  1.01128299773702E+05
 cg2d: Sum(rhs),rhsMax =  -1.27253659592441E+02  1.08739128604339E+00
(PID.TID 0000.0001)  ploadbar=  1.01127994841529E+05
 cg2d: Sum(rhs),rhsMax =  -1.26131429303624E+02  1.09720270324226E+00
(PID.TID 0000.0001)  ploadbar=  1.01127689909357E+05
 cg2d: Sum(rhs),rhsMax =  -1.25131312475771E+02  1.10614710041424E+00
(PID.TID 0000.0001)  ploadbar=  1.01127765027032E+05
 cg2d: Sum(rhs),rhsMax =  -1.24420768853130E+02  1.11267470318665E+00
(PID.TID 0000.0001)  ploadbar=  1.01127840144708E+05
 cg2d: Sum(rhs),rhsMax =  -1.23992231708216E+02  1.11676512951028E+00
(PID.TID 0000.0001)  ploadbar=  1.01127915262383E+05
 cg2d: Sum(rhs),rhsMax =  -1.23517638637981E+02  1.12133417051655E+00
(PID.TID 0000.0001)  ploadbar=  1.01127990380058E+05
 cg2d: Sum(rhs),rhsMax =  -1.22715032949965E+02  1.12897744535912E+00
(PID.TID 0000.0001)  ploadbar=  1.01128065497734E+05
 cg2d: Sum(rhs),rhsMax =  -1.21596135971498E+02  1.13970362091594E+00
(PID.TID 0000.0001)  ploadbar=  1.01128140615409E+05
 cg2d: Sum(rhs),rhsMax =  -1.20565753882597E+02  1.14979274061919E+00
(PID.TID 0000.0001)  ploadbar=  1.01128133101405E+05
 cg2d: Sum(rhs),rhsMax =  -1.19668213653906E+02  1.15877582693836E+00
(PID.TID 0000.0001)  ploadbar=  1.01128125587400E+05
 cg2d: Sum(rhs),rhsMax =  -1.19060223647351E+02  1.16505985704324E+00
(PID.TID 0000.0001)  ploadbar=  1.01128118073396E+05
 cg2d: Sum(rhs),rhsMax =  -1.18670015346793E+02  1.16926188505687E+00
(PID.TID 0000.0001)  ploadbar=  1.01128110559392E+05
 cg2d: Sum(rhs),rhsMax =  -1.18316095855034E+02  1.17313275545577E+00
(PID.TID 0000.0001)  ploadbar=  1.01128103045387E+05
 cg2d: Sum(rhs),rhsMax =  -1.17843587453185E+02  1.17821043087379E+00
(PID.TID 0000.0001)  ploadbar=  1.01128095531383E+05
 cg2d: Sum(rhs),rhsMax =  -1.17321616114921E+02  1.18382162486151E+00
(PID.TID 0000.0001)  ploadbar=  1.01128168838529E+05
 cg2d: Sum(rhs),rhsMax =  -1.16799229073795E+02  1.18948138050284E+00
(PID.TID 0000.0001)  ploadbar=  1.01128242145676E+05
 cg2d: Sum(rhs),rhsMax =  -1.16393585739446E+02  1.19398642263721E+00
(PID.TID 0000.0001)  ploadbar=  1.01128315452822E+05
 cg2d: Sum(rhs),rhsMax =  -1.16084649747516E+02  1.19751577757156E+00
(PID.TID 0000.0001)  ploadbar=  1.01128388759968E+05
 cg2d: Sum(rhs),rhsMax =  -1.15853633762040E+02  1.20024566461457E+00
(PID.TID 0000.0001)  ploadbar=  1.01128462067114E+05
 cg2d: Sum(rhs),rhsMax =  -1.15694266596817E+02  1.20222901880145E+00
(PID.TID 0000.0001)  ploadbar=  1.01128535374261E+05
 cg2d: Sum(rhs),rhsMax =  -1.15635191310372E+02  1.20315042557773E+00
(PID.TID 0000.0001)  ploadbar=  1.01128297275685E+05
 cg2d: Sum(rhs),rhsMax =  -1.15647779343703E+02  1.20330365515734E+00
(PID.TID 0000.0001)  ploadbar=  1.01128059177109E+05
 cg2d: Sum(rhs),rhsMax =  -1.15662595300824E+02  1.20340956839939E+00
(PID.TID 0000.0001)  ploadbar=  1.01127821078534E+05
 cg2d: Sum(rhs),rhsMax =  -1.15692415033434E+02  1.20333653326066E+00
(PID.TID 0000.0001)  ploadbar=  1.01127582979958E+05
 cg2d: Sum(rhs),rhsMax =  -1.15751099859368E+02  1.20294031128828E+00
(PID.TID 0000.0001)  ploadbar=  1.01127344881383E+05
 cg2d: Sum(rhs),rhsMax =  -1.15831674717252E+02  1.20229096746128E+00
(PID.TID 0000.0001)  ploadbar=  1.01127106782807E+05
 cg2d: Sum(rhs),rhsMax =  -1.15931067558158E+02  1.20146874477073E+00
(PID.TID 0000.0001)  ploadbar=  1.01126666124598E+05
 cg2d: Sum(rhs),rhsMax =  -1.16080688167660E+02  1.20014842344123E+00
(PID.TID 0000.0001)  ploadbar=  1.01126225466388E+05
 cg2d: Sum(rhs),rhsMax =  -1.16263480899825E+02  1.19850893630325E+00
(PID.TID 0000.0001)  ploadbar=  1.01125784808178E+05
 cg2d: Sum(rhs),rhsMax =  -1.16481593801151E+02  1.19653281653861E+00
(PID.TID 0000.0001)  ploadbar=  1.01125344149969E+05
 cg2d: Sum(rhs),rhsMax =  -1.16723736215935E+02  1.19433793320097E+00
(PID.TID 0000.0001)  ploadbar=  1.01124903491759E+05
 cg2d: Sum(rhs),rhsMax =  -1.16990498139483E+02  1.19192017980593E+00
(PID.TID 0000.0001)  ploadbar=  1.01124462833550E+05
 cg2d: Sum(rhs),rhsMax =  -1.17245261950160E+02  1.18963159866909E+00
(PID.TID 0000.0001)  ploadbar=  1.01123684668826E+05
 cg2d: Sum(rhs),rhsMax =  -1.17511645098598E+02  1.18722924173730E+00
(PID.TID 0000.0001)  ploadbar=  1.01122906504103E+05
 cg2d: Sum(rhs),rhsMax =  -1.17799273374562E+02  1.18461733570911E+00
(PID.TID 0000.0001)  ploadbar=  1.01122128339380E+05
 cg2d: Sum(rhs),rhsMax =  -1.18086198103557E+02  1.18201835142156E+00
(PID.TID 0000.0001)  ploadbar=  1.01121350174657E+05
 cg2d: Sum(rhs),rhsMax =  -1.18363367957011E+02  1.17952214218357E+00
(PID.TID 0000.0001)  ploadbar=  1.01120572009934E+05
 cg2d: Sum(rhs),rhsMax =  -1.18619645528854E+02  1.17723712540928E+00
(PID.TID 0000.0001)  ploadbar=  1.01119793845210E+05
 cg2d: Sum(rhs),rhsMax =  -1.18945208754083E+02  1.17428436094424E+00
(PID.TID 0000.0001)  ploadbar=  1.01119781424811E+05
 cg2d: Sum(rhs),rhsMax =  -1.19283537895109E+02  1.17122735999406E+00
(PID.TID 0000.0001)  ploadbar=  1.01119769004412E+05
 cg2d: Sum(rhs),rhsMax =  -1.19605026025412E+02  1.16835702170629E+00
(PID.TID 0000.0001)  ploadbar=  1.01119756584013E+05
 cg2d: Sum(rhs),rhsMax =  -1.19923646927794E+02  1.16553448737987E+00
(PID.TID 0000.0001)  ploadbar=  1.01119744163613E+05
 cg2d: Sum(rhs),rhsMax =  -1.20244974325053E+02  1.16270453078469E+00
(PID.TID 0000.0001)  ploadbar=  1.01119731743214E+05
 cg2d: Sum(rhs),rhsMax =  -1.20569930234307E+02  1.15985790255397E+00
(PID.TID 0000.0001)  ploadbar=  1.01119719322815E+05
 cg2d: Sum(rhs),rhsMax =  -1.20832896516268E+02  1.15759253590122E+00
(PID.TID 0000.0001)  ploadbar=  1.01118162186424E+05
 cg2d: Sum(rhs),rhsMax =  -1.21126756414685E+02  1.15501413481184E+00
(PID.TID 0000.0001)  ploadbar=  1.01116605050032E+05
 cg2d: Sum(rhs),rhsMax =  -1.21425966563691E+02  1.15236946528569E+00
(PID.TID 0000.0001)  ploadbar=  1.01115047913641E+05
 cg2d: Sum(rhs),rhsMax =  -1.21739534709276E+02  1.14957370048739E+00
(PID.TID 0000.0001)  ploadbar=  1.01113490777249E+05
 cg2d: Sum(rhs),rhsMax =  -1.22084186078952E+02  1.14647186764199E+00
(PID.TID 0000.0001)  ploadbar=  1.01111933640858E+05
 cg2d: Sum(rhs),rhsMax =  -1.22452556493890E+02  1.14313743445480E+00
(PID.TID 0000.0001)  ploadbar=  1.01110376504466E+05
 cg2d: Sum(rhs),rhsMax =  -1.22821596648278E+02  1.13984102131806E+00
(PID.TID 0000.0001)  ploadbar=  1.01109610311183E+05
 cg2d: Sum(rhs),rhsMax =  -1.23228175535003E+02  1.13624132217172E+00
(PID.TID 0000.0001)  ploadbar=  1.01108844117899E+05
 cg2d: Sum(rhs),rhsMax =  -1.23664717957962E+02  1.13241393433486E+00
(PID.TID 0000.0001)  ploadbar=  1.01108077924615E+05
 cg2d: Sum(rhs),rhsMax =  -1.24114388630953E+02  1.12851642510659E+00
(PID.TID 0000.0001)  ploadbar=  1.01107311731331E+05
 cg2d: Sum(rhs),rhsMax =  -1.24584780789309E+02  1.12448296224034E+00
(PID.TID 0000.0001)  ploadbar=  1.01106545538047E+05
 cg2d: Sum(rhs),rhsMax =  -1.25093112949346E+02  1.12016205459613E+00
(PID.TID 0000.0001)  ploadbar=  1.01105779344763E+05
 cg2d: Sum(rhs),rhsMax =  -1.25447344868105E+02  1.11726053815108E+00
(PID.TID 0000.0001)  ploadbar=  1.01105302846080E+05
 cg2d: Sum(rhs),rhsMax =  -1.25822809756554E+02  1.11419964853138E+00
(PID.TID 0000.0001)  ploadbar=  1.01104826347396E+05
 cg2d: Sum(rhs),rhsMax =  -1.26224623823675E+02  1.11093598045803E+00
(PID.TID 0000.0001)  ploadbar=  1.01104349848713E+05
 cg2d: Sum(rhs),rhsMax =  -1.26609393076287E+02  1.10785182585132E+00
(PID.TID 0000.0001)  ploadbar=  1.01103873350030E+05
 cg2d: Sum(rhs),rhsMax =  -1.26961553611027E+02  1.10507872938592E+00
(PID.TID 0000.0001)  ploadbar=  1.01103396851347E+05
 cg2d: Sum(rhs),rhsMax =  -1.27272784345261E+02  1.10268506863532E+00
(PID.TID 0000.0001)  ploadbar=  1.01102920352664E+05
 cg2d: Sum(rhs),rhsMax =  -1.27530821916400E+02  1.10075672245978E+00
(PID.TID 0000.0001)  ploadbar=  1.01102096366065E+05
 cg2d: Sum(rhs),rhsMax =  -1.27696562751007E+02  1.09962513864106E+00
(PID.TID 0000.0001)  ploadbar=  1.01101272379466E+05
 cg2d: Sum(rhs),rhsMax =  -1.27850311737949E+02  1.09859514614918E+00
(PID.TID 0000.0001)  ploadbar=  1.01100448392866E+05
 cg2d: Sum(rhs),rhsMax =  -1.27995089151201E+02  1.09763933310314E+00
(PID.TID 0000.0001)  ploadbar=  1.01099624406267E+05
 cg2d: Sum(rhs),rhsMax =  -1.28134338416692E+02  1.09672657771752E+00
(PID.TID 0000.0001)  ploadbar=  1.01098800419668E+05
 cg2d: Sum(rhs),rhsMax =  -1.28276609053192E+02  1.09578224125525E+00
(PID.TID 0000.0001)  ploadbar=  1.01097976433069E+05
 cg2d: Sum(rhs),rhsMax =  -1.28467188790427E+02  1.09441909887730E+00
(PID.TID 0000.0001)  ploadbar=  1.01097804362096E+05
 cg2d: Sum(rhs),rhsMax =  -1.28615789389387E+02  1.09340752327937E+00
(PID.TID 0000.0001)  ploadbar=  1.01097632291123E+05
 cg2d: Sum(rhs),rhsMax =  -1.28726260303064E+02  1.09271203253046E+00
(PID.TID 0000.0001)  ploadbar=  1.01097460220150E+05
 cg2d: Sum(rhs),rhsMax =  -1.28811856636628E+02  1.09221876161679E+00
(PID.TID 0000.0001)  ploadbar=  1.01097288149177E+05
 cg2d: Sum(rhs),rhsMax =  -1.28865013911273E+02  1.09199052479850E+00
(PID.TID 0000.0001)  ploadbar=  1.01097116078204E+05
 cg2d: Sum(rhs),rhsMax =  -1.28891678211478E+02  1.09197588018301E+00
(PID.TID 0000.0001)  ploadbar=  1.01096944007231E+05
 cg2d: Sum(rhs),rhsMax =  -1.28935156880674E+02  1.09184914954635E+00
(PID.TID 0000.0001)  ploadbar=  1.01098075457411E+05
 cg2d: Sum(rhs),rhsMax =  -1.28975677806407E+02  1.09177592642477E+00
(PID.TID 0000.0001)  ploadbar=  1.01099206907591E+05
 cg2d: Sum(rhs),rhsMax =  -1.29039883062908E+02  1.09153016532112E+00
(PID.TID 0000.0001)  ploadbar=  1.01100338357771E+05
 cg2d: Sum(rhs),rhsMax =  -1.29143890427073E+02  1.09097523354806E+00
(PID.TID 0000.0001)  ploadbar=  1.01101469807950E+05
 cg2d: Sum(rhs),rhsMax =  -1.29282366422740E+02  1.09015684809121E+00
(PID.TID 0000.0001)  ploadbar=  1.01102601258130E+05
 cg2d: Sum(rhs),rhsMax =  -1.29458956986885E+02  1.08904508839904E+00
(PID.TID 0000.0001)  ploadbar=  1.01103732708310E+05
 cg2d: Sum(rhs),rhsMax =  -1.29731958350863E+02  1.08712677089952E+00
(PID.TID 0000.0001)  ploadbar=  1.01104333407014E+05
 cg2d: Sum(rhs),rhsMax =  -1.29993780621405E+02  1.08530708546006E+00
(PID.TID 0000.0001)  ploadbar=  1.01104934105718E+05
 cg2d: Sum(rhs),rhsMax =  -1.30239238551916E+02  1.08362823870648E+00
(PID.TID 0000.0001)  ploadbar=  1.01105534804422E+05
 cg2d: Sum(rhs),rhsMax =  -1.30464368610598E+02  1.08212191347703E+00
(PID.TID 0000.0001)  ploadbar=  1.01106135503125E+05
 cg2d: Sum(rhs),rhsMax =  -1.30669850931720E+02  1.08077972967906E+00
(PID.TID 0000.0001)  ploadbar=  1.01106736201829E+05
 cg2d: Sum(rhs),rhsMax =  -1.30860232474101E+02  1.07956217280663E+00
(PID.TID 0000.0001)  ploadbar=  1.01107336900533E+05
 cg2d: Sum(rhs),rhsMax =  -1.31134404826739E+02  1.07764781110306E+00
(PID.TID 0000.0001)  ploadbar=  1.01107689395959E+05
 cg2d: Sum(rhs),rhsMax =  -1.31424269165946E+02  1.07560120694642E+00
(PID.TID 0000.0001)  ploadbar=  1.01108041891385E+05
 cg2d: Sum(rhs),rhsMax =  -1.31687966384537E+02  1.07376467186477E+00
(PID.TID 0000.0001)  ploadbar=  1.01108394386810E+05
 cg2d: Sum(rhs),rhsMax =  -1.31932924541367E+02  1.07207543039675E+00
(PID.TID 0000.0001)  ploadbar=  1.01108746882236E+05
 cg2d: Sum(rhs),rhsMax =  -1.32184567068475E+02  1.07032481948197E+00
(PID.TID 0000.0001)  ploadbar=  1.01109099377662E+05
 cg2d: Sum(rhs),rhsMax =  -1.32443487144838E+02  1.06850730854202E+00
(PID.TID 0000.0001)  ploadbar=  1.01109451873087E+05
 cg2d: Sum(rhs),rhsMax =  -1.32667066934222E+02  1.06696924086241E+00
(PID.TID 0000.0001)  ploadbar=  1.01110313077524E+05
 cg2d: Sum(rhs),rhsMax =  -1.32927185531888E+02  1.06513065907916E+00
(PID.TID 0000.0001)  ploadbar=  1.01111174281961E+05
 cg2d: Sum(rhs),rhsMax =  -1.33170325501117E+02  1.06342243534634E+00
(PID.TID 0000.0001)  ploadbar=  1.01112035486398E+05
 cg2d: Sum(rhs),rhsMax =  -1.33402886021305E+02  1.06179137439137E+00
(PID.TID 0000.0001)  ploadbar=  1.01112896690835E+05
 cg2d: Sum(rhs),rhsMax =  -1.33642241770948E+02  1.06009648179242E+00
(PID.TID 0000.0001)  ploadbar=  1.01113757895271E+05
 cg2d: Sum(rhs),rhsMax =  -1.33874431779118E+02  1.05844630133966E+00
(PID.TID 0000.0001)  ploadbar=  1.01114619099708E+05
 cg2d: Sum(rhs),rhsMax =  -1.34044540526373E+02  1.05730846734129E+00
(PID.TID 0000.0001)  ploadbar=  1.01114739719212E+05
 cg2d: Sum(rhs),rhsMax =  -1.34235752519950E+02  1.05602441505131E+00
(PID.TID 0000.0001)  ploadbar=  1.01114860338716E+05
 cg2d: Sum(rhs),rhsMax =  -1.34212162221535E+02  1.05644698105003E+00
(PID.TID 0000.0001)  ploadbar=  1.01114980958220E+05
 cg2d: Sum(rhs),rhsMax =  -1.33904702297839E+02  1.05912421581451E+00
(PID.TID 0000.0001)  ploadbar=  1.01115101577724E+05
 cg2d: Sum(rhs),rhsMax =  -1.33815272795387E+02  1.06009661967488E+00
(PID.TID 0000.0001)  ploadbar=  1.01115222197228E+05
 cg2d: Sum(rhs),rhsMax =  -1.33851075515878E+02  1.06009160652958E+00
(PID.TID 0000.0001)  ploadbar=  1.01115342816732E+05
 cg2d: Sum(rhs),rhsMax =  -1.33521612496900E+02  1.06297818915808E+00
(PID.TID 0000.0001)  ploadbar=  1.01116861453399E+05
 cg2d: Sum(rhs),rhsMax =  -1.33183340626353E+02  1.06593866057981E+00
(PID.TID 0000.0001)  ploadbar=  1.01118380090065E+05
 cg2d: Sum(rhs),rhsMax =  -1.32816254786084E+02  1.06913362864395E+00
(PID.TID 0000.0001)  ploadbar=  1.01119898726732E+05
 cg2d: Sum(rhs),rhsMax =  -1.32434488631625E+02  1.07245154465782E+00
(PID.TID 0000.0001)  ploadbar=  1.01121417363398E+05
 cg2d: Sum(rhs),rhsMax =  -1.32060210938537E+02  1.07571133923390E+00
(PID.TID 0000.0001)  ploadbar=  1.01122936000064E+05
 cg2d: Sum(rhs),rhsMax =  -1.31695852644086E+02  1.07889001363503E+00
(PID.TID 0000.0001)  ploadbar=  1.01124454636731E+05
 cg2d: Sum(rhs),rhsMax =  -1.31283822413050E+02  1.08248748280114E+00
(PID.TID 0000.0001)  ploadbar=  1.01124965374832E+05
 cg2d: Sum(rhs),rhsMax =  -1.30837301466442E+02  1.08639916532105E+00
(PID.TID 0000.0001)  ploadbar=  1.01125476112934E+05
 cg2d: Sum(rhs),rhsMax =  -1.29656651644991E+02  1.09651607736725E+00
(PID.TID 0000.0001)  ploadbar=  1.01125986851036E+05
 cg2d: Sum(rhs),rhsMax =  -1.24219736246581E+02  1.14474711325911E+00
(PID.TID 0000.0001)  ploadbar=  1.01126497589138E+05
 cg2d: Sum(rhs),rhsMax =  -1.19009250916428E+02  1.19511918938177E+00
(PID.TID 0000.0001)  ploadbar=  1.01127008327240E+05
 cg2d: Sum(rhs),rhsMax =  -1.13831493335959E+02  1.24974594359820E+00
(PID.TID 0000.0001)  ploadbar=  1.01127519065342E+05
 cg2d: Sum(rhs),rhsMax =  -1.09381500982534E+02  1.30085047611377E+00
(PID.TID 0000.0001)  ploadbar=  1.01128300688594E+05
 cg2d: Sum(rhs),rhsMax =  -1.05743364044550E+02  1.34585827166992E+00
(PID.TID 0000.0001)  ploadbar=  1.01129082311846E+05
 cg2d: Sum(rhs),rhsMax =  -1.02943784232798E+02  1.38269774237386E+00
(PID.TID 0000.0001)  ploadbar=  1.01129863935098E+05
 cg2d: Sum(rhs),rhsMax =  -1.00925438682248E+02  1.41057242670071E+00
(PID.TID 0000.0001)  ploadbar=  1.01130645558349E+05
 cg2d: Sum(rhs),rhsMax =  -9.95857133578517E+01  1.42975149720378E+00
(PID.TID 0000.0001)  ploadbar=  1.01131427181601E+05
 cg2d: Sum(rhs),rhsMax =  -9.88153492923346E+01  1.44107738196121E+00
(PID.TID 0000.0001)  ploadbar=  1.01132208804853E+05
 cg2d: Sum(rhs),rhsMax =  -9.84186897702519E+01  1.44710388124767E+00
(PID.TID 0000.0001)  ploadbar=  1.01132182170362E+05
 cg2d: Sum(rhs),rhsMax =  -9.81899373477117E+01  1.45073074691428E+00
(PID.TID 0000.0001)  ploadbar=  1.01132155535871E+05
 cg2d: Sum(rhs),rhsMax =  -9.80654056378151E+01  1.45286352270891E+00
(PID.TID 0000.0001)  ploadbar=  1.01132128901380E+05
 cg2d: Sum(rhs),rhsMax =  -9.80737966058409E+01  1.45306298952666E+00
(PID.TID 0000.0001)  ploadbar=  1.01132102266889E+05
 cg2d: Sum(rhs),rhsMax =  -9.82542692273221E+01  1.45075151191604E+00
(PID.TID 0000.0001)  ploadbar=  1.01132075632398E+05
 cg2d: Sum(rhs),rhsMax =  -9.86133643800331E+01  1.44586005895886E+00
(PID.TID 0000.0001)  ploadbar=  1.01132048997907E+05
 cg2d: Sum(rhs),rhsMax =  -9.88399347841117E+01  1.44294086595219E+00
(PID.TID 0000.0001)  ploadbar=  1.01131997698612E+05
 cg2d: Sum(rhs),rhsMax =  -9.90011813401204E+01  1.44099036812863E+00
(PID.TID 0000.0001)      cg2d_init_res =   2.65753006208203E-01
(PID.TID 0000.0001)      cg2d_iters(min,last) =      -1     141
(PID.TID 0000.0001)      cg2d_last_res =   9.97851250946209E-08
(PID.TID 0000.0001) // =======================================================
(PID.TID 0000.0001) // Begin MONITOR dynamic field statistics
(PID.TID 0000.0001) // =======================================================
(PID.TID 0000.0001) %MON time_tsnumber                =                  5256
(PID.TID 0000.0001) %MON time_secondsf                =   1.8921600000000E+07
(PID.TID 0000.0001) %MON dynstat_eta_max              =   1.2822656744561E+00
(PID.TID 0000.0001) %MON dynstat_eta_min              =  -5.1007338294161E+00
(PID.TID 0000.0001) %MON dynstat_eta_mean             =   7.2204535644702E-02
(PID.TID 0000.0001) %MON dynstat_eta_sd               =   7.0447201806394E-01
(PID.TID 0000.0001) %MON dynstat_eta_del2             =   2.3218237532547E-04
(PID.TID 0000.0001) %MON dynstat_uvel_max             =   1.1075836717777E+00
(PID.TID 0000.0001) %MON dynstat_uvel_min             =  -6.3813817834588E-01
(PID.TID 0000.0001) %MON dynstat_uvel_mean            =   1.4410951455256E-03
(PID.TID 0000.0001) %MON dynstat_uvel_sd              =   2.0220120435069E-02
(PID.TID 0000.0001) %MON dynstat_uvel_del2            =   9.0827325259942E-06
(PID.TID 0000.0001) %MON dynstat_vvel_max             =   1.0943679366347E+00
(PID.TID 0000.0001) %MON dynstat_vvel_min             =  -1.0664381046347E+00
(PID.TID 0000.0001) %MON dynstat_vvel_mean            =   1.2380134790287E-03
(PID.TID 0000.0001) %MON dynstat_vvel_sd              =   2.2220458310143E-02
(PID.TID 0000.0001) %MON dynstat_vvel_del2            =   9.5845332693328E-06
(PID.TID 0000.0001) %MON dynstat_wvel_max             =   3.6069555280478E-04
(PID.TID 0000.0001) %MON dynstat_wvel_min             =  -8.4288136507142E-04
(PID.TID 0000.0001) %MON dynstat_wvel_mean            =   3.1583155715626E-09
(PID.TID 0000.0001) %MON dynstat_wvel_sd              =   2.2424888469348E-05
(PID.TID 0000.0001) %MON dynstat_wvel_del2            =   1.5664926548821E-08
(PID.TID 0000.0001) %MON dynstat_theta_max            =   3.3562227634212E+01
(PID.TID 0000.0001) %MON dynstat_theta_min            =  -2.1634996186239E+00
(PID.TID 0000.0001) %MON dynstat_theta_mean           =   3.5774350576484E+00
(PID.TID 0000.0001) %MON dynstat_theta_sd             =   4.4206566967894E+00
(PID.TID 0000.0001) %MON dynstat_theta_del2           =   9.5399131844562E-05
(PID.TID 0000.0001) %MON dynstat_salt_max             =   4.0641657105676E+01
(PID.TID 0000.0001) %MON dynstat_salt_min             =   2.0088527123480E+01
(PID.TID 0000.0001) %MON dynstat_salt_mean            =   3.4726983946044E+01
(PID.TID 0000.0001) %MON dynstat_salt_sd              =   3.8002854685424E-01
(PID.TID 0000.0001) %MON dynstat_salt_del2            =   2.0050070541755E-05
(PID.TID 0000.0001) %MON dynstat_sst_max              =   3.3562227634212E+01
(PID.TID 0000.0001) %MON dynstat_sst_min              =  -1.9602481841894E+00
(PID.TID 0000.0001) %MON dynstat_sst_mean             =   1.8153470682178E+01
(PID.TID 0000.0001) %MON dynstat_sst_sd               =   1.0168794262375E+01
(PID.TID 0000.0001) %MON dynstat_sst_del2             =   6.8586736052661E-04
(PID.TID 0000.0001) %MON dynstat_sss_max              =   3.9675935173621E+01
(PID.TID 0000.0001) %MON dynstat_sss_min              =   2.0088527123480E+01
(PID.TID 0000.0001) %MON dynstat_sss_mean             =   3.4693095672689E+01
(PID.TID 0000.0001) %MON dynstat_sss_sd               =   1.3280368644510E+00
(PID.TID 0000.0001) %MON dynstat_sss_del2             =   3.3370791267710E-04
(PID.TID 0000.0001) %MON forcing_qnet_max             =   6.7573472051037E+02
(PID.TID 0000.0001) %MON forcing_qnet_min             =  -5.6922140576325E+02
(PID.TID 0000.0001) %MON forcing_qnet_mean            =   4.4389022487698E+01
(PID.TID 0000.0001) %MON forcing_qnet_sd              =   1.5533308885661E+02
(PID.TID 0000.0001) %MON forcing_qnet_del2            =   9.9714010843486E-02
(PID.TID 0000.0001) %MON forcing_qsw_max              =   4.8571008715674E+01
(PID.TID 0000.0001) %MON forcing_qsw_min              =  -6.7510702867674E+02
(PID.TID 0000.0001) %MON forcing_qsw_mean             =  -1.1979318554230E+02
(PID.TID 0000.0001) %MON forcing_qsw_sd               =   1.4259802647681E+02
(PID.TID 0000.0001) %MON forcing_qsw_del2             =   4.3513428750479E-02
(PID.TID 0000.0001) %MON forcing_empmr_max            =   1.8367869167398E-03
(PID.TID 0000.0001) %MON forcing_empmr_min            =  -1.9621896731057E-03
(PID.TID 0000.0001) %MON forcing_empmr_mean           =  -5.7242188102703E-06
(PID.TID 0000.0001) %MON forcing_empmr_sd             =   1.0441555045402E-04
(PID.TID 0000.0001) %MON forcing_empmr_del2           =   3.0268620465866E-07
(PID.TID 0000.0001) %MON forcing_fu_max               =   1.0505704379589E+00
(PID.TID 0000.0001) %MON forcing_fu_min               =  -1.3288835716862E+00
(PID.TID 0000.0001) %MON forcing_fu_mean              =   1.7627355962621E-02
(PID.TID 0000.0001) %MON forcing_fu_sd                =   1.3915714542440E-01
(PID.TID 0000.0001) %MON forcing_fu_del2              =   7.5771409403038E-05
(PID.TID 0000.0001) %MON forcing_fv_max               =   6.5495472649733E-01
(PID.TID 0000.0001) %MON forcing_fv_min               =  -7.1993692715963E-01
(PID.TID 0000.0001) %MON forcing_fv_mean              =   1.0407512366370E-02
(PID.TID 0000.0001) %MON forcing_fv_sd                =   1.1614647518589E-01
(PID.TID 0000.0001) %MON forcing_fv_del2              =   6.6258368299523E-05
(PID.TID 0000.0001) %MON trAdv_CFL_u_max              =   6.2019622798770E-02
(PID.TID 0000.0001) %MON trAdv_CFL_v_max              =   8.0437464602736E-02
(PID.TID 0000.0001) %MON trAdv_CFL_w_max              =   1.0789461452219E-01
(PID.TID 0000.0001) %MON advcfl_uvel_max              =   5.5248223310344E-02
(PID.TID 0000.0001) %MON advcfl_vvel_max              =   8.5801743168693E-02
(PID.TID 0000.0001) %MON advcfl_wvel_max              =   1.0482534483341E-01
(PID.TID 0000.0001) %MON advcfl_W_hf_max              =   1.0803245537185E-01
(PID.TID 0000.0001) %MON pe_b_mean                    =   2.3642546901730E-03
(PID.TID 0000.0001) %MON ke_max                       =   9.3596847243157E-01
(PID.TID 0000.0001) %MON ke_mean                      =   4.3697372892968E-04
(PID.TID 0000.0001) %MON ke_vol                       =   1.3350237199942E+18
(PID.TID 0000.0001) %MON vort_r_min                   =  -2.9094190994991E-05
(PID.TID 0000.0001) %MON vort_r_max                   =   2.7968969739450E-05
(PID.TID 0000.0001) %MON vort_a_mean                  =  -1.9727864647440E-05
(PID.TID 0000.0001) %MON vort_a_sd                    =   7.4543126194380E-05
(PID.TID 0000.0001) %MON vort_p_mean                  =  -2.1760098428217E-05
(PID.TID 0000.0001) %MON vort_p_sd                    =   9.7243513566186E-05
(PID.TID 0000.0001) %MON surfExpan_theta_mean         =   1.2213193920373E-07
(PID.TID 0000.0001) %MON surfExpan_salt_mean          =   4.6862662352725E-08
(PID.TID 0000.0001) // =======================================================
(PID.TID 0000.0001) // End MONITOR dynamic field statistics
(PID.TID 0000.0001) // =======================================================
(PID.TID 0000.0001)  ploadbar=  1.01131946399317E+05
(PID.TID 0000.0001) %SBO sbo_mass                     =   1.3737590761473E+21
(PID.TID 0000.0001) %SBO sbo_mass_fw                  =   4.6260776784004E+16
(PID.TID 0000.0001) %SBO sbo_zoamc                    =   1.2470295290629E+25
(PID.TID 0000.0001) %SBO sbo_zoamp                    =   2.9276623147209E+30
(PID.TID 0000.0001) // =======================================================
(PID.TID 0000.0001) // Begin MONITOR SEAICE statistics
(PID.TID 0000.0001) // =======================================================
(PID.TID 0000.0001) %MON seaice_tsnumber              =                  5256
(PID.TID 0000.0001) %MON seaice_time_sec              =   1.8921600000000E+07
(PID.TID 0000.0001) %MON seaice_uice_max              =   4.0000000000000E-01
(PID.TID 0000.0001) %MON seaice_uice_min              =  -4.0000000000000E-01
(PID.TID 0000.0001) %MON seaice_uice_mean             =   1.1624204925187E-02
(PID.TID 0000.0001) %MON seaice_uice_sd               =   1.8545821219504E-01
(PID.TID 0000.0001) %MON seaice_uice_del2             =   1.4277404872858E-04
(PID.TID 0000.0001) %MON seaice_vice_max              =   4.0000000000000E-01
(PID.TID 0000.0001) %MON seaice_vice_min              =  -4.0000000000000E-01
(PID.TID 0000.0001) %MON seaice_vice_mean             =   4.2771383126747E-03
(PID.TID 0000.0001) %MON seaice_vice_sd               =   1.8831582291326E-01
(PID.TID 0000.0001) %MON seaice_vice_del2             =   1.4758331030021E-04
(PID.TID 0000.0001) %MON seaice_area_max              =   9.7000000000000E-01
(PID.TID 0000.0001) %MON seaice_area_min              =   0.0000000000000E+00
(PID.TID 0000.0001) %MON seaice_area_mean             =   6.1777287979539E-02
(PID.TID 0000.0001) %MON seaice_area_sd               =   2.2106846536641E-01
(PID.TID 0000.0001) %MON seaice_area_del2             =   1.9419529214149E-04
(PID.TID 0000.0001) %MON seaice_heff_max              =   4.7483272614542E+00
(PID.TID 0000.0001) %MON seaice_heff_min              =   0.0000000000000E+00
(PID.TID 0000.0001) %MON seaice_heff_mean             =   5.7482567109360E-02
(PID.TID 0000.0001) %MON seaice_heff_sd               =   2.6989347086238E-01
(PID.TID 0000.0001) %MON seaice_heff_del2             =   2.4537326519771E-04
(PID.TID 0000.0001) %MON seaice_hsnow_max             =   1.5169640202792E+00
(PID.TID 0000.0001) %MON seaice_hsnow_min             =  -6.4469661824895E-05
(PID.TID 0000.0001) %MON seaice_hsnow_mean            =   7.9013352989351E-03
(PID.TID 0000.0001) %MON seaice_hsnow_sd              =   4.4333220341596E-02
(PID.TID 0000.0001) %MON seaice_hsnow_del2            =   4.7462752126617E-05
(PID.TID 0000.0001) // =======================================================
(PID.TID 0000.0001) // End MONITOR SEAICE statistics
(PID.TID 0000.0001) // =======================================================
(PID.TID 0000.0001) // =======================================================
(PID.TID 0000.0001) // Begin MONITOR EXF statistics
(PID.TID 0000.0001) // =======================================================
(PID.TID 0000.0001) %MON exf_tsnumber                 =                  5256
(PID.TID 0000.0001) %MON exf_time_sec                 =   1.8921600000000E+07
(PID.TID 0000.0001) %MON exf_ustress_max              =   1.0319605171680E+00
(PID.TID 0000.0001) %MON exf_ustress_min              =  -2.7365112886986E+00
(PID.TID 0000.0001) %MON exf_ustress_mean             =   1.6951254638928E-02
(PID.TID 0000.0001) %MON exf_ustress_sd               =   1.4141458613852E-01
(PID.TID 0000.0001) %MON exf_ustress_del2             =   9.5632318855146E-05
(PID.TID 0000.0001) %MON exf_vstress_max              =   9.8055192322097E-01
(PID.TID 0000.0001) %MON exf_vstress_min              =  -7.5642028450966E-01
(PID.TID 0000.0001) %MON exf_vstress_mean             =   1.0716276380661E-02
(PID.TID 0000.0001) %MON exf_vstress_sd               =   1.1676662501779E-01
(PID.TID 0000.0001) %MON exf_vstress_del2             =   8.9841285683955E-05
(PID.TID 0000.0001) %MON exf_hflux_max                =   1.3888896811922E+03
(PID.TID 0000.0001) %MON exf_hflux_min                =  -5.4045871527516E+02
(PID.TID 0000.0001) %MON exf_hflux_mean               =   5.5162350085572E+01
(PID.TID 0000.0001) %MON exf_hflux_sd                 =   1.9173708284207E+02
(PID.TID 0000.0001) %MON exf_hflux_del2               =   4.5512112437939E-01
(PID.TID 0000.0001) %MON exf_sflux_max                =   1.8331897016348E-07
(PID.TID 0000.0001) %MON exf_sflux_min                =  -1.7385806421547E-06
(PID.TID 0000.0001) %MON exf_sflux_mean               =  -1.3744665032716E-09
(PID.TID 0000.0001) %MON exf_sflux_sd                 =   8.4184487628688E-08
(PID.TID 0000.0001) %MON exf_sflux_del2               =   2.1763538657656E-10
(PID.TID 0000.0001) %MON exf_wspeed_max               =   2.5240690231323E+01
(PID.TID 0000.0001) %MON exf_wspeed_min               =   4.1723468899727E-01
(PID.TID 0000.0001) %MON exf_wspeed_mean              =   7.3858445083069E+00
(PID.TID 0000.0001) %MON exf_wspeed_sd                =   3.4528558720404E+00
(PID.TID 0000.0001) %MON exf_wspeed_del2              =   1.5688797995403E-02
(PID.TID 0000.0001) %MON exf_atemp_max                =   3.0868459548950E+02
(PID.TID 0000.0001) %MON exf_atemp_min                =   2.0404054107666E+02
(PID.TID 0000.0001) %MON exf_atemp_mean               =   2.8943417945940E+02
(PID.TID 0000.0001) %MON exf_atemp_sd                 =   1.1800198632299E+01
(PID.TID 0000.0001) %MON exf_atemp_del2               =   3.1553937984023E-02
(PID.TID 0000.0001) %MON exf_aqh_max                  =   2.6844160631299E-02
(PID.TID 0000.0001) %MON exf_aqh_min                  =  -8.8349646830466E-05
(PID.TID 0000.0001) %MON exf_aqh_mean                 =   1.0956839730891E-02
(PID.TID 0000.0001) %MON exf_aqh_sd                   =   5.6255708972185E-03
(PID.TID 0000.0001) %MON exf_aqh_del2                 =   1.8007236903365E-05
(PID.TID 0000.0001) %MON exf_lwflux_max               =   2.6851351692510E+02
(PID.TID 0000.0001) %MON exf_lwflux_min               =  -5.2036075755661E+01
(PID.TID 0000.0001) %MON exf_lwflux_mean              =   4.4600373791444E+01
(PID.TID 0000.0001) %MON exf_lwflux_sd                =   2.6967790912643E+01
(PID.TID 0000.0001) %MON exf_lwflux_del2              =   1.0577954554010E-01
(PID.TID 0000.0001) %MON exf_evap_max                 =   1.9061942886710E-07
(PID.TID 0000.0001) %MON exf_evap_min                 =  -3.8034463879002E-08
(PID.TID 0000.0001) %MON exf_evap_mean                =   4.4079479996680E-08
(PID.TID 0000.0001) %MON exf_evap_sd                  =   2.9102156511174E-08
(PID.TID 0000.0001) %MON exf_evap_del2                =   8.6272439604643E-11
(PID.TID 0000.0001) %MON exf_precip_max               =   1.6365848694022E-06
(PID.TID 0000.0001) %MON exf_precip_min               =  -2.5055840957577E-08
(PID.TID 0000.0001) %MON exf_precip_mean              =   4.1368785095349E-08
(PID.TID 0000.0001) %MON exf_precip_sd                =   7.0131753952796E-08
(PID.TID 0000.0001) %MON exf_precip_del2              =   2.0385063991535E-10
(PID.TID 0000.0001) %MON exf_swflux_max               =   5.0799459075928E+01
(PID.TID 0000.0001) %MON exf_swflux_min               =  -5.8765573282653E+02
(PID.TID 0000.0001) %MON exf_swflux_mean              =  -1.2678102726158E+02
(PID.TID 0000.0001) %MON exf_swflux_sd                =   1.4517331930600E+02
(PID.TID 0000.0001) %MON exf_swflux_del2              =   3.0110179802536E-01
(PID.TID 0000.0001) %MON exf_swdown_max               =   6.3462234497070E+02
(PID.TID 0000.0001) %MON exf_swdown_min               =  -7.2570655822754E+01
(PID.TID 0000.0001) %MON exf_swdown_mean              =   1.3780403391997E+02
(PID.TID 0000.0001) %MON exf_swdown_sd                =   1.5697225883198E+02
(PID.TID 0000.0001) %MON exf_swdown_del2              =   3.2748852018441E-01
(PID.TID 0000.0001) %MON exf_lwdown_max               =   4.9949020385742E+02
(PID.TID 0000.0001) %MON exf_lwdown_min               =   3.0470651626587E+01
(PID.TID 0000.0001) %MON exf_lwdown_mean              =   3.6524669911288E+02
(PID.TID 0000.0001) %MON exf_lwdown_sd                =   6.1816184845257E+01
(PID.TID 0000.0001) %MON exf_lwdown_del2              =   6.0730382230317E-01
(PID.TID 0000.0001) %MON exf_apressure_max            =   1.0336608984375E+05
(PID.TID 0000.0001) %MON exf_apressure_min            =   9.4059789062500E+04
(PID.TID 0000.0001) %MON exf_apressure_mean           =   1.0113189510002E+05
(PID.TID 0000.0001) %MON exf_apressure_sd             =   1.2305024627474E+03
(PID.TID 0000.0001) %MON exf_apressure_del2           =   1.7838961291709E+02
(PID.TID 0000.0001) %MON exf_runoff_max               =   1.7809814879353E-06
(PID.TID 0000.0001) %MON exf_runoff_min               =   0.0000000000000E+00
(PID.TID 0000.0001) %MON exf_runoff_mean              =   4.0851614046022E-09
(PID.TID 0000.0001) %MON exf_runoff_sd                =   2.7591373452955E-08
(PID.TID 0000.0001) %MON exf_runoff_del2              =   7.0574373227038E-11
(PID.TID 0000.0001) // =======================================================
(PID.TID 0000.0001) // End MONITOR EXF statistics
(PID.TID 0000.0001) // =======================================================
 cg2d: Sum(rhs),rhsMax =  -9.91522187890374E+01  1.43920011600386E+00
(PID.TID 0000.0001)  ploadbar=  1.01131895100022E+05
 cg2d: Sum(rhs),rhsMax =  -9.92476615407846E+01  1.43822538527071E+00
(PID.TID 0000.0001)  ploadbar=  1.01131843800727E+05
 cg2d: Sum(rhs),rhsMax =  -9.92881477705003E+01  1.43805064511016E+00
(PID.TID 0000.0001)  ploadbar=  1.01131792501432E+05
 cg2d: Sum(rhs),rhsMax =  -9.92542612374565E+01  1.43895572750323E+00
(PID.TID 0000.0001)  ploadbar=  1.01131741202136E+05
 cg2d: Sum(rhs),rhsMax =  -9.91612637880328E+01  1.44073846673623E+00
(PID.TID 0000.0001)  ploadbar=  1.01130139418654E+05
 cg2d: Sum(rhs),rhsMax =  -9.90351884941471E+01  1.44302438211707E+00
(PID.TID 0000.0001)  ploadbar=  1.01128537635172E+05
 cg2d: Sum(rhs),rhsMax =  -9.88849487503631E+01  1.44568987004549E+00
(PID.TID 0000.0001)  ploadbar=  1.01126935851689E+05
 cg2d: Sum(rhs),rhsMax =  -9.86987615488684E+01  1.44890971876405E+00
(PID.TID 0000.0001)  ploadbar=  1.01125334068207E+05
 cg2d: Sum(rhs),rhsMax =  -9.85688958161290E+01  1.45132955542465E+00
(PID.TID 0000.0001)  ploadbar=  1.01123732284725E+05
 cg2d: Sum(rhs),rhsMax =  -9.84409438061990E+01  1.45374292648524E+00
(PID.TID 0000.0001)  ploadbar=  1.01122130501242E+05
 cg2d: Sum(rhs),rhsMax =  -9.84692682153651E+01  1.45384283480144E+00
(PID.TID 0000.0001)  ploadbar=  1.01121029613314E+05
 cg2d: Sum(rhs),rhsMax =  -9.85601074241470E+01  1.45301119014236E+00
(PID.TID 0000.0001)  ploadbar=  1.01119928725386E+05
 cg2d: Sum(rhs),rhsMax =  -9.88132070382524E+01  1.44978552743403E+00
(PID.TID 0000.0001)  ploadbar=  1.01118827837458E+05
 cg2d: Sum(rhs),rhsMax =  -9.93076792472179E+01  1.44304914612646E+00
(PID.TID 0000.0001)  ploadbar=  1.01117726949529E+05
 cg2d: Sum(rhs),rhsMax =  -1.00007320102712E+02  1.43342051979450E+00
(PID.TID 0000.0001)  ploadbar=  1.01116626061601E+05
 cg2d: Sum(rhs),rhsMax =  -1.00962148148478E+02  1.42031589056890E+00
(PID.TID 0000.0001)  ploadbar=  1.01115525173673E+05
 cg2d: Sum(rhs),rhsMax =  -1.02143269870857E+02  1.40437286314331E+00
(PID.TID 0000.0001)  ploadbar=  1.01115631705394E+05
 cg2d: Sum(rhs),rhsMax =  -1.02397528699802E+02  1.40139736824822E+00
(PID.TID 0000.0001)  ploadbar=  1.01115738237116E+05
 cg2d: Sum(rhs),rhsMax =  -1.02653776522028E+02  1.39843937927365E+00
(PID.TID 0000.0001)  ploadbar=  1.01115844768837E+05
 cg2d: Sum(rhs),rhsMax =  -1.02855741530558E+02  1.39626090548015E+00
(PID.TID 0000.0001)  ploadbar=  1.01115951300559E+05
 cg2d: Sum(rhs),rhsMax =  -1.03003588406875E+02  1.39484748948488E+00
(PID.TID 0000.0001)  ploadbar=  1.01116057832280E+05
 cg2d: Sum(rhs),rhsMax =  -1.03069262213619E+02  1.39457567747794E+00
(PID.TID 0000.0001)  ploadbar=  1.01116164364002E+05
 cg2d: Sum(rhs),rhsMax =  -1.01087096601165E+02  1.42252368653336E+00
(PID.TID 0000.0001)  ploadbar=  1.01115389566454E+05
 cg2d: Sum(rhs),rhsMax =  -9.88697879696639E+01  1.45501452152478E+00
(PID.TID 0000.0001)  ploadbar=  1.01114614768906E+05
 cg2d: Sum(rhs),rhsMax =  -9.67162818479493E+01  1.48798631653563E+00
(PID.TID 0000.0001)  ploadbar=  1.01113839971358E+05
 cg2d: Sum(rhs),rhsMax =  -9.46177301773234E+01  1.52154907750906E+00
(PID.TID 0000.0001)  ploadbar=  1.01113065173811E+05
 cg2d: Sum(rhs),rhsMax =  -9.25807296088216E+01  1.55557210829343E+00
(PID.TID 0000.0001)  ploadbar=  1.01112290376263E+05
 cg2d: Sum(rhs),rhsMax =  -9.06207105796360E+01  1.58974454079613E+00
(PID.TID 0000.0001)  ploadbar=  1.01111515578715E+05
 cg2d: Sum(rhs),rhsMax =  -8.88825377042917E+01  1.62135332824629E+00
(PID.TID 0000.0001)  ploadbar=  1.01108974090806E+05
 cg2d: Sum(rhs),rhsMax =  -8.73410977825382E+01  1.65047942460986E+00
(PID.TID 0000.0001)  ploadbar=  1.01106432602897E+05
 cg2d: Sum(rhs),rhsMax =  -8.60436545026502E+01  1.67586722814934E+00
(PID.TID 0000.0001)  ploadbar=  1.01103891114988E+05
 cg2d: Sum(rhs),rhsMax =  -8.50020268176630E+01  1.69689025192538E+00
(PID.TID 0000.0001)  ploadbar=  1.01101349627078E+05
 cg2d: Sum(rhs),rhsMax =  -8.41979862793077E+01  1.71356599211244E+00
(PID.TID 0000.0001)  ploadbar=  1.01098808139169E+05
 cg2d: Sum(rhs),rhsMax =  -8.36069130824420E+01  1.72613586785573E+00
(PID.TID 0000.0001)  ploadbar=  1.01096266651260E+05
 cg2d: Sum(rhs),rhsMax =  -8.31908476759658E+01  1.73520583266817E+00
(PID.TID 0000.0001)  ploadbar=  1.01095620154618E+05
 cg2d: Sum(rhs),rhsMax =  -8.28330724635467E+01  1.74311978082054E+00
(PID.TID 0000.0001)  ploadbar=  1.01094973657977E+05
 cg2d: Sum(rhs),rhsMax =  -8.26358145042117E+01  1.74767934796643E+00
(PID.TID 0000.0001)  ploadbar=  1.01094327161335E+05
 cg2d: Sum(rhs),rhsMax =  -8.28992997542002E+01  1.74249807950100E+00
(PID.TID 0000.0001)  ploadbar=  1.01093680664694E+05
 cg2d: Sum(rhs),rhsMax =  -8.35952886197071E+01  1.72834045266433E+00
(PID.TID 0000.0001)  ploadbar=  1.01093034168053E+05
 cg2d: Sum(rhs),rhsMax =  -8.44268839588087E+01  1.71164157988644E+00
(PID.TID 0000.0001)  ploadbar=  1.01092387671411E+05
 cg2d: Sum(rhs),rhsMax =  -8.51589852915798E+01  1.69728226812088E+00
(PID.TID 0000.0001)  ploadbar=  1.01092094903227E+05
 cg2d: Sum(rhs),rhsMax =  -8.57892909602909E+01  1.68519698462915E+00
(PID.TID 0000.0001)  ploadbar=  1.01091802135042E+05
 cg2d: Sum(rhs),rhsMax =  -8.64021341831605E+01  1.67365567953254E+00
(PID.TID 0000.0001)  ploadbar=  1.01091509366858E+05
 cg2d: Sum(rhs),rhsMax =  -8.70191340705347E+01  1.66222607841186E+00
(PID.TID 0000.0001)  ploadbar=  1.01091216598673E+05
 cg2d: Sum(rhs),rhsMax =  -8.76241651827342E+01  1.65121188199787E+00
(PID.TID 0000.0001)  ploadbar=  1.01090923830488E+05
 cg2d: Sum(rhs),rhsMax =  -8.82810011005198E+01  1.63941640552773E+00
(PID.TID 0000.0001)  ploadbar=  1.01090631062304E+05
 cg2d: Sum(rhs),rhsMax =  -8.88502410159127E+01  1.62940139178373E+00
(PID.TID 0000.0001)  ploadbar=  1.01090944913479E+05
 cg2d: Sum(rhs),rhsMax =  -8.93651710241482E+01  1.62050006565321E+00
(PID.TID 0000.0001)  ploadbar=  1.01091258764654E+05
 cg2d: Sum(rhs),rhsMax =  -8.78404159632396E+01  1.64912854286570E+00
(PID.TID 0000.0001)  ploadbar=  1.01091572615829E+05
 cg2d: Sum(rhs),rhsMax =  -8.31958181206625E+01  1.74172591234571E+00
(PID.TID 0000.0001)  ploadbar=  1.01091886467004E+05
 cg2d: Sum(rhs),rhsMax =  -7.90885379872520E+01  1.83274262957953E+00
(PID.TID 0000.0001)  ploadbar=  1.01092200318178E+05
 cg2d: Sum(rhs),rhsMax =  -7.54357496693817E+01  1.92208553277244E+00
(PID.TID 0000.0001)  ploadbar=  1.01092514169353E+05
 cg2d: Sum(rhs),rhsMax =  -7.22379785090249E+01  2.00777117942836E+00
(PID.TID 0000.0001)  ploadbar=  1.01093438465448E+05
 cg2d: Sum(rhs),rhsMax =  -6.93635320091229E+01  2.09157616698956E+00
(PID.TID 0000.0001)  ploadbar=  1.01094362761542E+05
 cg2d: Sum(rhs),rhsMax =  -6.67584084208179E+01  2.17380256215822E+00
(PID.TID 0000.0001)  ploadbar=  1.01095287057636E+05
 cg2d: Sum(rhs),rhsMax =  -6.43979636410545E+01  2.25409237330955E+00
(PID.TID 0000.0001)  ploadbar=  1.01096211353731E+05
 cg2d: Sum(rhs),rhsMax =  -6.22552904879769E+01  2.33228951109578E+00
(PID.TID 0000.0001)  ploadbar=  1.01097135649825E+05
 cg2d: Sum(rhs),rhsMax =  -6.03060537371742E+01  2.40829981669439E+00
(PID.TID 0000.0001)  ploadbar=  1.01098059945919E+05
 cg2d: Sum(rhs),rhsMax =  -5.84920235827374E+01  2.48359749209966E+00
(PID.TID 0000.0001)  ploadbar=  1.01098351515064E+05
 cg2d: Sum(rhs),rhsMax =  -5.69543111614146E+01  2.55123948554486E+00
(PID.TID 0000.0001)  ploadbar=  1.01098643084209E+05
 cg2d: Sum(rhs),rhsMax =  -5.61191067564613E+01  2.58976484483804E+00
(PID.TID 0000.0001)  ploadbar=  1.01098934653353E+05
 cg2d: Sum(rhs),rhsMax =  -5.53673133911069E+01  2.62545466222944E+00
(PID.TID 0000.0001)  ploadbar=  1.01099226222498E+05
 cg2d: Sum(rhs),rhsMax =  -5.49468442168950E+01  2.64603483178841E+00
(PID.TID 0000.0001)  ploadbar=  1.01099517791643E+05
 cg2d: Sum(rhs),rhsMax =  -5.44640632468721E+01  2.66994189384065E+00
(PID.TID 0000.0001)  ploadbar=  1.01099809360788E+05
 cg2d: Sum(rhs),rhsMax =  -5.47154333319077E+01  2.65815672418628E+00
(PID.TID 0000.0001)  ploadbar=  1.01101259925560E+05
 cg2d: Sum(rhs),rhsMax =  -5.57997531676593E+01  2.60700558510771E+00
(PID.TID 0000.0001)  ploadbar=  1.01102710490332E+05
 cg2d: Sum(rhs),rhsMax =  -5.71814334384364E+01  2.54453136445959E+00
(PID.TID 0000.0001)  ploadbar=  1.01104161055104E+05
 cg2d: Sum(rhs),rhsMax =  -5.84899729639018E+01  2.48814168352588E+00
(PID.TID 0000.0001)  ploadbar=  1.01105611619876E+05
 cg2d: Sum(rhs),rhsMax =  -5.96538169709504E+01  2.44015397636050E+00
(PID.TID 0000.0001)  ploadbar=  1.01107062184648E+05
 cg2d: Sum(rhs),rhsMax =  -6.06237384547347E+01  2.40169153398328E+00
(PID.TID 0000.0001)  ploadbar=  1.01108512749420E+05
 cg2d: Sum(rhs),rhsMax =  -6.15405023328833E+01  2.36648094988500E+00
(PID.TID 0000.0001)  ploadbar=  1.01109768735207E+05
 cg2d: Sum(rhs),rhsMax =  -6.23572134344630E+01  2.33604700233239E+00
(PID.TID 0000.0001)  ploadbar=  1.01111024720993E+05
 cg2d: Sum(rhs),rhsMax =  -6.31530098346025E+01  2.30716545766129E+00
(PID.TID 0000.0001)  ploadbar=  1.01112280706780E+05
 cg2d: Sum(rhs),rhsMax =  -6.39496473175695E+01  2.27897282921971E+00
(PID.TID 0000.0001)  ploadbar=  1.01113536692567E+05
 cg2d: Sum(rhs),rhsMax =  -6.47540479414820E+01  2.25120300643908E+00
(PID.TID 0000.0001)  ploadbar=  1.01114792678353E+05
 cg2d: Sum(rhs),rhsMax =  -6.55603512838679E+01  2.22404964718858E+00
(PID.TID 0000.0001)  ploadbar=  1.01116048664140E+05
 cg2d: Sum(rhs),rhsMax =  -6.63017512535055E+01  2.19967576171648E+00
(PID.TID 0000.0001)  ploadbar=  1.01116859153577E+05
 cg2d: Sum(rhs),rhsMax =  -6.70799032111593E+01  2.17461865156969E+00
(PID.TID 0000.0001)  ploadbar=  1.01117669643014E+05
 cg2d: Sum(rhs),rhsMax =  -6.79054756535993E+01  2.14860621195329E+00
(PID.TID 0000.0001)  ploadbar=  1.01118480132452E+05
 cg2d: Sum(rhs),rhsMax =  -6.87628366438221E+01  2.12221011438815E+00
(PID.TID 0000.0001)  ploadbar=  1.01119290621889E+05
 cg2d: Sum(rhs),rhsMax =  -6.96627550896430E+01  2.09515566944054E+00
(PID.TID 0000.0001)  ploadbar=  1.01120101111327E+05
 cg2d: Sum(rhs),rhsMax =  -7.06251916658964E+01  2.06693337945277E+00
(PID.TID 0000.0001)  ploadbar=  1.01120911600764E+05
 cg2d: Sum(rhs),rhsMax =  -7.16451627330848E+01  2.03781519567038E+00
(PID.TID 0000.0001)  ploadbar=  1.01120763087388E+05
 cg2d: Sum(rhs),rhsMax =  -7.26822247666746E+01  2.00902432764833E+00
(PID.TID 0000.0001)  ploadbar=  1.01120614574011E+05
 cg2d: Sum(rhs),rhsMax =  -7.37351760309011E+01  1.98059989390184E+00
(PID.TID 0000.0001)  ploadbar=  1.01120466060635E+05
 cg2d: Sum(rhs),rhsMax =  -7.48074100506599E+01  1.95245649302405E+00
(PID.TID 0000.0001)  ploadbar=  1.01120317547259E+05
 cg2d: Sum(rhs),rhsMax =  -7.59097908176837E+01  1.92432962281046E+00
(PID.TID 0000.0001)  ploadbar=  1.01120169033883E+05
 cg2d: Sum(rhs),rhsMax =  -7.70408070726593E+01  1.89628931853294E+00
(PID.TID 0000.0001)  ploadbar=  1.01120020520507E+05
 cg2d: Sum(rhs),rhsMax =  -7.81708199000975E+01  1.86911479313725E+00
(PID.TID 0000.0001)  ploadbar=  1.01119273452753E+05
 cg2d: Sum(rhs),rhsMax =  -7.92484959419127E+01  1.84396105230772E+00
(PID.TID 0000.0001)  ploadbar=  1.01118526384999E+05
 cg2d: Sum(rhs),rhsMax =  -8.02804548176309E+01  1.82054640152251E+00
(PID.TID 0000.0001)  ploadbar=  1.01117779317245E+05
 cg2d: Sum(rhs),rhsMax =  -8.12563902707102E+01  1.79899435690142E+00
(PID.TID 0000.0001)  ploadbar=  1.01117032249491E+05
 cg2d: Sum(rhs),rhsMax =  -8.21865170446977E+01  1.77897420816496E+00
(PID.TID 0000.0001)  ploadbar=  1.01116285181738E+05
 cg2d: Sum(rhs),rhsMax =  -8.31547214161609E+01  1.75862396056953E+00
(PID.TID 0000.0001)  ploadbar=  1.01115538113984E+05
 cg2d: Sum(rhs),rhsMax =  -8.41936565032513E+01  1.73727534762506E+00
(PID.TID 0000.0001)  ploadbar=  1.01114754430325E+05
 cg2d: Sum(rhs),rhsMax =  -8.53643955310564E+01  1.71379054469710E+00
(PID.TID 0000.0001)  ploadbar=  1.01113970746667E+05
 cg2d: Sum(rhs),rhsMax =  -8.66681645784711E+01  1.68833921389421E+00
(PID.TID 0000.0001)  ploadbar=  1.01113187063008E+05
 cg2d: Sum(rhs),rhsMax =  -8.81505456775315E+01  1.66026415110045E+00
(PID.TID 0000.0001)  ploadbar=  1.01112403379349E+05
 cg2d: Sum(rhs),rhsMax =  -8.98300942017327E+01  1.62952554200258E+00
(PID.TID 0000.0001)  ploadbar=  1.01111619695690E+05
 cg2d: Sum(rhs),rhsMax =  -9.17129159423336E+01  1.59636101940364E+00
(PID.TID 0000.0001)  ploadbar=  1.01110836012032E+05
 cg2d: Sum(rhs),rhsMax =  -9.06648519863576E+01  1.61510326618929E+00
(PID.TID 0000.0001)  ploadbar=  1.01110563258609E+05
 cg2d: Sum(rhs),rhsMax =  -8.93861600399165E+01  1.63849379679594E+00
(PID.TID 0000.0001)  ploadbar=  1.01110290505186E+05
 cg2d: Sum(rhs),rhsMax =  -8.76879088142361E+01  1.67050998905148E+00
(PID.TID 0000.0001)  ploadbar=  1.01110017751763E+05
 cg2d: Sum(rhs),rhsMax =  -8.60160466736018E+01  1.70325956417036E+00
(PID.TID 0000.0001)  ploadbar=  1.01109744998340E+05
 cg2d: Sum(rhs),rhsMax =  -8.46266811184210E+01  1.73150008155095E+00
(PID.TID 0000.0001)  ploadbar=  1.01109472244918E+05
 cg2d: Sum(rhs),rhsMax =  -8.34633339884640E+01  1.75590599534824E+00
(PID.TID 0000.0001)  ploadbar=  1.01109199491495E+05
 cg2d: Sum(rhs),rhsMax =  -8.27156933799181E+01  1.77202429958617E+00
(PID.TID 0000.0001)  ploadbar=  1.01108824908469E+05
 cg2d: Sum(rhs),rhsMax =  -8.22447524605879E+01  1.78239328390636E+00
(PID.TID 0000.0001)  ploadbar=  1.01108450325444E+05
 cg2d: Sum(rhs),rhsMax =  -8.20179541622004E+01  1.78751774399831E+00
(PID.TID 0000.0001)  ploadbar=  1.01108075742418E+05
 cg2d: Sum(rhs),rhsMax =  -8.20362295102160E+01  1.78728853317421E+00
(PID.TID 0000.0001)  ploadbar=  1.01107701159393E+05
 cg2d: Sum(rhs),rhsMax =  -8.24511937395395E+01  1.77843483348060E+00
(PID.TID 0000.0001)  ploadbar=  1.01107326576367E+05
 cg2d: Sum(rhs),rhsMax =  -8.30707154966154E+01  1.76528504580266E+00
(PID.TID 0000.0001)  ploadbar=  1.01106951993342E+05
 cg2d: Sum(rhs),rhsMax =  -8.36741217288319E+01  1.75271050276471E+00
(PID.TID 0000.0001)  ploadbar=  1.01106225207313E+05
 cg2d: Sum(rhs),rhsMax =  -8.42115278584432E+01  1.74171991176363E+00
(PID.TID 0000.0001)  ploadbar=  1.01105498421284E+05
 cg2d: Sum(rhs),rhsMax =  -8.46539377735253E+01  1.73284826800476E+00
(PID.TID 0000.0001)  ploadbar=  1.01104771635255E+05
 cg2d: Sum(rhs),rhsMax =  -8.50089762043988E+01  1.72587842187305E+00
(PID.TID 0000.0001)  ploadbar=  1.01104044849226E+05
 cg2d: Sum(rhs),rhsMax =  -8.53082242650274E+01  1.72012698164281E+00
(PID.TID 0000.0001)  ploadbar=  1.01103318063196E+05
 cg2d: Sum(rhs),rhsMax =  -8.55825517465620E+01  1.71495025038827E+00
(PID.TID 0000.0001)  ploadbar=  1.01102591277167E+05
 cg2d: Sum(rhs),rhsMax =  -8.57316431659019E+01  1.71232350983122E+00
(PID.TID 0000.0001)  ploadbar=  1.01101547041665E+05
 cg2d: Sum(rhs),rhsMax =  -8.58704285224159E+01  1.70992955684529E+00
(PID.TID 0000.0001)  ploadbar=  1.01100502806163E+05
 cg2d: Sum(rhs),rhsMax =  -8.60115077936156E+01  1.70751586392206E+00
(PID.TID 0000.0001)  ploadbar=  1.01099458570662E+05
 cg2d: Sum(rhs),rhsMax =  -8.61535837832851E+01  1.70510800368542E+00
(PID.TID 0000.0001)  ploadbar=  1.01098414335160E+05
 cg2d: Sum(rhs),rhsMax =  -8.62988364659847E+01  1.70266095672716E+00
(PID.TID 0000.0001)  ploadbar=  1.01097370099658E+05
 cg2d: Sum(rhs),rhsMax =  -8.64439289830479E+01  1.70023949725790E+00
(PID.TID 0000.0001)  ploadbar=  1.01096325864156E+05
 cg2d: Sum(rhs),rhsMax =  -8.65216443534827E+01  1.69914781104261E+00
(PID.TID 0000.0001)  ploadbar=  1.01095046381119E+05
 cg2d: Sum(rhs),rhsMax =  -8.65917135128301E+01  1.69820502106900E+00
(PID.TID 0000.0001)  ploadbar=  1.01093766898082E+05
 cg2d: Sum(rhs),rhsMax =  -8.66601438260725E+01  1.69729204745355E+00
(PID.TID 0000.0001)  ploadbar=  1.01092487415045E+05
 cg2d: Sum(rhs),rhsMax =  -8.67331308658496E+01  1.69628680179009E+00
(PID.TID 0000.0001)  ploadbar=  1.01091207932008E+05
 cg2d: Sum(rhs),rhsMax =  -8.68090879404380E+01  1.69521943940875E+00
(PID.TID 0000.0001)  ploadbar=  1.01089928448971E+05
 cg2d: Sum(rhs),rhsMax =  -8.68898129106602E+01  1.69405274782079E+00
(PID.TID 0000.0001)  ploadbar=  1.01088648965934E+05
 cg2d: Sum(rhs),rhsMax =  -8.69989565946898E+01  1.69231395995850E+00
(PID.TID 0000.0001)  ploadbar=  1.01088571149636E+05
 cg2d: Sum(rhs),rhsMax =  -8.71158113221337E+01  1.69040796415924E+00
(PID.TID 0000.0001)  ploadbar=  1.01088493333337E+05
 cg2d: Sum(rhs),rhsMax =  -8.72354561310123E+01  1.68843086622091E+00
(PID.TID 0000.0001)  ploadbar=  1.01088415517039E+05
 cg2d: Sum(rhs),rhsMax =  -8.73686622465166E+01  1.68617479119268E+00
(PID.TID 0000.0001)  ploadbar=  1.01088337700741E+05
 cg2d: Sum(rhs),rhsMax =  -8.75121532719149E+01  1.68370387691655E+00
(PID.TID 0000.0001)  ploadbar=  1.01088259884443E+05
 cg2d: Sum(rhs),rhsMax =  -8.76614979454788E+01  1.68110377053731E+00
(PID.TID 0000.0001)  ploadbar=  1.01088182068144E+05
 cg2d: Sum(rhs),rhsMax =  -8.78148675604501E+01  1.67846664061361E+00
(PID.TID 0000.0001)  ploadbar=  1.01088241489251E+05
 cg2d: Sum(rhs),rhsMax =  -8.79695771003524E+01  1.67584260674062E+00
(PID.TID 0000.0001)  ploadbar=  1.01088300910357E+05
 cg2d: Sum(rhs),rhsMax =  -8.81152749684535E+01  1.67342637414404E+00
(PID.TID 0000.0001)  ploadbar=  1.01088360331464E+05
 cg2d: Sum(rhs),rhsMax =  -8.82574420780881E+01  1.67111265277823E+00
(PID.TID 0000.0001)  ploadbar=  1.01088419752571E+05
 cg2d: Sum(rhs),rhsMax =  -8.83988960522804E+01  1.66884674331978E+00
(PID.TID 0000.0001)  ploadbar=  1.01088479173677E+05
 cg2d: Sum(rhs),rhsMax =  -8.85370891379167E+01  1.66667436673421E+00
(PID.TID 0000.0001)  ploadbar=  1.01088538594784E+05
 cg2d: Sum(rhs),rhsMax =  -8.87516652775940E+01  1.66307526284894E+00
(PID.TID 0000.0001)  ploadbar=  1.01089080724852E+05
 cg2d: Sum(rhs),rhsMax =  -8.89739964886660E+01  1.65934650147764E+00
(PID.TID 0000.0001)  ploadbar=  1.01089622854921E+05
 cg2d: Sum(rhs),rhsMax =  -8.86455424379300E+01  1.66592078990842E+00
(PID.TID 0000.0001)  ploadbar=  1.01090164984989E+05
 cg2d: Sum(rhs),rhsMax =  -8.79331826398140E+01  1.67984349829840E+00
(PID.TID 0000.0001)  ploadbar=  1.01090707115058E+05
 cg2d: Sum(rhs),rhsMax =  -8.71065713889446E+01  1.69621141909364E+00
(PID.TID 0000.0001)  ploadbar=  1.01091249245126E+05
 cg2d: Sum(rhs),rhsMax =  -8.62159509264305E+01  1.71415922082553E+00
(PID.TID 0000.0001)  ploadbar=  1.01091791375195E+05
 cg2d: Sum(rhs),rhsMax =  -8.52929463810969E+01  1.73314015693061E+00
(PID.TID 0000.0001)  ploadbar=  1.01091781302136E+05
 cg2d: Sum(rhs),rhsMax =  -8.43996552037974E+01  1.75191877310462E+00
(PID.TID 0000.0001)  ploadbar=  1.01091771229076E+05
 cg2d: Sum(rhs),rhsMax =  -8.35890255521687E+01  1.76934538751414E+00
(PID.TID 0000.0001)  ploadbar=  1.01091761156017E+05
 cg2d: Sum(rhs),rhsMax =  -8.28682485641020E+01  1.78517291969590E+00
(PID.TID 0000.0001)  ploadbar=  1.01091751082958E+05
 cg2d: Sum(rhs),rhsMax =  -8.22456077784158E+01  1.79912608919379E+00
(PID.TID 0000.0001)  ploadbar=  1.01091741009899E+05
 cg2d: Sum(rhs),rhsMax =  -8.17270004427730E+01  1.81098081116548E+00
(PID.TID 0000.0001)  ploadbar=  1.01091730936839E+05
 cg2d: Sum(rhs),rhsMax =  -8.12998930843582E+01  1.82090666836954E+00
(PID.TID 0000.0001)  ploadbar=  1.01092689713016E+05
 cg2d: Sum(rhs),rhsMax =  -8.09434422223454E+01  1.82930866743245E+00
(PID.TID 0000.0001)  ploadbar=  1.01093648489192E+05
 cg2d: Sum(rhs),rhsMax =  -8.06727230467172E+01  1.83580060935686E+00
(PID.TID 0000.0001)  ploadbar=  1.01094607265368E+05
 cg2d: Sum(rhs),rhsMax =  -8.04795446758359E+01  1.84052987786739E+00
(PID.TID 0000.0001)  ploadbar=  1.01095566041544E+05
 cg2d: Sum(rhs),rhsMax =  -8.03698100586169E+01  1.84333399429271E+00
(PID.TID 0000.0001)  ploadbar=  1.01096524817720E+05
 cg2d: Sum(rhs),rhsMax =  -8.03555197006129E+01  1.84391867337267E+00
(PID.TID 0000.0001)  ploadbar=  1.01097483593896E+05
 cg2d: Sum(rhs),rhsMax =  -8.04608754297578E+01  1.84180178885385E+00
(PID.TID 0000.0001)  ploadbar=  1.01098727031442E+05
 cg2d: Sum(rhs),rhsMax =  -8.06100828236555E+01  1.83872986850821E+00
(PID.TID 0000.0001)  ploadbar=  1.01099970468988E+05
 cg2d: Sum(rhs),rhsMax =  -8.07680627351147E+01  1.83550832336674E+00
(PID.TID 0000.0001)  ploadbar=  1.01101213906534E+05
 cg2d: Sum(rhs),rhsMax =  -8.09167377123822E+01  1.83254735567438E+00
(PID.TID 0000.0001)  ploadbar=  1.01102457344080E+05
 cg2d: Sum(rhs),rhsMax =  -8.10373893516146E+01  1.83026582547068E+00
(PID.TID 0000.0001)  ploadbar=  1.01103700781625E+05
 cg2d: Sum(rhs),rhsMax =  -8.11210113191375E+01  1.82885893522601E+00
(PID.TID 0000.0001)  ploadbar=  1.01104944219171E+05
 cg2d: Sum(rhs),rhsMax =  -8.12105141750667E+01  1.82729185729591E+00
(PID.TID 0000.0001)  ploadbar=  1.01106371992370E+05
 cg2d: Sum(rhs),rhsMax =  -8.12718022600001E+01  1.82633067783869E+00
(PID.TID 0000.0001)  ploadbar=  1.01107799765568E+05
 cg2d: Sum(rhs),rhsMax =  -8.12706159821014E+01  1.82674232044864E+00
(PID.TID 0000.0001)  ploadbar=  1.01109227538767E+05
 cg2d: Sum(rhs),rhsMax =  -8.12437753728733E+01  1.82769934681434E+00
(PID.TID 0000.0001)  ploadbar=  1.01110655311966E+05
 cg2d: Sum(rhs),rhsMax =  -8.12509035613171E+01  1.82786075373645E+00
(PID.TID 0000.0001)  ploadbar=  1.01112083085164E+05
 cg2d: Sum(rhs),rhsMax =  -8.13307356450338E+01  1.82635590340075E+00
(PID.TID 0000.0001)  ploadbar=  1.01113510858363E+05
 cg2d: Sum(rhs),rhsMax =  -8.14506136538205E+01  1.82394279034848E+00
(PID.TID 0000.0001)  ploadbar=  1.01113500372485E+05
 cg2d: Sum(rhs),rhsMax =  -8.16318063858729E+01  1.82015312536982E+00
(PID.TID 0000.0001)  ploadbar=  1.01113489886606E+05
 cg2d: Sum(rhs),rhsMax =  -8.18276880739918E+01  1.81603772818856E+00
(PID.TID 0000.0001)  ploadbar=  1.01113479400728E+05
 cg2d: Sum(rhs),rhsMax =  -8.20420684251174E+01  1.81151676099080E+00
(PID.TID 0000.0001)  ploadbar=  1.01113468914850E+05
 cg2d: Sum(rhs),rhsMax =  -8.22851202067391E+01  1.80637342847181E+00
(PID.TID 0000.0001)  ploadbar=  1.01113458428971E+05
 cg2d: Sum(rhs),rhsMax =  -8.25673357661879E+01  1.80039061207028E+00
(PID.TID 0000.0001)  ploadbar=  1.01113447943093E+05
 cg2d: Sum(rhs),rhsMax =  -8.28364548426906E+01  1.79468984411808E+00
(PID.TID 0000.0001)  ploadbar=  1.01114071051591E+05
 cg2d: Sum(rhs),rhsMax =  -8.31193244452743E+01  1.78868503488035E+00
(PID.TID 0000.0001)  ploadbar=  1.01114694160089E+05
 cg2d: Sum(rhs),rhsMax =  -8.33854289043099E+01  1.78303349090574E+00
(PID.TID 0000.0001)  ploadbar=  1.01115317268587E+05
 cg2d: Sum(rhs),rhsMax =  -8.36157700760852E+01  1.77813228177790E+00
(PID.TID 0000.0001)  ploadbar=  1.01115940377085E+05
 cg2d: Sum(rhs),rhsMax =  -8.38129013624409E+01  1.77391420120580E+00
(PID.TID 0000.0001)  ploadbar=  1.01116563485582E+05
 cg2d: Sum(rhs),rhsMax =  -8.39819269076166E+01  1.77026026670401E+00
(PID.TID 0000.0001)  ploadbar=  1.01117186594080E+05
 cg2d: Sum(rhs),rhsMax =  -8.40656630750397E+01  1.76845788907415E+00
(PID.TID 0000.0001)  ploadbar=  1.01117215551341E+05
 cg2d: Sum(rhs),rhsMax =  -8.41278973621262E+01  1.76715614294001E+00
(PID.TID 0000.0001)  ploadbar=  1.01117244508601E+05
 cg2d: Sum(rhs),rhsMax =  -8.41808666242949E+01  1.76609351533273E+00
(PID.TID 0000.0001)  ploadbar=  1.01117273465861E+05
 cg2d: Sum(rhs),rhsMax =  -8.42168767218683E+01  1.76543028034064E+00
(PID.TID 0000.0001)  ploadbar=  1.01117302423121E+05
 cg2d: Sum(rhs),rhsMax =  -8.42529060721350E+01  1.76480909909168E+00
(PID.TID 0000.0001)  ploadbar=  1.01117331380381E+05
 cg2d: Sum(rhs),rhsMax =  -8.42962663477514E+01  1.76407523983666E+00
(PID.TID 0000.0001)  ploadbar=  1.01117360337641E+05
 cg2d: Sum(rhs),rhsMax =  -8.43466788287506E+01  1.76320286722461E+00
(PID.TID 0000.0001)  ploadbar=  1.01117235124061E+05
 cg2d: Sum(rhs),rhsMax =  -8.44050073096666E+01  1.76217316414000E+00
(PID.TID 0000.0001)  ploadbar=  1.01117109910481E+05
 cg2d: Sum(rhs),rhsMax =  -8.44998364840121E+01  1.76039201393363E+00
(PID.TID 0000.0001)  ploadbar=  1.01116984696900E+05
 cg2d: Sum(rhs),rhsMax =  -8.46312691108675E+01  1.75786165756230E+00
(PID.TID 0000.0001)  ploadbar=  1.01116859483320E+05
 cg2d: Sum(rhs),rhsMax =  -8.47916450519907E+01  1.75474696535417E+00
(PID.TID 0000.0001)  ploadbar=  1.01116734269740E+05
 cg2d: Sum(rhs),rhsMax =  -8.49714180496998E+01  1.75125178042353E+00
(PID.TID 0000.0001)  ploadbar=  1.01116609056159E+05
 cg2d: Sum(rhs),rhsMax =  -8.51747044518559E+01  1.74726808101530E+00
(PID.TID 0000.0001)  ploadbar=  1.01117238484868E+05
 cg2d: Sum(rhs),rhsMax =  -8.53830862283198E+01  1.74317708949935E+00
(PID.TID 0000.0001)  ploadbar=  1.01117867913577E+05
 cg2d: Sum(rhs),rhsMax =  -8.55915537122470E+01  1.73908142816569E+00
(PID.TID 0000.0001)  ploadbar=  1.01118497342285E+05
 cg2d: Sum(rhs),rhsMax =  -8.58030438650255E+01  1.73492111133273E+00
(PID.TID 0000.0001)  ploadbar=  1.01119126770994E+05
 cg2d: Sum(rhs),rhsMax =  -8.60150980409583E+01  1.73074586656638E+00
(PID.TID 0000.0001)  ploadbar=  1.01119756199703E+05
 cg2d: Sum(rhs),rhsMax =  -8.62295171523010E+01  1.72651914521523E+00
(PID.TID 0000.0001)  ploadbar=  1.01120385628411E+05
 cg2d: Sum(rhs),rhsMax =  -8.64975578959665E+01  1.72120692148428E+00
(PID.TID 0000.0001)  ploadbar=  1.01120580682073E+05
 cg2d: Sum(rhs),rhsMax =  -8.67976694258923E+01  1.71525406598029E+00
(PID.TID 0000.0001)  ploadbar=  1.01120775735734E+05
 cg2d: Sum(rhs),rhsMax =  -8.71169372278317E+01  1.70892660798082E+00
(PID.TID 0000.0001)  ploadbar=  1.01120970789396E+05
 cg2d: Sum(rhs),rhsMax =  -8.74741289634096E+01  1.70186502933981E+00
(PID.TID 0000.0001)  ploadbar=  1.01121165843058E+05
 cg2d: Sum(rhs),rhsMax =  -8.77380766611648E+01  1.69662115764511E+00
(PID.TID 0000.0001)  ploadbar=  1.01121360896719E+05
 cg2d: Sum(rhs),rhsMax =  -8.80300418468868E+01  1.69082998520191E+00
(PID.TID 0000.0001)  ploadbar=  1.01121555950381E+05
 cg2d: Sum(rhs),rhsMax =  -8.83421407228333E+01  1.68474919853192E+00
(PID.TID 0000.0001)  ploadbar=  1.01122426002277E+05
 cg2d: Sum(rhs),rhsMax =  -8.86895417756301E+01  1.67809703695152E+00
(PID.TID 0000.0001)  ploadbar=  1.01123296054173E+05
 cg2d: Sum(rhs),rhsMax =  -8.92976208744028E+01  1.66666873044720E+00
(PID.TID 0000.0001)  ploadbar=  1.01124166106069E+05
 cg2d: Sum(rhs),rhsMax =  -9.01590513253130E+01  1.65079135386537E+00
(PID.TID 0000.0001)  ploadbar=  1.01125036157965E+05
 cg2d: Sum(rhs),rhsMax =  -9.10986495933546E+01  1.63385816620682E+00
(PID.TID 0000.0001)  ploadbar=  1.01125906209861E+05
 cg2d: Sum(rhs),rhsMax =  -9.10534770629287E+01  1.63480595723797E+00
(PID.TID 0000.0001)  ploadbar=  1.01126776261757E+05
 cg2d: Sum(rhs),rhsMax =  -9.04752992602375E+01  1.64539188809250E+00
(PID.TID 0000.0001)  ploadbar=  1.01127016550739E+05
 cg2d: Sum(rhs),rhsMax =  -8.95620344989740E+01  1.66230848554976E+00
(PID.TID 0000.0001)  ploadbar=  1.01127256839722E+05
 cg2d: Sum(rhs),rhsMax =  -8.85590217762879E+01  1.68127044589968E+00
(PID.TID 0000.0001)  ploadbar=  1.01127497128705E+05
 cg2d: Sum(rhs),rhsMax =  -8.79747085891781E+01  1.69256787280870E+00
(PID.TID 0000.0001)  ploadbar=  1.01127737417687E+05
 cg2d: Sum(rhs),rhsMax =  -8.75137129071547E+01  1.70160761591481E+00
(PID.TID 0000.0001)  ploadbar=  1.01127977706670E+05
 cg2d: Sum(rhs),rhsMax =  -8.69353570294429E+01  1.71304222334472E+00
(PID.TID 0000.0001)  ploadbar=  1.01128217995653E+05
 cg2d: Sum(rhs),rhsMax =  -8.62932870212086E+01  1.72589848736483E+00
(PID.TID 0000.0001)  ploadbar=  1.01129111338904E+05
 cg2d: Sum(rhs),rhsMax =  -8.55451763315999E+01  1.74109371392201E+00
(PID.TID 0000.0001)  ploadbar=  1.01130004682154E+05
 cg2d: Sum(rhs),rhsMax =  -8.47618862679302E+01  1.75727456468482E+00
(PID.TID 0000.0001)  ploadbar=  1.01130898025405E+05
 cg2d: Sum(rhs),rhsMax =  -8.39180506473528E+01  1.77502297488389E+00
(PID.TID 0000.0001)  ploadbar=  1.01131791368656E+05
 cg2d: Sum(rhs),rhsMax =  -8.30038915923855E+01  1.79463469654639E+00
(PID.TID 0000.0001)  ploadbar=  1.01132684711906E+05
 cg2d: Sum(rhs),rhsMax =  -8.20216716785944E+01  1.81616856163798E+00
(PID.TID 0000.0001)  ploadbar=  1.01133578055157E+05
 cg2d: Sum(rhs),rhsMax =  -8.10051478900800E+01  1.83899089839992E+00
(PID.TID 0000.0001)  ploadbar=  1.01133917683186E+05
 cg2d: Sum(rhs),rhsMax =  -7.99609398783232E+01  1.86302483981748E+00
(PID.TID 0000.0001)  ploadbar=  1.01134257311215E+05
 cg2d: Sum(rhs),rhsMax =  -7.89248662771593E+01  1.88748666794364E+00
(PID.TID 0000.0001)  ploadbar=  1.01134596939244E+05
 cg2d: Sum(rhs),rhsMax =  -7.79110963413247E+01  1.91203588488067E+00
(PID.TID 0000.0001)  ploadbar=  1.01134936567273E+05
 cg2d: Sum(rhs),rhsMax =  -7.69231407973053E+01  1.93656432486306E+00
(PID.TID 0000.0001)  ploadbar=  1.01135276195303E+05
 cg2d: Sum(rhs),rhsMax =  -7.59650890183928E+01  1.96093839032240E+00
(PID.TID 0000.0001)  ploadbar=  1.01135615823332E+05
 cg2d: Sum(rhs),rhsMax =  -7.50890352796609E+01  1.98382469462864E+00
(PID.TID 0000.0001)  ploadbar=  1.01135670021773E+05
 cg2d: Sum(rhs),rhsMax =  -7.42548218381537E+01  2.00617844075125E+00
(PID.TID 0000.0001)  ploadbar=  1.01135724220214E+05
 cg2d: Sum(rhs),rhsMax =  -7.34626443402109E+01  2.02793358964559E+00
(PID.TID 0000.0001)  ploadbar=  1.01135778418655E+05
 cg2d: Sum(rhs),rhsMax =  -7.27102007223992E+01  2.04909668810238E+00
(PID.TID 0000.0001)  ploadbar=  1.01135832617097E+05
 cg2d: Sum(rhs),rhsMax =  -7.19950395328799E+01  2.06967944086388E+00
(PID.TID 0000.0001)  ploadbar=  1.01135886815538E+05
 cg2d: Sum(rhs),rhsMax =  -7.13128773287023E+01  2.08975054568596E+00
(PID.TID 0000.0001)  ploadbar=  1.01135941013979E+05
 cg2d: Sum(rhs),rhsMax =  -7.06706366469674E+01  2.10902734387537E+00
(PID.TID 0000.0001)  ploadbar=  1.01136390705072E+05
 cg2d: Sum(rhs),rhsMax =  -7.00749952776450E+01  2.12725629967961E+00
(PID.TID 0000.0001)  ploadbar=  1.01136840396164E+05
 cg2d: Sum(rhs),rhsMax =  -6.95220778281063E+01  2.14449082628202E+00
(PID.TID 0000.0001)  ploadbar=  1.01137290087257E+05
 cg2d: Sum(rhs),rhsMax =  -6.90143436256140E+01  2.16059631782587E+00
(PID.TID 0000.0001)  ploadbar=  1.01137739778350E+05
 cg2d: Sum(rhs),rhsMax =  -6.85550304328993E+01  2.17540917987257E+00
(PID.TID 0000.0001)  ploadbar=  1.01138189469442E+05
 cg2d: Sum(rhs),rhsMax =  -6.81398237830204E+01  2.18900742296121E+00
(PID.TID 0000.0001)  ploadbar=  1.01138639160535E+05
 cg2d: Sum(rhs),rhsMax =  -6.77742380958593E+01  2.20117981648382E+00
(PID.TID 0000.0001)  ploadbar=  1.01139397625948E+05
 cg2d: Sum(rhs),rhsMax =  -6.74503895172887E+01  2.21213060301185E+00
(PID.TID 0000.0001)  ploadbar=  1.01140156091360E+05
 cg2d: Sum(rhs),rhsMax =  -6.71676850709056E+01  2.22183802068949E+00
(PID.TID 0000.0001)  ploadbar=  1.01140914556773E+05
 cg2d: Sum(rhs),rhsMax =  -6.69265869219890E+01  2.23024898192645E+00
(PID.TID 0000.0001)  ploadbar=  1.01141673022186E+05
 cg2d: Sum(rhs),rhsMax =  -6.67386978552991E+01  2.23694135587547E+00
(PID.TID 0000.0001)  ploadbar=  1.01142431487599E+05
 cg2d: Sum(rhs),rhsMax =  -6.66136401779261E+01  2.24155988601987E+00
(PID.TID 0000.0001)  ploadbar=  1.01143189953012E+05
 cg2d: Sum(rhs),rhsMax =  -6.65622972436446E+01  2.24367474229365E+00
(PID.TID 0000.0001)  ploadbar=  1.01143993198870E+05
 cg2d: Sum(rhs),rhsMax =  -6.65997051540683E+01  2.24276525924028E+00
(PID.TID 0000.0001)  ploadbar=  1.01144796444728E+05
 cg2d: Sum(rhs),rhsMax =  -6.66891821944648E+01  2.24007066682381E+00
(PID.TID 0000.0001)  ploadbar=  1.01145599690587E+05
 cg2d: Sum(rhs),rhsMax =  -6.69852058113767E+01  2.23044705352651E+00
(PID.TID 0000.0001)  ploadbar=  1.01146402936445E+05
 cg2d: Sum(rhs),rhsMax =  -6.72945999042391E+01  2.22042753978580E+00
(PID.TID 0000.0001)  ploadbar=  1.01147206182303E+05
 cg2d: Sum(rhs),rhsMax =  -6.76277791847841E+01  2.20968181910244E+00
(PID.TID 0000.0001)  ploadbar=  1.01148009428162E+05
 cg2d: Sum(rhs),rhsMax =  -6.80189654195038E+01  2.19723506389565E+00
(PID.TID 0000.0001)  ploadbar=  1.01148513389695E+05
 cg2d: Sum(rhs),rhsMax =  -6.84304598204194E+01  2.18434949806423E+00
(PID.TID 0000.0001)  ploadbar=  1.01149017351229E+05
 cg2d: Sum(rhs),rhsMax =  -6.88287625103380E+01  2.17209986607872E+00
(PID.TID 0000.0001)  ploadbar=  1.01149521312763E+05
 cg2d: Sum(rhs),rhsMax =  -6.92051743277998E+01  2.16073696310552E+00
(PID.TID 0000.0001)  ploadbar=  1.01150025274296E+05
 cg2d: Sum(rhs),rhsMax =  -6.95431184185408E+01  2.15074481098175E+00
(PID.TID 0000.0001)  ploadbar=  1.01150529235830E+05
 cg2d: Sum(rhs),rhsMax =  -6.98244730022825E+01  2.14263539585539E+00
(PID.TID 0000.0001)  ploadbar=  1.01151033197364E+05
 cg2d: Sum(rhs),rhsMax =  -7.00656612199761E+01  2.13578534594450E+00
(PID.TID 0000.0001)  ploadbar=  1.01151484518587E+05
 cg2d: Sum(rhs),rhsMax =  -7.02714253843145E+01  2.13002705066725E+00
(PID.TID 0000.0001)  ploadbar=  1.01151935839811E+05
 cg2d: Sum(rhs),rhsMax =  -7.04412479672423E+01  2.12535726622998E+00
(PID.TID 0000.0001)  ploadbar=  1.01152387161035E+05
 cg2d: Sum(rhs),rhsMax =  -7.05841373647750E+01  2.12148707514973E+00
(PID.TID 0000.0001)  ploadbar=  1.01152838482259E+05
 cg2d: Sum(rhs),rhsMax =  -7.07100455752666E+01  2.11810849310279E+00
(PID.TID 0000.0001)  ploadbar=  1.01153289803483E+05
 cg2d: Sum(rhs),rhsMax =  -7.08578511977045E+01  2.11405218000317E+00
(PID.TID 0000.0001)  ploadbar=  1.01153741124707E+05
 cg2d: Sum(rhs),rhsMax =  -7.10115371346191E+01  2.10984103807942E+00
(PID.TID 0000.0001)  ploadbar=  1.01153199309754E+05
 cg2d: Sum(rhs),rhsMax =  -7.12006602270353E+01  2.10459367652614E+00
(PID.TID 0000.0001)  ploadbar=  1.01152657494800E+05
 cg2d: Sum(rhs),rhsMax =  -7.13991049811533E+01  2.09908909391919E+00
(PID.TID 0000.0001)  ploadbar=  1.01152115679847E+05
 cg2d: Sum(rhs),rhsMax =  -7.16068121538151E+01  2.09333215709201E+00
(PID.TID 0000.0001)  ploadbar=  1.01151573864894E+05
 cg2d: Sum(rhs),rhsMax =  -7.18287712087723E+01  2.08718397618212E+00
(PID.TID 0000.0001)  ploadbar=  1.01151032049941E+05
 cg2d: Sum(rhs),rhsMax =  -7.20615943775385E+01  2.08074782504594E+00
(PID.TID 0000.0001)  ploadbar=  1.01150490234988E+05
 cg2d: Sum(rhs),rhsMax =  -7.22419834664356E+01  2.07583205347012E+00
(PID.TID 0000.0001)  ploadbar=  1.01149999913864E+05
 cg2d: Sum(rhs),rhsMax =  -7.24204314199649E+01  2.07097214810691E+00
(PID.TID 0000.0001)  ploadbar=  1.01149509592741E+05
 cg2d: Sum(rhs),rhsMax =  -7.25829276687932E+01  2.06656413249695E+00
(PID.TID 0000.0001)  ploadbar=  1.01149019271617E+05
 cg2d: Sum(rhs),rhsMax =  -7.27295552783076E+01  2.06260070303989E+00
(PID.TID 0000.0001)  ploadbar=  1.01148528950494E+05
 cg2d: Sum(rhs),rhsMax =  -7.28636424502906E+01  2.05898287198985E+00
(PID.TID 0000.0001)  ploadbar=  1.01148038629371E+05
 cg2d: Sum(rhs),rhsMax =  -7.29833560233908E+01  2.05575634652849E+00
(PID.TID 0000.0001)  ploadbar=  1.01147548308247E+05
 cg2d: Sum(rhs),rhsMax =  -7.30962104822982E+01  2.05278657682548E+00
(PID.TID 0000.0001)  ploadbar=  1.01145919657923E+05
 cg2d: Sum(rhs),rhsMax =  -7.31973596978335E+01  2.05020759629978E+00
(PID.TID 0000.0001)  ploadbar=  1.01144291007599E+05
 cg2d: Sum(rhs),rhsMax =  -7.32876261613044E+01  2.04799304500383E+00
(PID.TID 0000.0001)  ploadbar=  1.01142662357274E+05
 cg2d: Sum(rhs),rhsMax =  -7.33560731412740E+01  2.04644202960305E+00
(PID.TID 0000.0001)  ploadbar=  1.01141033706950E+05
 cg2d: Sum(rhs),rhsMax =  -7.33953864607969E+01  2.04575333310907E+00
(PID.TID 0000.0001)  ploadbar=  1.01139405056626E+05
 cg2d: Sum(rhs),rhsMax =  -7.33966766800355E+01  2.04616949919117E+00
(PID.TID 0000.0001)  ploadbar=  1.01137776406302E+05
 cg2d: Sum(rhs),rhsMax =  -7.32982357220477E+01  2.04937527615718E+00
(PID.TID 0000.0001)  ploadbar=  1.01137418553499E+05
 cg2d: Sum(rhs),rhsMax =  -7.31349580147191E+01  2.05441113731447E+00
(PID.TID 0000.0001)  ploadbar=  1.01137060700696E+05
 cg2d: Sum(rhs),rhsMax =  -7.29620754504711E+01  2.05973601263128E+00
(PID.TID 0000.0001)  ploadbar=  1.01136702847893E+05
 cg2d: Sum(rhs),rhsMax =  -7.28539543438085E+01  2.06324395148176E+00
(PID.TID 0000.0001)  ploadbar=  1.01136344995090E+05
 cg2d: Sum(rhs),rhsMax =  -7.28692170168100E+01  2.06325357136725E+00
(PID.TID 0000.0001)  ploadbar=  1.01135987142287E+05
 cg2d: Sum(rhs),rhsMax =  -7.30594655076237E+01  2.05830873237529E+00
(PID.TID 0000.0001)  ploadbar=  1.01135629289485E+05
 cg2d: Sum(rhs),rhsMax =  -7.34684749194284E+01  2.04727540147467E+00
(PID.TID 0000.0001)  ploadbar=  1.01135994913539E+05
 cg2d: Sum(rhs),rhsMax =  -7.41157714909460E+01  2.02981099977625E+00
(PID.TID 0000.0001)  ploadbar=  1.01136360537594E+05
 cg2d: Sum(rhs),rhsMax =  -7.51397039783613E+01  2.00255085945867E+00
(PID.TID 0000.0001)  ploadbar=  1.01136726161649E+05
 cg2d: Sum(rhs),rhsMax =  -7.65366695152965E+01  1.96638042345299E+00
(PID.TID 0000.0001)  ploadbar=  1.01137091785704E+05
 cg2d: Sum(rhs),rhsMax =  -7.78922800428407E+01  1.93251987490635E+00
(PID.TID 0000.0001)  ploadbar=  1.01137457409758E+05
 cg2d: Sum(rhs),rhsMax =  -7.81912512115398E+01  1.92547484699224E+00
(PID.TID 0000.0001)  ploadbar=  1.01137823033813E+05
 cg2d: Sum(rhs),rhsMax =  -7.78994007166825E+01  1.93299900009728E+00
(PID.TID 0000.0001)  ploadbar=  1.01137450092094E+05
 cg2d: Sum(rhs),rhsMax =  -7.78826366795412E+01  1.93368904115376E+00
(PID.TID 0000.0001)  ploadbar=  1.01137077150376E+05
 cg2d: Sum(rhs),rhsMax =  -7.79685261526946E+01  1.93179380411820E+00
(PID.TID 0000.0001)  ploadbar=  1.01136704208657E+05
 cg2d: Sum(rhs),rhsMax =  -7.80096536592701E+01  1.93097021515801E+00
(PID.TID 0000.0001)  ploadbar=  1.01136331266938E+05
 cg2d: Sum(rhs),rhsMax =  -7.78947579423907E+01  1.93397150418778E+00
(PID.TID 0000.0001)  ploadbar=  1.01135958325220E+05
 cg2d: Sum(rhs),rhsMax =  -7.76012843774481E+01  1.94139443533809E+00
(PID.TID 0000.0001)  ploadbar=  1.01135585383501E+05
 cg2d: Sum(rhs),rhsMax =  -7.72428632049086E+01  1.95056400924579E+00
(PID.TID 0000.0001)  ploadbar=  1.01136728475578E+05
 cg2d: Sum(rhs),rhsMax =  -7.68275774093135E+01  1.96132043643533E+00
(PID.TID 0000.0001)  ploadbar=  1.01137871567656E+05
 cg2d: Sum(rhs),rhsMax =  -7.63414222554785E+01  1.97407230691408E+00
(PID.TID 0000.0001)  ploadbar=  1.01139014659733E+05
 cg2d: Sum(rhs),rhsMax =  -7.57833232315262E+01  1.98891805987863E+00
(PID.TID 0000.0001)  ploadbar=  1.01140157751810E+05
 cg2d: Sum(rhs),rhsMax =  -7.51442113176773E+01  2.00618384217005E+00
(PID.TID 0000.0001)  ploadbar=  1.01141300843887E+05
 cg2d: Sum(rhs),rhsMax =  -7.44219437482935E+01  2.02604074892326E+00
(PID.TID 0000.0001)  ploadbar=  1.01142443935965E+05
 cg2d: Sum(rhs),rhsMax =  -7.37211966350003E+01  2.04568582071478E+00
(PID.TID 0000.0001)  ploadbar=  1.01143023462397E+05
 cg2d: Sum(rhs),rhsMax =  -7.30364773535379E+01  2.06524630514736E+00
(PID.TID 0000.0001)  ploadbar=  1.01143602988828E+05
 cg2d: Sum(rhs),rhsMax =  -7.23973910359967E+01  2.08385270306826E+00
(PID.TID 0000.0001)  ploadbar=  1.01144182515260E+05
 cg2d: Sum(rhs),rhsMax =  -7.18390463734279E+01  2.10041640610138E+00
(PID.TID 0000.0001)  ploadbar=  1.01144762041692E+05
 cg2d: Sum(rhs),rhsMax =  -7.13791983574957E+01  2.11430482574052E+00
(PID.TID 0000.0001)  ploadbar=  1.01145341568124E+05
 cg2d: Sum(rhs),rhsMax =  -7.10205794884603E+01  2.12532305189570E+00
(PID.TID 0000.0001)  ploadbar=  1.01145921094556E+05
 cg2d: Sum(rhs),rhsMax =  -7.08108222714539E+01  2.13196611735675E+00
(PID.TID 0000.0001)  ploadbar=  1.01145889334464E+05
 cg2d: Sum(rhs),rhsMax =  -7.06976309261679E+01  2.13572844851627E+00
(PID.TID 0000.0001)  ploadbar=  1.01145857574372E+05
 cg2d: Sum(rhs),rhsMax =  -7.06623861273392E+01  2.13714045148968E+00
(PID.TID 0000.0001)  ploadbar=  1.01145825814280E+05
 cg2d: Sum(rhs),rhsMax =  -7.07146931039416E+01  2.13590337036373E+00
(PID.TID 0000.0001)  ploadbar=  1.01145794054189E+05
 cg2d: Sum(rhs),rhsMax =  -7.08606829048019E+01  2.13184199950153E+00
(PID.TID 0000.0001)  ploadbar=  1.01145762294097E+05
 cg2d: Sum(rhs),rhsMax =  -7.11008214364435E+01  2.12497549660285E+00
(PID.TID 0000.0001)  ploadbar=  1.01145730534005E+05
 cg2d: Sum(rhs),rhsMax =  -7.14012790013595E+01  2.11633317454347E+00
(PID.TID 0000.0001)  ploadbar=  1.01145561120909E+05
 cg2d: Sum(rhs),rhsMax =  -7.17827119663608E+01  2.10535010587934E+00
(PID.TID 0000.0001)  ploadbar=  1.01145391707813E+05
 cg2d: Sum(rhs),rhsMax =  -7.23107659977213E+01  2.09019989470465E+00
(PID.TID 0000.0001)  ploadbar=  1.01145222294717E+05
 cg2d: Sum(rhs),rhsMax =  -7.29212647233781E+01  2.07288559868916E+00
(PID.TID 0000.0001)  ploadbar=  1.01145052881621E+05
 cg2d: Sum(rhs),rhsMax =  -7.35187160943116E+01  2.05618631947044E+00
(PID.TID 0000.0001)  ploadbar=  1.01144883468525E+05
 cg2d: Sum(rhs),rhsMax =  -7.41368560732516E+01  2.03914923359724E+00
(PID.TID 0000.0001)  ploadbar=  1.01144714055429E+05
 cg2d: Sum(rhs),rhsMax =  -7.47594564572167E+01  2.02230928260810E+00
(PID.TID 0000.0001)  ploadbar=  1.01144665561879E+05
 cg2d: Sum(rhs),rhsMax =  -7.53714945346355E+01  2.00606303435237E+00
(PID.TID 0000.0001)  ploadbar=  1.01144617068329E+05
 cg2d: Sum(rhs),rhsMax =  -7.59579728758176E+01  1.99078093366248E+00
(PID.TID 0000.0001)  ploadbar=  1.01144568574779E+05
 cg2d: Sum(rhs),rhsMax =  -7.65200355135572E+01  1.97639470882787E+00
(PID.TID 0000.0001)  ploadbar=  1.01144520081229E+05
 cg2d: Sum(rhs),rhsMax =  -7.70542539547097E+01  1.96295524587153E+00
(PID.TID 0000.0001)  ploadbar=  1.01144471587679E+05
 cg2d: Sum(rhs),rhsMax =  -7.75558831177532E+01  1.95054449599964E+00
(PID.TID 0000.0001)  ploadbar=  1.01144423094129E+05
 cg2d: Sum(rhs),rhsMax =  -7.80086040830229E+01  1.93950405504869E+00
(PID.TID 0000.0001)  ploadbar=  1.01145121478031E+05
 cg2d: Sum(rhs),rhsMax =  -7.84374035948501E+01  1.92917633477024E+00
(PID.TID 0000.0001)  ploadbar=  1.01145819861933E+05
 cg2d: Sum(rhs),rhsMax =  -7.88489786215317E+01  1.91937737606674E+00
(PID.TID 0000.0001)  ploadbar=  1.01146518245834E+05
 cg2d: Sum(rhs),rhsMax =  -7.92463378159482E+01  1.91001857713293E+00
(PID.TID 0000.0001)  ploadbar=  1.01147216629736E+05
 cg2d: Sum(rhs),rhsMax =  -7.96335001431374E+01  1.90099087609956E+00
(PID.TID 0000.0001)  ploadbar=  1.01147915013638E+05
 cg2d: Sum(rhs),rhsMax =  -8.00123872586285E+01  1.89223757239354E+00
(PID.TID 0000.0001)  ploadbar=  1.01148613397540E+05
 cg2d: Sum(rhs),rhsMax =  -8.03527798533939E+01  1.88446336670146E+00
(PID.TID 0000.0001)  ploadbar=  1.01148922860656E+05
 cg2d: Sum(rhs),rhsMax =  -8.06708901662840E+01  1.87726556489122E+00
(PID.TID 0000.0001)  ploadbar=  1.01149232323773E+05
 cg2d: Sum(rhs),rhsMax =  -8.09701581137578E+01  1.87055109990081E+00
(PID.TID 0000.0001)  ploadbar=  1.01149541786889E+05
 cg2d: Sum(rhs),rhsMax =  -8.12415157974517E+01  1.86451597488802E+00
(PID.TID 0000.0001)  ploadbar=  1.01149851250006E+05
 cg2d: Sum(rhs),rhsMax =  -8.14813251286223E+01  1.85922826396154E+00
(PID.TID 0000.0001)  ploadbar=  1.01150160713123E+05
 cg2d: Sum(rhs),rhsMax =  -8.16885526513118E+01  1.85469751733067E+00
(PID.TID 0000.0001)  ploadbar=  1.01150470176239E+05
 cg2d: Sum(rhs),rhsMax =  -8.18837082603293E+01  1.85044146389018E+00
(PID.TID 0000.0001)  ploadbar=  1.01150490389784E+05
 cg2d: Sum(rhs),rhsMax =  -8.20552452059623E+01  1.84671435360331E+00
(PID.TID 0000.0001)  ploadbar=  1.01150510603329E+05
 cg2d: Sum(rhs),rhsMax =  -8.22144320298636E+01  1.84325510579655E+00
(PID.TID 0000.0001)  ploadbar=  1.01150530816874E+05
 cg2d: Sum(rhs),rhsMax =  -8.23688376191466E+01  1.83989021522498E+00
(PID.TID 0000.0001)  ploadbar=  1.01150551030418E+05
 cg2d: Sum(rhs),rhsMax =  -8.25172270128388E+01  1.83664470301614E+00
(PID.TID 0000.0001)  ploadbar=  1.01150571243963E+05
 cg2d: Sum(rhs),rhsMax =  -8.26601899705758E+01  1.83350379520653E+00
(PID.TID 0000.0001)  ploadbar=  1.01150591457508E+05
 cg2d: Sum(rhs),rhsMax =  -8.27967153649651E+01  1.83057154920651E+00
(PID.TID 0000.0001)  ploadbar=  1.01149268762012E+05
 cg2d: Sum(rhs),rhsMax =  -8.29173698780612E+01  1.82805278226503E+00
(PID.TID 0000.0001)  ploadbar=  1.01147946066516E+05
 cg2d: Sum(rhs),rhsMax =  -8.30472935120870E+01  1.82538825971269E+00
(PID.TID 0000.0001)  ploadbar=  1.01146623371020E+05
 cg2d: Sum(rhs),rhsMax =  -8.32029074356097E+01  1.82221955146711E+00
(PID.TID 0000.0001)  ploadbar=  1.01145300675525E+05
 cg2d: Sum(rhs),rhsMax =  -8.33970015414513E+01  1.81827196325502E+00
(PID.TID 0000.0001)  ploadbar=  1.01143977980029E+05
 cg2d: Sum(rhs),rhsMax =  -8.36390418564032E+01  1.81334788101705E+00
(PID.TID 0000.0001)  ploadbar=  1.01142655284533E+05
 cg2d: Sum(rhs),rhsMax =  -8.39114990515219E+01  1.80777233377453E+00
(PID.TID 0000.0001)  ploadbar=  1.01142442587971E+05
 cg2d: Sum(rhs),rhsMax =  -8.42169053855126E+01  1.80149916410932E+00
(PID.TID 0000.0001)  ploadbar=  1.01142229891410E+05
 cg2d: Sum(rhs),rhsMax =  -8.45456360840254E+01  1.79474915117663E+00
(PID.TID 0000.0001)  ploadbar=  1.01142017194849E+05
 cg2d: Sum(rhs),rhsMax =  -8.48889188239620E+01  1.78771753458323E+00
(PID.TID 0000.0001)  ploadbar=  1.01141804498287E+05
 cg2d: Sum(rhs),rhsMax =  -8.52447731983738E+01  1.78045255154725E+00
(PID.TID 0000.0001)  ploadbar=  1.01141591801726E+05
 cg2d: Sum(rhs),rhsMax =  -8.56145500184147E+01  1.77293037157338E+00
(PID.TID 0000.0001)  ploadbar=  1.01141379105164E+05
 cg2d: Sum(rhs),rhsMax =  -8.60128739130718E+01  1.76489195795739E+00
(PID.TID 0000.0001)  ploadbar=  1.01141591447631E+05
 cg2d: Sum(rhs),rhsMax =  -8.64448513672800E+01  1.75624929461397E+00
(PID.TID 0000.0001)  ploadbar=  1.01141803790098E+05
 cg2d: Sum(rhs),rhsMax =  -8.69105434536867E+01  1.74702154430657E+00
(PID.TID 0000.0001)  ploadbar=  1.01142016132565E+05
 cg2d: Sum(rhs),rhsMax =  -8.74130664749156E+01  1.73716644722973E+00
(PID.TID 0000.0001)  ploadbar=  1.01142228475032E+05
 cg2d: Sum(rhs),rhsMax =  -8.79542208736124E+01  1.72666929632526E+00
(PID.TID 0000.0001)  ploadbar=  1.01142440817499E+05
 cg2d: Sum(rhs),rhsMax =  -8.85365511005459E+01  1.71550566227475E+00
(PID.TID 0000.0001)  ploadbar=  1.01142653159966E+05
 cg2d: Sum(rhs),rhsMax =  -8.91961351279465E+01  1.70299369712557E+00
(PID.TID 0000.0001)  ploadbar=  1.01141987421076E+05
 cg2d: Sum(rhs),rhsMax =  -8.99122491086064E+01  1.68958273937595E+00
(PID.TID 0000.0001)  ploadbar=  1.01141321682186E+05
 cg2d: Sum(rhs),rhsMax =  -9.06691427477878E+01  1.67560678502345E+00
(PID.TID 0000.0001)  ploadbar=  1.01140655943296E+05
 cg2d: Sum(rhs),rhsMax =  -9.14778974995579E+01  1.66089745878733E+00
(PID.TID 0000.0001)  ploadbar=  1.01139990204406E+05
 cg2d: Sum(rhs),rhsMax =  -9.23492432863899E+01  1.64530707253012E+00
(PID.TID 0000.0001)  ploadbar=  1.01139324465516E+05
 cg2d: Sum(rhs),rhsMax =  -9.32876271718051E+01  1.62881334447686E+00
(PID.TID 0000.0001)  ploadbar=  1.01138658726626E+05
 cg2d: Sum(rhs),rhsMax =  -9.44085630044536E+01  1.60959140839190E+00
(PID.TID 0000.0001)  ploadbar=  1.01138459479690E+05
 cg2d: Sum(rhs),rhsMax =  -9.58825845329997E+01  1.58502023009814E+00
(PID.TID 0000.0001)  ploadbar=  1.01138260232754E+05
 cg2d: Sum(rhs),rhsMax =  -9.77919651367314E+01  1.55429822374351E+00
(PID.TID 0000.0001)  ploadbar=  1.01138060985818E+05
 cg2d: Sum(rhs),rhsMax =  -1.00162732350841E+02  1.51778173146171E+00
(PID.TID 0000.0001)  ploadbar=  1.01137861738883E+05
 cg2d: Sum(rhs),rhsMax =  -1.03003720424596E+02  1.47622946143980E+00
(PID.TID 0000.0001)  ploadbar=  1.01137662491947E+05
 cg2d: Sum(rhs),rhsMax =  -1.06283944484521E+02  1.43101096594704E+00
(PID.TID 0000.0001)  ploadbar=  1.01137463245011E+05
 cg2d: Sum(rhs),rhsMax =  -1.09263227013056E+02  1.39231202428543E+00
(PID.TID 0000.0001)  ploadbar=  1.01136119218212E+05
 cg2d: Sum(rhs),rhsMax =  -1.08659177393721E+02  1.40035873843633E+00
(PID.TID 0000.0001)  ploadbar=  1.01134775191413E+05
 cg2d: Sum(rhs),rhsMax =  -1.08106306925276E+02  1.40781206578743E+00
(PID.TID 0000.0001)  ploadbar=  1.01133431164614E+05
 cg2d: Sum(rhs),rhsMax =  -1.07621082489406E+02  1.41443466571623E+00
(PID.TID 0000.0001)  ploadbar=  1.01132087137815E+05
 cg2d: Sum(rhs),rhsMax =  -1.07206601959646E+02  1.42015924683469E+00
(PID.TID 0000.0001)  ploadbar=  1.01130743111016E+05
 cg2d: Sum(rhs),rhsMax =  -1.06843186556829E+02  1.42522623227765E+00
(PID.TID 0000.0001)  ploadbar=  1.01129399084216E+05
 cg2d: Sum(rhs),rhsMax =  -1.06486790473426E+02  1.43022321535249E+00
(PID.TID 0000.0001)  ploadbar=  1.01128819848227E+05
 cg2d: Sum(rhs),rhsMax =  -1.06070043683956E+02  1.43605874590434E+00
(PID.TID 0000.0001)  ploadbar=  1.01128240612238E+05
 cg2d: Sum(rhs),rhsMax =  -1.05571086139031E+02  1.44305135249262E+00
(PID.TID 0000.0001)  ploadbar=  1.01127661376249E+05
 cg2d: Sum(rhs),rhsMax =  -1.05007424514038E+02  1.45099144749314E+00
(PID.TID 0000.0001)  ploadbar=  1.01127082140260E+05
 cg2d: Sum(rhs),rhsMax =  -1.04397117885743E+02  1.45965496912974E+00
(PID.TID 0000.0001)  ploadbar=  1.01126502904271E+05
 cg2d: Sum(rhs),rhsMax =  -1.03775928393399E+02  1.46855867446978E+00
(PID.TID 0000.0001)  ploadbar=  1.01125923668282E+05
 cg2d: Sum(rhs),rhsMax =  -1.03150167393949E+02  1.47762465643925E+00
(PID.TID 0000.0001)  ploadbar=  1.01125500023168E+05
 cg2d: Sum(rhs),rhsMax =  -1.02566317106668E+02  1.48618141761818E+00
(PID.TID 0000.0001)  ploadbar=  1.01125076378054E+05
 cg2d: Sum(rhs),rhsMax =  -1.02015521449489E+02  1.49433793895173E+00
(PID.TID 0000.0001)  ploadbar=  1.01124652732940E+05
 cg2d: Sum(rhs),rhsMax =  -1.01485560453668E+02  1.50225830707653E+00
(PID.TID 0000.0001)  ploadbar=  1.01124229087826E+05
 cg2d: Sum(rhs),rhsMax =  -1.00968894162227E+02  1.51004575208639E+00
(PID.TID 0000.0001)  ploadbar=  1.01123805442712E+05
 cg2d: Sum(rhs),rhsMax =  -1.00470451076985E+02  1.51761875215760E+00
(PID.TID 0000.0001)  ploadbar=  1.01123381797597E+05
 cg2d: Sum(rhs),rhsMax =  -9.99400382242392E+01  1.52579327980652E+00
(PID.TID 0000.0001)  ploadbar=  1.01122370209204E+05
 cg2d: Sum(rhs),rhsMax =  -9.93801352314952E+01  1.53454716582389E+00
(PID.TID 0000.0001)  ploadbar=  1.01121358620811E+05
 cg2d: Sum(rhs),rhsMax =  -9.87641169415602E+01  1.54431293133838E+00
(PID.TID 0000.0001)  ploadbar=  1.01120347032418E+05
 cg2d: Sum(rhs),rhsMax =  -9.80879829331198E+01  1.55518931317784E+00
(PID.TID 0000.0001)  ploadbar=  1.01119335444026E+05
 cg2d: Sum(rhs),rhsMax =  -9.74004809497972E+01  1.56643419995039E+00
(PID.TID 0000.0001)  ploadbar=  1.01118323855633E+05
 cg2d: Sum(rhs),rhsMax =  -9.67295443682271E+01  1.57759798681445E+00
(PID.TID 0000.0001)  ploadbar=  1.01117312267240E+05
 cg2d: Sum(rhs),rhsMax =  -9.61417544207663E+01  1.58755638332471E+00
(PID.TID 0000.0001)  ploadbar=  1.01116867832439E+05
 cg2d: Sum(rhs),rhsMax =  -9.56194758932701E+01  1.59655431192605E+00
(PID.TID 0000.0001)  ploadbar=  1.01116423397639E+05
 cg2d: Sum(rhs),rhsMax =  -9.51721288135643E+01  1.60439474509506E+00
(PID.TID 0000.0001)  ploadbar=  1.01115978962839E+05
 cg2d: Sum(rhs),rhsMax =  -9.48261580912024E+01  1.61059305136758E+00
(PID.TID 0000.0001)  ploadbar=  1.01115534528038E+05
 cg2d: Sum(rhs),rhsMax =  -9.45881037972013E+01  1.61499765729499E+00
(PID.TID 0000.0001)  ploadbar=  1.01115090093238E+05
 cg2d: Sum(rhs),rhsMax =  -9.44578644241703E+01  1.61757988273879E+00
(PID.TID 0000.0001)  ploadbar=  1.01114645658438E+05
 cg2d: Sum(rhs),rhsMax =  -9.44161750042510E+01  1.61864903509509E+00
(PID.TID 0000.0001)  ploadbar=  1.01115252584199E+05
 cg2d: Sum(rhs),rhsMax =  -9.44502847946833E+01  1.61841518285321E+00
(PID.TID 0000.0001)  ploadbar=  1.01115859509961E+05
 cg2d: Sum(rhs),rhsMax =  -9.45335550322419E+01  1.61733382313877E+00
(PID.TID 0000.0001)  ploadbar=  1.01116466435722E+05
 cg2d: Sum(rhs),rhsMax =  -9.46285507906584E+01  1.61604730655453E+00
(PID.TID 0000.0001)  ploadbar=  1.01117073361483E+05
 cg2d: Sum(rhs),rhsMax =  -9.47098795630285E+01  1.61498723152127E+00
(PID.TID 0000.0001)  ploadbar=  1.01117680287244E+05
 cg2d: Sum(rhs),rhsMax =  -9.47674059446250E+01  1.61432206302699E+00
(PID.TID 0000.0001)  ploadbar=  1.01118287213006E+05
 cg2d: Sum(rhs),rhsMax =  -9.47859477047103E+01  1.61429701859170E+00
(PID.TID 0000.0001)  ploadbar=  1.01119102772382E+05
 cg2d: Sum(rhs),rhsMax =  -9.47763578539963E+01  1.61472535189532E+00
(PID.TID 0000.0001)  ploadbar=  1.01119918331758E+05
 cg2d: Sum(rhs),rhsMax =  -9.47688853573209E+01  1.61509036077620E+00
(PID.TID 0000.0001)  ploadbar=  1.01120733891133E+05
 cg2d: Sum(rhs),rhsMax =  -9.47891116528319E+01  1.61495335969994E+00
(PID.TID 0000.0001)  ploadbar=  1.01121549450509E+05
 cg2d: Sum(rhs),rhsMax =  -9.48629044863429E+01  1.61387206604404E+00
(PID.TID 0000.0001)  ploadbar=  1.01122365009885E+05
 cg2d: Sum(rhs),rhsMax =  -9.50034942142148E+01  1.61162492171032E+00
(PID.TID 0000.0001)  ploadbar=  1.01123180569261E+05
 cg2d: Sum(rhs),rhsMax =  -9.52246755859335E+01  1.60805772322897E+00
(PID.TID 0000.0001)  ploadbar=  1.01122285011461E+05
 cg2d: Sum(rhs),rhsMax =  -9.54999424216740E+01  1.60363377966603E+00
(PID.TID 0000.0001)  ploadbar=  1.01121389453661E+05
 cg2d: Sum(rhs),rhsMax =  -9.58085497927118E+01  1.59871307581655E+00
(PID.TID 0000.0001)  ploadbar=  1.01120493895861E+05
 cg2d: Sum(rhs),rhsMax =  -9.61030591367916E+01  1.59408904488272E+00
(PID.TID 0000.0001)  ploadbar=  1.01119598338061E+05
 cg2d: Sum(rhs),rhsMax =  -9.63829649602512E+01  1.58976351894292E+00
(PID.TID 0000.0001)  ploadbar=  1.01118702780261E+05
 cg2d: Sum(rhs),rhsMax =  -9.66681273195121E+01  1.58540338135600E+00
(PID.TID 0000.0001)  ploadbar=  1.01117807222461E+05
 cg2d: Sum(rhs),rhsMax =  -9.69210113684422E+01  1.58159366808859E+00
(PID.TID 0000.0001)  ploadbar=  1.01118474142604E+05
 cg2d: Sum(rhs),rhsMax =  -9.71150380896737E+01  1.57875404664021E+00
(PID.TID 0000.0001)  ploadbar=  1.01119141062747E+05
 cg2d: Sum(rhs),rhsMax =  -9.72470621810752E+01  1.57692325517067E+00
(PID.TID 0000.0001)  ploadbar=  1.01119807982889E+05
 cg2d: Sum(rhs),rhsMax =  -9.73304832620805E+01  1.57587533303633E+00
(PID.TID 0000.0001)  ploadbar=  1.01120474903032E+05
 cg2d: Sum(rhs),rhsMax =  -9.73736093246951E+01  1.57547071469389E+00
(PID.TID 0000.0001)  ploadbar=  1.01121141823175E+05
 cg2d: Sum(rhs),rhsMax =  -9.73851607812156E+01  1.57556372222982E+00
(PID.TID 0000.0001)  ploadbar=  1.01121808743317E+05
 cg2d: Sum(rhs),rhsMax =  -9.73629817308144E+01  1.57621859913895E+00
(PID.TID 0000.0001)  ploadbar=  1.01122512149178E+05
 cg2d: Sum(rhs),rhsMax =  -9.73004965976328E+01  1.57754086526533E+00
(PID.TID 0000.0001)  ploadbar=  1.01123215555039E+05
 cg2d: Sum(rhs),rhsMax =  -9.71970676535985E+01  1.57954131266753E+00
(PID.TID 0000.0001)  ploadbar=  1.01123918960900E+05
 cg2d: Sum(rhs),rhsMax =  -9.70442875577297E+01  1.58236034221826E+00
(PID.TID 0000.0001)  ploadbar=  1.01124622366761E+05
 cg2d: Sum(rhs),rhsMax =  -9.68439633559186E+01  1.58597428765735E+00
(PID.TID 0000.0001)  ploadbar=  1.01125325772622E+05
 cg2d: Sum(rhs),rhsMax =  -9.66160459200680E+01  1.59006152161547E+00
(PID.TID 0000.0001)  ploadbar=  1.01126029178483E+05
 cg2d: Sum(rhs),rhsMax =  -9.63723707256916E+01  1.59441584424974E+00
(PID.TID 0000.0001)  ploadbar=  1.01126524636223E+05
 cg2d: Sum(rhs),rhsMax =  -9.61375228284117E+01  1.59863171024698E+00
(PID.TID 0000.0001)  ploadbar=  1.01127020093964E+05
 cg2d: Sum(rhs),rhsMax =  -9.59129228060679E+01  1.60268158687009E+00
(PID.TID 0000.0001)  ploadbar=  1.01127515551705E+05
 cg2d: Sum(rhs),rhsMax =  -9.57015172215762E+01  1.60651175479165E+00
(PID.TID 0000.0001)  ploadbar=  1.01128011009446E+05
 cg2d: Sum(rhs),rhsMax =  -9.55022009899404E+01  1.61013417121214E+00
(PID.TID 0000.0001)  ploadbar=  1.01128506467186E+05
 cg2d: Sum(rhs),rhsMax =  -9.53082281199371E+01  1.61365941437481E+00
(PID.TID 0000.0001)  ploadbar=  1.01129001924927E+05
 cg2d: Sum(rhs),rhsMax =  -9.51333125515085E+01  1.61691611668735E+00
(PID.TID 0000.0001)  ploadbar=  1.01129573714285E+05
 cg2d: Sum(rhs),rhsMax =  -9.49709347455611E+01  1.62001103664519E+00
(PID.TID 0000.0001)  ploadbar=  1.01130145503643E+05
 cg2d: Sum(rhs),rhsMax =  -9.48363839121410E+01  1.62267589748937E+00
(PID.TID 0000.0001)  ploadbar=  1.01130717293001E+05
 cg2d: Sum(rhs),rhsMax =  -9.47426245832328E+01  1.62468327206817E+00
(PID.TID 0000.0001)  ploadbar=  1.01131289082359E+05
 cg2d: Sum(rhs),rhsMax =  -9.47055616479073E+01  1.62575360121205E+00
(PID.TID 0000.0001)  ploadbar=  1.01131860871717E+05
 cg2d: Sum(rhs),rhsMax =  -9.47367143222147E+01  1.62568470882862E+00
(PID.TID 0000.0001)  ploadbar=  1.01132432661075E+05
 cg2d: Sum(rhs),rhsMax =  -9.48173011351634E+01  1.62476304270863E+00
(PID.TID 0000.0001)  ploadbar=  1.01133333122255E+05
 cg2d: Sum(rhs),rhsMax =  -9.49981501237241E+01  1.62212445236520E+00
(PID.TID 0000.0001)  ploadbar=  1.01134233583435E+05
 cg2d: Sum(rhs),rhsMax =  -9.52351999243655E+01  1.61853611244398E+00
(PID.TID 0000.0001)  ploadbar=  1.01135134044615E+05
 cg2d: Sum(rhs),rhsMax =  -9.54645373610426E+01  1.61509161699701E+00
(PID.TID 0000.0001)  ploadbar=  1.01136034505795E+05
 cg2d: Sum(rhs),rhsMax =  -9.57543738978788E+01  1.61063954641050E+00
(PID.TID 0000.0001)  ploadbar=  1.01136934966975E+05
 cg2d: Sum(rhs),rhsMax =  -9.61744801477654E+01  1.60403043795176E+00
(PID.TID 0000.0001)  ploadbar=  1.01137835428155E+05
 cg2d: Sum(rhs),rhsMax =  -9.66360896919924E+01  1.59681127886642E+00
(PID.TID 0000.0001)  ploadbar=  1.01139364066157E+05
 cg2d: Sum(rhs),rhsMax =  -9.70217232789423E+01  1.59092344623947E+00
(PID.TID 0000.0001)  ploadbar=  1.01140892704160E+05
 cg2d: Sum(rhs),rhsMax =  -9.72745864083378E+01  1.58726079962684E+00
(PID.TID 0000.0001)  ploadbar=  1.01142421342162E+05
 cg2d: Sum(rhs),rhsMax =  -9.74486018256054E+01  1.58491211626477E+00
(PID.TID 0000.0001)  ploadbar=  1.01143949980165E+05
 cg2d: Sum(rhs),rhsMax =  -9.76084371916902E+01  1.58281217702153E+00
(PID.TID 0000.0001)  ploadbar=  1.01145478618167E+05
 cg2d: Sum(rhs),rhsMax =  -9.77449053701319E+01  1.58110689082734E+00
(PID.TID 0000.0001)  ploadbar=  1.01147007256170E+05
 cg2d: Sum(rhs),rhsMax =  -9.80173089461571E+01  1.57717478924691E+00
(PID.TID 0000.0001)  ploadbar=  1.01148400083483E+05
 cg2d: Sum(rhs),rhsMax =  -9.83931014103575E+01  1.57157246930064E+00
(PID.TID 0000.0001)  ploadbar=  1.01149792910795E+05
 cg2d: Sum(rhs),rhsMax =  -9.88912569267378E+01  1.56403456570600E+00
(PID.TID 0000.0001)  ploadbar=  1.01151185738108E+05
 cg2d: Sum(rhs),rhsMax =  -9.96755583309052E+01  1.55206350425564E+00
(PID.TID 0000.0001)  ploadbar=  1.01152578565421E+05
 cg2d: Sum(rhs),rhsMax =  -1.00870261594526E+02  1.53397333686518E+00
(PID.TID 0000.0001)  ploadbar=  1.01153971392734E+05
 cg2d: Sum(rhs),rhsMax =  -1.02483059634663E+02  1.51008182847976E+00
(PID.TID 0000.0001)  ploadbar=  1.01155364220047E+05
 cg2d: Sum(rhs),rhsMax =  -1.04402474158170E+02  1.48256981668993E+00
(PID.TID 0000.0001)  ploadbar=  1.01157482078909E+05
 cg2d: Sum(rhs),rhsMax =  -1.06520252100964E+02  1.45334823073329E+00
(PID.TID 0000.0001)  ploadbar=  1.01159599937771E+05
 cg2d: Sum(rhs),rhsMax =  -1.08649194193513E+02  1.42512701257056E+00
(PID.TID 0000.0001)  ploadbar=  1.01161717796633E+05
 cg2d: Sum(rhs),rhsMax =  -1.10567965673417E+02  1.40065327495754E+00
(PID.TID 0000.0001)  ploadbar=  1.01163835655494E+05
 cg2d: Sum(rhs),rhsMax =  -1.12328884588324E+02  1.37894962315904E+00
(PID.TID 0000.0001)  ploadbar=  1.01165953514356E+05
 cg2d: Sum(rhs),rhsMax =  -1.14090079795738E+02  1.35790883898481E+00
(PID.TID 0000.0001)  ploadbar=  1.01168071373218E+05
 cg2d: Sum(rhs),rhsMax =  -1.15725309104799E+02  1.33896639002339E+00
(PID.TID 0000.0001)  ploadbar=  1.01168555805609E+05
 cg2d: Sum(rhs),rhsMax =  -1.17438940144317E+02  1.31967186675895E+00
(PID.TID 0000.0001)  ploadbar=  1.01169040237999E+05
 cg2d: Sum(rhs),rhsMax =  -1.19269479341438E+02  1.29965661965592E+00
(PID.TID 0000.0001)  ploadbar=  1.01169524670390E+05
 cg2d: Sum(rhs),rhsMax =  -1.21194697615556E+02  1.27924222426371E+00
(PID.TID 0000.0001)  ploadbar=  1.01170009102780E+05
 cg2d: Sum(rhs),rhsMax =  -1.23149295435557E+02  1.25915749097421E+00
(PID.TID 0000.0001)  ploadbar=  1.01170493535171E+05
 cg2d: Sum(rhs),rhsMax =  -1.25017564670458E+02  1.24054410769361E+00
(PID.TID 0000.0001)  ploadbar=  1.01170977967561E+05
 cg2d: Sum(rhs),rhsMax =  -1.26798120915809E+02  1.22332668787564E+00
(PID.TID 0000.0001)  ploadbar=  1.01170232264069E+05
 cg2d: Sum(rhs),rhsMax =  -1.28751264615479E+02  1.20496669320441E+00
(PID.TID 0000.0001)  ploadbar=  1.01169486560577E+05
 cg2d: Sum(rhs),rhsMax =  -1.29982766770065E+02  1.19373917422585E+00
(PID.TID 0000.0001)  ploadbar=  1.01168740857086E+05
 cg2d: Sum(rhs),rhsMax =  -1.31215381185895E+02  1.18270267269050E+00
(PID.TID 0000.0001)  ploadbar=  1.01167995153594E+05
 cg2d: Sum(rhs),rhsMax =  -1.32557296458762E+02  1.17089311773526E+00
(PID.TID 0000.0001)  ploadbar=  1.01167249450102E+05
 cg2d: Sum(rhs),rhsMax =  -1.33908499602576E+02  1.15922556774739E+00
(PID.TID 0000.0001)  ploadbar=  1.01166503746610E+05
 cg2d: Sum(rhs),rhsMax =  -1.35193192683117E+02  1.14833411715601E+00
(PID.TID 0000.0001)  ploadbar=  1.01165742249217E+05
 cg2d: Sum(rhs),rhsMax =  -1.32579676032510E+02  1.17107292727735E+00
(PID.TID 0000.0001)  ploadbar=  1.01164980751824E+05
 cg2d: Sum(rhs),rhsMax =  -1.27502810433542E+02  1.21778053599277E+00
(PID.TID 0000.0001)  ploadbar=  1.01164219254431E+05
 cg2d: Sum(rhs),rhsMax =  -1.23233672410782E+02  1.26001888155739E+00
(PID.TID 0000.0001)  ploadbar=  1.01163457757038E+05
 cg2d: Sum(rhs),rhsMax =  -1.19697943386127E+02  1.29726010837165E+00
(PID.TID 0000.0001)  ploadbar=  1.01162696259645E+05
 cg2d: Sum(rhs),rhsMax =  -1.16748303434010E+02  1.33002427180787E+00
(PID.TID 0000.0001)  ploadbar=  1.01161934762253E+05
 cg2d: Sum(rhs),rhsMax =  -1.14210968180818E+02  1.35959460207098E+00
(PID.TID 0000.0001)  ploadbar=  1.01162567495822E+05
 cg2d: Sum(rhs),rhsMax =  -1.11965828322633E+02  1.38691244358147E+00
(PID.TID 0000.0001)  ploadbar=  1.01163200229392E+05
 cg2d: Sum(rhs),rhsMax =  -1.09931583732543E+02  1.41266199057628E+00
(PID.TID 0000.0001)  ploadbar=  1.01163832962962E+05
 cg2d: Sum(rhs),rhsMax =  -1.08072955616452E+02  1.43707027380575E+00
(PID.TID 0000.0001)  ploadbar=  1.01164465696531E+05
 cg2d: Sum(rhs),rhsMax =  -1.06405382757484E+02  1.45972982352530E+00
(PID.TID 0000.0001)  ploadbar=  1.01165098430101E+05
 cg2d: Sum(rhs),rhsMax =  -1.04985957161754E+02  1.47962386751391E+00
(PID.TID 0000.0001)  ploadbar=  1.01165731163671E+05
 cg2d: Sum(rhs),rhsMax =  -1.03924886134392E+02  1.49488951119468E+00
(PID.TID 0000.0001)  ploadbar=  1.01165676707698E+05
 cg2d: Sum(rhs),rhsMax =  -1.03254455502102E+02  1.50475175090892E+00
(PID.TID 0000.0001)  ploadbar=  1.01165622251724E+05
 cg2d: Sum(rhs),rhsMax =  -1.02901812611924E+02  1.51005917764749E+00
(PID.TID 0000.0001)  ploadbar=  1.01165567795751E+05
 cg2d: Sum(rhs),rhsMax =  -1.02703209947542E+02  1.51311969110267E+00
(PID.TID 0000.0001)  ploadbar=  1.01165513339778E+05
 cg2d: Sum(rhs),rhsMax =  -1.02522936724990E+02  1.51590607952027E+00
(PID.TID 0000.0001)  ploadbar=  1.01165458883805E+05
 cg2d: Sum(rhs),rhsMax =  -1.02306640935864E+02  1.51921724516672E+00
(PID.TID 0000.0001)  ploadbar=  1.01165404427832E+05
 cg2d: Sum(rhs),rhsMax =  -1.01998634415826E+02  1.52388858820968E+00
(PID.TID 0000.0001)  ploadbar=  1.01165800804172E+05
 cg2d: Sum(rhs),rhsMax =  -1.01649543716892E+02  1.52917965060209E+00
(PID.TID 0000.0001)  ploadbar=  1.01166197180513E+05
 cg2d: Sum(rhs),rhsMax =  -1.01339357879963E+02  1.53388775271018E+00
(PID.TID 0000.0001)  ploadbar=  1.01166593556854E+05
 cg2d: Sum(rhs),rhsMax =  -1.01129705782076E+02  1.53706202626226E+00
(PID.TID 0000.0001)  ploadbar=  1.01166989933194E+05
 cg2d: Sum(rhs),rhsMax =  -1.01050654631397E+02  1.53822123049565E+00
(PID.TID 0000.0001)  ploadbar=  1.01167386309535E+05
 cg2d: Sum(rhs),rhsMax =  -1.01116856155182E+02  1.53713073821207E+00
(PID.TID 0000.0001)  ploadbar=  1.01167782685876E+05
 cg2d: Sum(rhs),rhsMax =  -1.01300785137923E+02  1.53422270519394E+00
(PID.TID 0000.0001)  ploadbar=  1.01168027412818E+05
 cg2d: Sum(rhs),rhsMax =  -1.01581800466552E+02  1.52982515648828E+00
(PID.TID 0000.0001)  ploadbar=  1.01168272139760E+05
 cg2d: Sum(rhs),rhsMax =  -1.00996843886667E+02  1.53849310263975E+00
(PID.TID 0000.0001)  ploadbar=  1.01168516866702E+05
 cg2d: Sum(rhs),rhsMax =  -9.95824683181092E+01  1.56010818846506E+00
(PID.TID 0000.0001)  ploadbar=  1.01168761593644E+05
 cg2d: Sum(rhs),rhsMax =  -9.83778282806948E+01  1.57892894097548E+00
(PID.TID 0000.0001)  ploadbar=  1.01169006320586E+05
 cg2d: Sum(rhs),rhsMax =  -9.72486341892636E+01  1.59693078151831E+00
(PID.TID 0000.0001)  ploadbar=  1.01169251047528E+05
 cg2d: Sum(rhs),rhsMax =  -9.60524497542663E+01  1.61652705613453E+00
(PID.TID 0000.0001)  ploadbar=  1.01168905842618E+05
 cg2d: Sum(rhs),rhsMax =  -9.47078565507567E+01  1.63922481047664E+00
(PID.TID 0000.0001)  ploadbar=  1.01168560637708E+05
 cg2d: Sum(rhs),rhsMax =  -9.31969872369082E+01  1.66558286317518E+00
(PID.TID 0000.0001)  ploadbar=  1.01168215432798E+05
 cg2d: Sum(rhs),rhsMax =  -9.15749308414326E+01  1.69490278090051E+00
(PID.TID 0000.0001)  ploadbar=  1.01167870227888E+05
 cg2d: Sum(rhs),rhsMax =  -8.98973515952121E+01  1.72637825092669E+00
(PID.TID 0000.0001)  ploadbar=  1.01167525022978E+05
 cg2d: Sum(rhs),rhsMax =  -8.82169299216298E+01  1.75913433318649E+00
(PID.TID 0000.0001)  ploadbar=  1.01167179818068E+05
 cg2d: Sum(rhs),rhsMax =  -8.66513490584120E+01  1.79080059410855E+00
(PID.TID 0000.0001)  ploadbar=  1.01168518806873E+05
 cg2d: Sum(rhs),rhsMax =  -8.52626439175899E+01  1.81986142804928E+00
(PID.TID 0000.0001)  ploadbar=  1.01169857795678E+05
 cg2d: Sum(rhs),rhsMax =  -8.40569863849581E+01  1.84586215995261E+00
(PID.TID 0000.0001)  ploadbar=  1.01171196784484E+05
 cg2d: Sum(rhs),rhsMax =  -8.29904184289314E+01  1.86948205137909E+00
(PID.TID 0000.0001)  ploadbar=  1.01172535773289E+05
 cg2d: Sum(rhs),rhsMax =  -8.20017293947305E+01  1.89191422882748E+00
(PID.TID 0000.0001)  ploadbar=  1.01173874762094E+05
 cg2d: Sum(rhs),rhsMax =  -8.10505590966538E+01  1.91399698325094E+00
(PID.TID 0000.0001)  ploadbar=  1.01175213750899E+05
 cg2d: Sum(rhs),rhsMax =  -8.01592608315592E+01  1.93518696578948E+00
(PID.TID 0000.0001)  ploadbar=  1.01176143335039E+05
 cg2d: Sum(rhs),rhsMax =  -7.93643054155376E+01  1.95450245192380E+00
(PID.TID 0000.0001)  ploadbar=  1.01177072919179E+05
 cg2d: Sum(rhs),rhsMax =  -7.87117536858611E+01  1.97065466319337E+00
(PID.TID 0000.0001)  ploadbar=  1.01178002503319E+05
 cg2d: Sum(rhs),rhsMax =  -7.82044130694187E+01  1.98339697117294E+00
(PID.TID 0000.0001)  ploadbar=  1.01178932087458E+05
 cg2d: Sum(rhs),rhsMax =  -7.78302000516823E+01  1.99289449046501E+00
(PID.TID 0000.0001)  ploadbar=  1.01179861671598E+05
 cg2d: Sum(rhs),rhsMax =  -7.75951016458251E+01  1.99888851028213E+00
(PID.TID 0000.0001)  ploadbar=  1.01180791255738E+05
 cg2d: Sum(rhs),rhsMax =  -7.75165515074635E+01  2.00085022823926E+00
(PID.TID 0000.0001)  ploadbar=  1.01181729305013E+05
 cg2d: Sum(rhs),rhsMax =  -7.76052983887448E+01  1.99847465808538E+00
(PID.TID 0000.0001)  ploadbar=  1.01182667354287E+05
 cg2d: Sum(rhs),rhsMax =  -7.78189216199687E+01  1.99287493817313E+00
(PID.TID 0000.0001)  ploadbar=  1.01183605403562E+05
 cg2d: Sum(rhs),rhsMax =  -7.81775508284608E+01  1.98358862904482E+00
(PID.TID 0000.0001)  ploadbar=  1.01184543452837E+05
 cg2d: Sum(rhs),rhsMax =  -7.83391153793655E+01  1.97931662719216E+00
(PID.TID 0000.0001)  ploadbar=  1.01185481502111E+05
 cg2d: Sum(rhs),rhsMax =  -7.86030892842150E+01  1.97244764940383E+00
(PID.TID 0000.0001)  ploadbar=  1.01186419551386E+05
 cg2d: Sum(rhs),rhsMax =  -7.88676767941752E+01  1.96566588916533E+00
(PID.TID 0000.0001)  ploadbar=  1.01186481377537E+05
 cg2d: Sum(rhs),rhsMax =  -7.90971135883006E+01  1.95985391650101E+00
(PID.TID 0000.0001)  ploadbar=  1.01186543203688E+05
 cg2d: Sum(rhs),rhsMax =  -7.92897621855936E+01  1.95503034627925E+00
(PID.TID 0000.0001)  ploadbar=  1.01186605029839E+05
 cg2d: Sum(rhs),rhsMax =  -7.94615857013014E+01  1.95078408702314E+00
(PID.TID 0000.0001)  ploadbar=  1.01186666855990E+05
 cg2d: Sum(rhs),rhsMax =  -7.96303549694149E+01  1.94666647512391E+00
(PID.TID 0000.0001)  ploadbar=  1.01186728682141E+05
 cg2d: Sum(rhs),rhsMax =  -7.98120132210539E+01  1.94228214442748E+00
(PID.TID 0000.0001)  ploadbar=  1.01186790508292E+05
 cg2d: Sum(rhs),rhsMax =  -8.00284058468485E+01  1.93704541414822E+00
(PID.TID 0000.0001)  ploadbar=  1.01187572484857E+05
 cg2d: Sum(rhs),rhsMax =  -8.02898235588197E+01  1.93072222526977E+00
(PID.TID 0000.0001)  ploadbar=  1.01188354461421E+05
 cg2d: Sum(rhs),rhsMax =  -8.05940148441355E+01  1.92338222482931E+00
(PID.TID 0000.0001)  ploadbar=  1.01189136437985E+05
 cg2d: Sum(rhs),rhsMax =  -8.09279503942975E+01  1.91535291921771E+00
(PID.TID 0000.0001)  ploadbar=  1.01189918414549E+05
 cg2d: Sum(rhs),rhsMax =  -8.12672789641534E+01  1.90721800820867E+00
(PID.TID 0000.0001)  ploadbar=  1.01190700391114E+05
 cg2d: Sum(rhs),rhsMax =  -8.16131184751851E+01  1.89894893944741E+00
(PID.TID 0000.0001)  ploadbar=  1.01191482367678E+05
 cg2d: Sum(rhs),rhsMax =  -8.19721124209795E+01  1.89045024233750E+00
(PID.TID 0000.0001)  ploadbar=  1.01191512919352E+05
 cg2d: Sum(rhs),rhsMax =  -8.23480254251381E+01  1.88164153751297E+00
(PID.TID 0000.0001)  ploadbar=  1.01191543471026E+05
 cg2d: Sum(rhs),rhsMax =  -8.27471174746435E+01  1.87238827575355E+00
(PID.TID 0000.0001)  ploadbar=  1.01191574022700E+05
 cg2d: Sum(rhs),rhsMax =  -8.31754590657162E+01  1.86256494310022E+00
(PID.TID 0000.0001)  ploadbar=  1.01191604574374E+05
 cg2d: Sum(rhs),rhsMax =  -8.36359994100652E+01  1.85212075109641E+00
(PID.TID 0000.0001)  ploadbar=  1.01191635126048E+05
 cg2d: Sum(rhs),rhsMax =  -8.41289588814384E+01  1.84106811219377E+00
(PID.TID 0000.0001)  ploadbar=  1.01191665677722E+05
 cg2d: Sum(rhs),rhsMax =  -8.46806761452966E+01  1.82886932641377E+00
(PID.TID 0000.0001)  ploadbar=  1.01192301557463E+05
 cg2d: Sum(rhs),rhsMax =  -8.52619636952785E+01  1.81619239511587E+00
(PID.TID 0000.0001)  ploadbar=  1.01192937437204E+05
 cg2d: Sum(rhs),rhsMax =  -8.58617878708537E+01  1.80328896832099E+00
(PID.TID 0000.0001)  ploadbar=  1.01193573316945E+05
 cg2d: Sum(rhs),rhsMax =  -8.64678057696064E+01  1.79042485437530E+00
(PID.TID 0000.0001)  ploadbar=  1.01194209196686E+05
 cg2d: Sum(rhs),rhsMax =  -8.70635222978395E+01  1.77793723744109E+00
(PID.TID 0000.0001)  ploadbar=  1.01194845076427E+05
 cg2d: Sum(rhs),rhsMax =  -8.76361869581395E+01  1.76606767024159E+00
(PID.TID 0000.0001)  ploadbar=  1.01195480956168E+05
 cg2d: Sum(rhs),rhsMax =  -8.81832574226223E+01  1.75490909065428E+00
(PID.TID 0000.0001)  ploadbar=  1.01196952637147E+05
 cg2d: Sum(rhs),rhsMax =  -8.86727959653668E+01  1.74506537003464E+00
(PID.TID 0000.0001)  ploadbar=  1.01198424318126E+05
 cg2d: Sum(rhs),rhsMax =  -8.91083966214963E+01  1.73642191285496E+00
(PID.TID 0000.0001)  ploadbar=  1.01199895999105E+05
 cg2d: Sum(rhs),rhsMax =  -8.94976069139489E+01  1.72879581869957E+00
(PID.TID 0000.0001)  ploadbar=  1.01201367680084E+05
 cg2d: Sum(rhs),rhsMax =  -8.95697786286945E+01  1.72736323115476E+00
(PID.TID 0000.0001)  ploadbar=  1.01202839361063E+05
 cg2d: Sum(rhs),rhsMax =  -8.89145839889183E+01  1.74008282073183E+00
(PID.TID 0000.0001)  ploadbar=  1.01204311042042E+05
 cg2d: Sum(rhs),rhsMax =  -8.85532166332032E+01  1.74716826915795E+00
(PID.TID 0000.0001)  ploadbar=  1.01204238641180E+05
 cg2d: Sum(rhs),rhsMax =  -8.84253155708173E+01  1.74967200062533E+00
(PID.TID 0000.0001)  ploadbar=  1.01204166240319E+05
 cg2d: Sum(rhs),rhsMax =  -8.84426800756904E+01  1.74929376148344E+00
(PID.TID 0000.0001)  ploadbar=  1.01204093839457E+05
 cg2d: Sum(rhs),rhsMax =  -8.85299579064134E+01  1.74752021674932E+00
(PID.TID 0000.0001)  ploadbar=  1.01204021438595E+05
 cg2d: Sum(rhs),rhsMax =  -8.86329733017502E+01  1.74542227247202E+00
(PID.TID 0000.0001)  ploadbar=  1.01203949037734E+05
 cg2d: Sum(rhs),rhsMax =  -8.87241376483183E+01  1.74353987104750E+00
(PID.TID 0000.0001)  ploadbar=  1.01203876636872E+05
 cg2d: Sum(rhs),rhsMax =  -8.87800856616994E+01  1.74236084656092E+00
(PID.TID 0000.0001)  ploadbar=  1.01204406680635E+05
 cg2d: Sum(rhs),rhsMax =  -8.88276476949285E+01  1.74135476621218E+00
(PID.TID 0000.0001)  ploadbar=  1.01204936724397E+05
 cg2d: Sum(rhs),rhsMax =  -8.89131823576457E+01  1.73961079848479E+00
(PID.TID 0000.0001)  ploadbar=  1.01205466768160E+05
 cg2d: Sum(rhs),rhsMax =  -8.90706306585552E+01  1.73647043455991E+00
(PID.TID 0000.0001)  ploadbar=  1.01205996811922E+05
 cg2d: Sum(rhs),rhsMax =  -8.93233235560825E+01  1.73149184192224E+00
(PID.TID 0000.0001)  ploadbar=  1.01206526855685E+05
 cg2d: Sum(rhs),rhsMax =  -8.96731607854299E+01  1.72466439643874E+00
(PID.TID 0000.0001)  ploadbar=  1.01207056899447E+05
 cg2d: Sum(rhs),rhsMax =  -9.01036996474043E+01  1.71631552373172E+00
(PID.TID 0000.0001)  ploadbar=  1.01206941238241E+05
 cg2d: Sum(rhs),rhsMax =  -9.01613526973048E+01  1.71507221144379E+00
(PID.TID 0000.0001)  ploadbar=  1.01206825577034E+05
 cg2d: Sum(rhs),rhsMax =  -9.02825870900785E+01  1.71258422703296E+00
(PID.TID 0000.0001)  ploadbar=  1.01206709915828E+05
 cg2d: Sum(rhs),rhsMax =  -9.07624627124596E+01  1.70330661350099E+00
(PID.TID 0000.0001)  ploadbar=  1.01206594254621E+05
 cg2d: Sum(rhs),rhsMax =  -9.15427727923275E+01  1.68852753826928E+00
(PID.TID 0000.0001)  ploadbar=  1.01206478593415E+05
 cg2d: Sum(rhs),rhsMax =  -9.25195311015280E+01  1.67040286901385E+00
(PID.TID 0000.0001)  ploadbar=  1.01206362932209E+05
 cg2d: Sum(rhs),rhsMax =  -9.35416526674836E+01  1.65191936464827E+00
(PID.TID 0000.0001)  ploadbar=  1.01206233291942E+05
 cg2d: Sum(rhs),rhsMax =  -9.45793166492200E+01  1.63362729921184E+00
(PID.TID 0000.0001)  ploadbar=  1.01206103651676E+05
 cg2d: Sum(rhs),rhsMax =  -9.51743514792146E+01  1.62330153750609E+00
(PID.TID 0000.0001)  ploadbar=  1.01205974011410E+05
 cg2d: Sum(rhs),rhsMax =  -9.55721942153635E+01  1.61648559057913E+00
(PID.TID 0000.0001)  ploadbar=  1.01205844371143E+05
 cg2d: Sum(rhs),rhsMax =  -9.58574813182627E+01  1.61166417045207E+00
(PID.TID 0000.0001)  ploadbar=  1.01205714730877E+05
 cg2d: Sum(rhs),rhsMax =  -9.60444781742347E+01  1.60855931393578E+00
(PID.TID 0000.0001)  ploadbar=  1.01205585090610E+05
 cg2d: Sum(rhs),rhsMax =  -9.61238509427850E+01  1.60724593467770E+00
(PID.TID 0000.0001)  ploadbar=  1.01205013698394E+05
 cg2d: Sum(rhs),rhsMax =  -9.61095740415689E+01  1.60747933834161E+00
(PID.TID 0000.0001)  ploadbar=  1.01204442306178E+05
 cg2d: Sum(rhs),rhsMax =  -9.60297979171181E+01  1.60878677450696E+00
(PID.TID 0000.0001)  ploadbar=  1.01203870913961E+05
 cg2d: Sum(rhs),rhsMax =  -9.59219844211540E+01  1.61054421572549E+00
(PID.TID 0000.0001)  ploadbar=  1.01203299521745E+05
 cg2d: Sum(rhs),rhsMax =  -9.58230002741873E+01  1.61213165900770E+00
(PID.TID 0000.0001)  ploadbar=  1.01202728129529E+05
 cg2d: Sum(rhs),rhsMax =  -9.57737284852145E+01  1.61285457211366E+00
(PID.TID 0000.0001)  ploadbar=  1.01202156737312E+05
 cg2d: Sum(rhs),rhsMax =  -9.57878837314422E+01  1.61251260325529E+00
(PID.TID 0000.0001)  ploadbar=  1.01200652132872E+05
 cg2d: Sum(rhs),rhsMax =  -9.58626702389567E+01  1.61115049423283E+00
(PID.TID 0000.0001)  ploadbar=  1.01199147528431E+05
 cg2d: Sum(rhs),rhsMax =  -9.60005372928394E+01  1.60872902862829E+00
(PID.TID 0000.0001)  ploadbar=  1.01197642923991E+05
 cg2d: Sum(rhs),rhsMax =  -9.62028891555964E+01  1.60522948283990E+00
(PID.TID 0000.0001)  ploadbar=  1.01196138319550E+05
 cg2d: Sum(rhs),rhsMax =  -9.64705755491411E+01  1.60064946139583E+00
(PID.TID 0000.0001)  ploadbar=  1.01194633715109E+05
 cg2d: Sum(rhs),rhsMax =  -9.67952103344805E+01  1.59513953759361E+00
(PID.TID 0000.0001)  ploadbar=  1.01193129110669E+05
 cg2d: Sum(rhs),rhsMax =  -9.71543257433008E+01  1.58910841792428E+00
(PID.TID 0000.0001)  ploadbar=  1.01191482327677E+05
 cg2d: Sum(rhs),rhsMax =  -9.75211978592069E+01  1.58299901356168E+00
(PID.TID 0000.0001)  ploadbar=  1.01189835544685E+05
 cg2d: Sum(rhs),rhsMax =  -9.76874348305551E+01  1.58017852140989E+00
(PID.TID 0000.0001)  ploadbar=  1.01188188761693E+05
 cg2d: Sum(rhs),rhsMax =  -9.77391642843964E+01  1.57922026145957E+00
(PID.TID 0000.0001)  ploadbar=  1.01186541978701E+05
 cg2d: Sum(rhs),rhsMax =  -9.78755520263015E+01  1.57690232123610E+00
(PID.TID 0000.0001)  ploadbar=  1.01184895195710E+05
 cg2d: Sum(rhs),rhsMax =  -9.80308007937793E+01  1.57429084757739E+00
(PID.TID 0000.0001)  ploadbar=  1.01183248412718E+05
 cg2d: Sum(rhs),rhsMax =  -9.81098670322135E+01  1.57295882516905E+00
(PID.TID 0000.0001)  ploadbar=  1.01182072498622E+05
 cg2d: Sum(rhs),rhsMax =  -9.68263087613596E+01  1.59379514305273E+00
(PID.TID 0000.0001)  ploadbar=  1.01180896584526E+05
 cg2d: Sum(rhs),rhsMax =  -9.50882144236602E+01  1.62296142928046E+00
(PID.TID 0000.0001)  ploadbar=  1.01179720670430E+05
 cg2d: Sum(rhs),rhsMax =  -9.33837799638368E+01  1.65266442527370E+00
(PID.TID 0000.0001)  ploadbar=  1.01178544756335E+05
 cg2d: Sum(rhs),rhsMax =  -9.17879942703066E+01  1.68152257885361E+00
(PID.TID 0000.0001)  ploadbar=  1.01177368842239E+05
 cg2d: Sum(rhs),rhsMax =  -9.03554984902436E+01  1.70834951717421E+00
(PID.TID 0000.0001)  ploadbar=  1.01176192928143E+05
 cg2d: Sum(rhs),rhsMax =  -8.91178604573078E+01  1.73225631098297E+00
(PID.TID 0000.0001)  ploadbar=  1.01175351630068E+05
 cg2d: Sum(rhs),rhsMax =  -8.80898856372608E+01  1.75266461573529E+00
(PID.TID 0000.0001)  ploadbar=  1.01174510331994E+05
 cg2d: Sum(rhs),rhsMax =  -8.72113892147956E+01  1.77052249795181E+00
(PID.TID 0000.0001)  ploadbar=  1.01173669033920E+05
 cg2d: Sum(rhs),rhsMax =  -8.64197986878048E+01  1.78695230039078E+00
(PID.TID 0000.0001)  ploadbar=  1.01172827735845E+05
 cg2d: Sum(rhs),rhsMax =  -8.56687586345109E+01  1.80283897320028E+00
(PID.TID 0000.0001)  ploadbar=  1.01171986437771E+05
 cg2d: Sum(rhs),rhsMax =  -8.49115262773493E+01  1.81914463922256E+00
(PID.TID 0000.0001)  ploadbar=  1.01171145139696E+05
 cg2d: Sum(rhs),rhsMax =  -8.41544099099479E+01  1.83573226604691E+00
(PID.TID 0000.0001)  ploadbar=  1.01169549095544E+05
 cg2d: Sum(rhs),rhsMax =  -8.34265441923811E+01  1.85196089439530E+00
(PID.TID 0000.0001)  ploadbar=  1.01167953051392E+05
 cg2d: Sum(rhs),rhsMax =  -8.27328301551960E+01  1.86769154936991E+00
(PID.TID 0000.0001)  ploadbar=  1.01166357007240E+05
 cg2d: Sum(rhs),rhsMax =  -8.20835055610085E+01  1.88265361109194E+00
(PID.TID 0000.0001)  ploadbar=  1.01164760963088E+05
 cg2d: Sum(rhs),rhsMax =  -8.14896240650724E+01  1.89654382982562E+00
(PID.TID 0000.0001)  ploadbar=  1.01163164918936E+05
 cg2d: Sum(rhs),rhsMax =  -8.09644990397227E+01  1.90899290888948E+00
(PID.TID 0000.0001)  ploadbar=  1.01161568874784E+05
 cg2d: Sum(rhs),rhsMax =  -8.05146351227599E+01  1.91979609739832E+00
(PID.TID 0000.0001)  ploadbar=  1.01161575649683E+05
 cg2d: Sum(rhs),rhsMax =  -8.01364153031484E+01  1.92898204744181E+00
(PID.TID 0000.0001)  ploadbar=  1.01161582424583E+05
 cg2d: Sum(rhs),rhsMax =  -7.98107561801778E+01  1.93696391061283E+00
(PID.TID 0000.0001)  ploadbar=  1.01161589199483E+05
 cg2d: Sum(rhs),rhsMax =  -7.95202584857257E+01  1.94413568272048E+00
(PID.TID 0000.0001)  ploadbar=  1.01161595974383E+05
 cg2d: Sum(rhs),rhsMax =  -7.92459290039053E+01  1.95094422128117E+00
(PID.TID 0000.0001)  ploadbar=  1.01161602749283E+05
 cg2d: Sum(rhs),rhsMax =  -7.89745901028735E+01  1.95770331512473E+00
(PID.TID 0000.0001)  ploadbar=  1.01161609524183E+05
 cg2d: Sum(rhs),rhsMax =  -7.86286413739687E+01  1.96641499883279E+00
(PID.TID 0000.0001)  ploadbar=  1.01163097249859E+05
 cg2d: Sum(rhs),rhsMax =  -7.82280630142959E+01  1.97662380048045E+00
(PID.TID 0000.0001)  ploadbar=  1.01164584975535E+05
 cg2d: Sum(rhs),rhsMax =  -7.77804888045771E+01  1.98817860172737E+00
(PID.TID 0000.0001)  ploadbar=  1.01166072701211E+05
 cg2d: Sum(rhs),rhsMax =  -7.73044043843396E+01  2.00063987946575E+00
(PID.TID 0000.0001)  ploadbar=  1.01167560426888E+05
 cg2d: Sum(rhs),rhsMax =  -7.68329165684521E+01  2.01316761338307E+00
(PID.TID 0000.0001)  ploadbar=  1.01169048152564E+05
 cg2d: Sum(rhs),rhsMax =  -7.63901216007402E+01  2.02511817862182E+00
(PID.TID 0000.0001)  ploadbar=  1.01170535878240E+05
 cg2d: Sum(rhs),rhsMax =  -7.59958228239474E+01  2.03589179837687E+00
(PID.TID 0000.0001)  ploadbar=  1.01169720993552E+05
 cg2d: Sum(rhs),rhsMax =  -7.56080071386572E+01  2.04658552591127E+00
(PID.TID 0000.0001)  ploadbar=  1.01168906108865E+05
 cg2d: Sum(rhs),rhsMax =  -7.52286298736824E+01  2.05713762609007E+00
(PID.TID 0000.0001)  ploadbar=  1.01168091224178E+05
 cg2d: Sum(rhs),rhsMax =  -7.48553963317527E+01  2.06760365781513E+00
(PID.TID 0000.0001)  ploadbar=  1.01167276339491E+05
 cg2d: Sum(rhs),rhsMax =  -7.44822312617370E+01  2.07814808039770E+00
(PID.TID 0000.0001)  ploadbar=  1.01166461454803E+05
 cg2d: Sum(rhs),rhsMax =  -7.40969300697355E+01  2.08911366334164E+00
(PID.TID 0000.0001)  ploadbar=  1.01165646570116E+05
 cg2d: Sum(rhs),rhsMax =  -7.37023763754514E+01  2.10044539361855E+00
(PID.TID 0000.0001)  ploadbar=  1.01164563160885E+05
 cg2d: Sum(rhs),rhsMax =  -7.32808713950464E+01  2.11265933301000E+00
(PID.TID 0000.0001)  ploadbar=  1.01163479751654E+05
 cg2d: Sum(rhs),rhsMax =  -7.28185374586869E+01  2.12618559768366E+00
(PID.TID 0000.0001)  ploadbar=  1.01162396342422E+05
 cg2d: Sum(rhs),rhsMax =  -7.23222476411520E+01  2.14086355741947E+00
(PID.TID 0000.0001)  ploadbar=  1.01161312933191E+05
 cg2d: Sum(rhs),rhsMax =  -7.18132302097087E+01  2.15609218573399E+00
(PID.TID 0000.0001)  ploadbar=  1.01160229523960E+05
 cg2d: Sum(rhs),rhsMax =  -7.13185038806339E+01  2.17106446735142E+00
(PID.TID 0000.0001)  ploadbar=  1.01159146114729E+05
 cg2d: Sum(rhs),rhsMax =  -7.08181510833393E+01  2.18642885130842E+00
(PID.TID 0000.0001)  ploadbar=  1.01159041163316E+05
 cg2d: Sum(rhs),rhsMax =  -7.03436499788535E+01  2.20120914606786E+00
(PID.TID 0000.0001)  ploadbar=  1.01158936211902E+05
 cg2d: Sum(rhs),rhsMax =  -6.98877955252885E+01  2.21559979649535E+00
(PID.TID 0000.0001)  ploadbar=  1.01158831260489E+05
 cg2d: Sum(rhs),rhsMax =  -6.94471957609267E+01  2.22968536686487E+00
(PID.TID 0000.0001)  ploadbar=  1.01158726309076E+05
 cg2d: Sum(rhs),rhsMax =  -6.90252421060879E+01  2.24333443377416E+00
(PID.TID 0000.0001)  ploadbar=  1.01158621357662E+05
 cg2d: Sum(rhs),rhsMax =  -6.86337349877004E+01  2.25613583480795E+00
(PID.TID 0000.0001)  ploadbar=  1.01158516406249E+05
 cg2d: Sum(rhs),rhsMax =  -6.83988520036901E+01  2.26395991536913E+00
(PID.TID 0000.0001)  ploadbar=  1.01158855513615E+05
 cg2d: Sum(rhs),rhsMax =  -6.82979355136204E+01  2.26744950794864E+00
(PID.TID 0000.0001)  ploadbar=  1.01159194620980E+05
 cg2d: Sum(rhs),rhsMax =  -6.83200056675297E+01  2.26692364589555E+00
(PID.TID 0000.0001)  ploadbar=  1.01159533728346E+05
 cg2d: Sum(rhs),rhsMax =  -6.84378132474098E+01  2.26328394444550E+00
(PID.TID 0000.0001)  ploadbar=  1.01159872835712E+05
 cg2d: Sum(rhs),rhsMax =  -6.86256558151626E+01  2.25739788322780E+00
(PID.TID 0000.0001)  ploadbar=  1.01160211943077E+05
 cg2d: Sum(rhs),rhsMax =  -6.88600915730140E+01  2.25006043473908E+00
(PID.TID 0000.0001)  ploadbar=  1.01160551050443E+05
 cg2d: Sum(rhs),rhsMax =  -6.89849452169676E+01  2.24632495364912E+00
(PID.TID 0000.0001)  ploadbar=  1.01160401096401E+05
 cg2d: Sum(rhs),rhsMax =  -6.90591691544428E+01  2.24423122072348E+00
(PID.TID 0000.0001)  ploadbar=  1.01160251142360E+05
 cg2d: Sum(rhs),rhsMax =  -6.90777247708273E+01  2.24393184682938E+00
(PID.TID 0000.0001)  ploadbar=  1.01160101188318E+05
 cg2d: Sum(rhs),rhsMax =  -6.90510470837258E+01  2.24508333544153E+00
(PID.TID 0000.0001)  ploadbar=  1.01159951234277E+05
 cg2d: Sum(rhs),rhsMax =  -6.90052999437706E+01  2.24683682522627E+00
(PID.TID 0000.0001)  ploadbar=  1.01159801280235E+05
 cg2d: Sum(rhs),rhsMax =  -6.89685093949943E+01  2.24827456590792E+00
(PID.TID 0000.0001)  ploadbar=  1.01159651326194E+05
 cg2d: Sum(rhs),rhsMax =  -6.89586570759669E+01  2.24882990458767E+00
(PID.TID 0000.0001)  ploadbar=  1.01157930106130E+05
 cg2d: Sum(rhs),rhsMax =  -6.89296558249250E+01  2.25000095029780E+00
(PID.TID 0000.0001)  ploadbar=  1.01156208886067E+05
 cg2d: Sum(rhs),rhsMax =  -6.89033148159749E+01  2.25107151264767E+00
(PID.TID 0000.0001)  ploadbar=  1.01154487666004E+05
 cg2d: Sum(rhs),rhsMax =  -6.89425819148977E+01  2.24998157199302E+00
(PID.TID 0000.0001)  ploadbar=  1.01152766445940E+05
 cg2d: Sum(rhs),rhsMax =  -6.90694500380970E+01  2.24601980281856E+00
(PID.TID 0000.0001)  ploadbar=  1.01151045225877E+05
 cg2d: Sum(rhs),rhsMax =  -6.93164003435137E+01  2.23816210092429E+00
(PID.TID 0000.0001)  ploadbar=  1.01149324005813E+05
 cg2d: Sum(rhs),rhsMax =  -6.97472418632385E+01  2.22448077793841E+00
(PID.TID 0000.0001)  ploadbar=  1.01147875815637E+05
 cg2d: Sum(rhs),rhsMax =  -7.03040931793668E+01  2.20700167422072E+00
(PID.TID 0000.0001)  ploadbar=  1.01146427625460E+05
 cg2d: Sum(rhs),rhsMax =  -7.09405544472073E+01  2.18733541537220E+00
(PID.TID 0000.0001)  ploadbar=  1.01144979435283E+05
 cg2d: Sum(rhs),rhsMax =  -7.16127372734226E+01  2.16692802312754E+00
(PID.TID 0000.0001)  ploadbar=  1.01143531245107E+05
 cg2d: Sum(rhs),rhsMax =  -7.22901690396544E+01  2.14673070638271E+00
(PID.TID 0000.0001)  ploadbar=  1.01142083054930E+05
 cg2d: Sum(rhs),rhsMax =  -7.29859913733820E+01  2.12635498058618E+00
(PID.TID 0000.0001)  ploadbar=  1.01140634864754E+05
 cg2d: Sum(rhs),rhsMax =  -7.37111685041713E+01  2.10556429783740E+00
(PID.TID 0000.0001)  ploadbar=  1.01139900387208E+05
 cg2d: Sum(rhs),rhsMax =  -7.45140603962973E+01  2.08303653203549E+00
(PID.TID 0000.0001)  ploadbar=  1.01139165909663E+05
 cg2d: Sum(rhs),rhsMax =  -7.54166798721989E+01  2.05829271083009E+00
(PID.TID 0000.0001)  ploadbar=  1.01138431432118E+05
 cg2d: Sum(rhs),rhsMax =  -7.64458845287062E+01  2.03079019571661E+00
(PID.TID 0000.0001)  ploadbar=  1.01137696954573E+05
 cg2d: Sum(rhs),rhsMax =  -7.76046510130836E+01  2.00069302311901E+00
(PID.TID 0000.0001)  ploadbar=  1.01136962477028E+05
 cg2d: Sum(rhs),rhsMax =  -7.88793513489515E+01  1.96859698543319E+00
(PID.TID 0000.0001)  ploadbar=  1.01136227999483E+05
 cg2d: Sum(rhs),rhsMax =  -8.02414164291029E+01  1.93541532633539E+00
(PID.TID 0000.0001)  ploadbar=  1.01136213456646E+05
 cg2d: Sum(rhs),rhsMax =  -8.16321937766563E+01  1.90267115392727E+00
(PID.TID 0000.0001)  ploadbar=  1.01136198913809E+05
 cg2d: Sum(rhs),rhsMax =  -8.29836360276795E+01  1.87190491634799E+00
(PID.TID 0000.0001)  ploadbar=  1.01136184370972E+05
 cg2d: Sum(rhs),rhsMax =  -8.43177183074508E+01  1.84249345096123E+00
(PID.TID 0000.0001)  ploadbar=  1.01136169828136E+05
 cg2d: Sum(rhs),rhsMax =  -8.55971921498574E+01  1.81514086633655E+00
(PID.TID 0000.0001)  ploadbar=  1.01136155285299E+05
 cg2d: Sum(rhs),rhsMax =  -8.68699913812667E+01  1.78871734676846E+00
(PID.TID 0000.0001)  ploadbar=  1.01136140742462E+05
 cg2d: Sum(rhs),rhsMax =  -8.80803539798680E+01  1.76428960483621E+00
(PID.TID 0000.0001)  ploadbar=  1.01133373279269E+05
 cg2d: Sum(rhs),rhsMax =  -8.92972936210277E+01  1.74037006940299E+00
(PID.TID 0000.0001)  ploadbar=  1.01130605816076E+05
 cg2d: Sum(rhs),rhsMax =  -9.04962011411618E+01  1.71740466926043E+00
(PID.TID 0000.0001)  ploadbar=  1.01127838352883E+05
 cg2d: Sum(rhs),rhsMax =  -9.16506200897153E+01  1.69582673275050E+00
(PID.TID 0000.0001)  ploadbar=  1.01125070889690E+05
 cg2d: Sum(rhs),rhsMax =  -9.27239775663778E+01  1.67620879245694E+00
(PID.TID 0000.0001)  ploadbar=  1.01122303426497E+05
 cg2d: Sum(rhs),rhsMax =  -9.36836783771748E+01  1.65900570463500E+00
(PID.TID 0000.0001)  ploadbar=  1.01119535963304E+05
 cg2d: Sum(rhs),rhsMax =  -9.45475012033030E+01  1.64380752594434E+00
(PID.TID 0000.0001)  ploadbar=  1.01119047836168E+05
 cg2d: Sum(rhs),rhsMax =  -9.53566234758850E+01  1.62980842380834E+00
(PID.TID 0000.0001)  ploadbar=  1.01118559709032E+05
 cg2d: Sum(rhs),rhsMax =  -9.61824517878010E+01  1.61574919851844E+00
(PID.TID 0000.0001)  ploadbar=  1.01118071581896E+05
 cg2d: Sum(rhs),rhsMax =  -9.70943822172153E+01  1.60048567836223E+00
(PID.TID 0000.0001)  ploadbar=  1.01117583454761E+05
 cg2d: Sum(rhs),rhsMax =  -9.81763804213163E+01  1.58272822716765E+00
(PID.TID 0000.0001)  ploadbar=  1.01117095327625E+05
 cg2d: Sum(rhs),rhsMax =  -9.95029123387666E+01  1.56147700024029E+00
(PID.TID 0000.0001)  ploadbar=  1.01116607200489E+05
 cg2d: Sum(rhs),rhsMax =  -1.01113948183988E+02  1.53647007594980E+00
(PID.TID 0000.0001)  ploadbar=  1.01116563310833E+05
 cg2d: Sum(rhs),rhsMax =  -1.02851922745314E+02  1.51039987581941E+00
(PID.TID 0000.0001)  ploadbar=  1.01116519421178E+05
 cg2d: Sum(rhs),rhsMax =  -1.02718586198468E+02  1.51226934760400E+00
(PID.TID 0000.0001)  ploadbar=  1.01116475531522E+05
 cg2d: Sum(rhs),rhsMax =  -1.01650653623907E+02  1.52807774571750E+00
(PID.TID 0000.0001)  ploadbar=  1.01116431641866E+05
 cg2d: Sum(rhs),rhsMax =  -1.00545305104364E+02  1.54480428300640E+00
(PID.TID 0000.0001)  ploadbar=  1.01116387752210E+05
 cg2d: Sum(rhs),rhsMax =  -9.93711287377387E+01  1.56298793254398E+00
(PID.TID 0000.0001)  ploadbar=  1.01116343862555E+05
 cg2d: Sum(rhs),rhsMax =  -9.83006563815998E+01  1.57994998423084E+00
(PID.TID 0000.0001)  ploadbar=  1.01115528977040E+05
 cg2d: Sum(rhs),rhsMax =  -9.75113274223965E+01  1.59268963201205E+00
(PID.TID 0000.0001)  ploadbar=  1.01114714091525E+05
 cg2d: Sum(rhs),rhsMax =  -9.69728174589019E+01  1.60148972072133E+00
(PID.TID 0000.0001)  ploadbar=  1.01113899206010E+05
 cg2d: Sum(rhs),rhsMax =  -9.66076511867370E+01  1.60750038906525E+00
(PID.TID 0000.0001)  ploadbar=  1.01113084320495E+05
 cg2d: Sum(rhs),rhsMax =  -9.63314218476734E+01  1.61206388628101E+00
(PID.TID 0000.0001)  ploadbar=  1.01112269434980E+05
 cg2d: Sum(rhs),rhsMax =  -9.60803031766705E+01  1.61622540641550E+00
(PID.TID 0000.0001)  ploadbar=  1.01111454549465E+05
 cg2d: Sum(rhs),rhsMax =  -9.58088331770331E+01  1.62075385206712E+00
(PID.TID 0000.0001)  ploadbar=  1.01109355735158E+05
 cg2d: Sum(rhs),rhsMax =  -9.55785856562259E+01  1.62460565024318E+00
(PID.TID 0000.0001)  ploadbar=  1.01107256920851E+05
 cg2d: Sum(rhs),rhsMax =  -9.54768818946780E+01  1.62628036756419E+00
(PID.TID 0000.0001)  ploadbar=  1.01105158106545E+05
 cg2d: Sum(rhs),rhsMax =  -9.55796228130144E+01  1.62446727412043E+00
(PID.TID 0000.0001)  ploadbar=  1.01103059292238E+05
 cg2d: Sum(rhs),rhsMax =  -9.58889001222764E+01  1.61914817879757E+00
(PID.TID 0000.0001)  ploadbar=  1.01100960477932E+05
 cg2d: Sum(rhs),rhsMax =  -9.63597672703099E+01  1.61113661597800E+00
(PID.TID 0000.0001)  ploadbar=  1.01098861663625E+05
 cg2d: Sum(rhs),rhsMax =  -9.68715251155501E+01  1.60250892179958E+00
(PID.TID 0000.0001)  ploadbar=  1.01097105164350E+05
 cg2d: Sum(rhs),rhsMax =  -9.73922516058915E+01  1.59380543149019E+00
(PID.TID 0000.0001)  ploadbar=  1.01095348665074E+05
 cg2d: Sum(rhs),rhsMax =  -9.78955941339932E+01  1.58545387044120E+00
(PID.TID 0000.0001)  ploadbar=  1.01093592165798E+05
 cg2d: Sum(rhs),rhsMax =  -9.84060968534621E+01  1.57705078240345E+00
(PID.TID 0000.0001)  ploadbar=  1.01091835666523E+05
 cg2d: Sum(rhs),rhsMax =  -9.89748464509987E+01  1.56778529457135E+00
(PID.TID 0000.0001)  ploadbar=  1.01090079167247E+05
 cg2d: Sum(rhs),rhsMax =  -9.95966002091819E+01  1.55776684950412E+00
(PID.TID 0000.0001)  ploadbar=  1.01088322667972E+05
 cg2d: Sum(rhs),rhsMax =  -1.00258765035793E+02  1.54727102368142E+00
(PID.TID 0000.0001)  ploadbar=  1.01086709248592E+05
 cg2d: Sum(rhs),rhsMax =  -1.00992434674624E+02  1.53584558037932E+00
(PID.TID 0000.0001)  ploadbar=  1.01085095829212E+05
 cg2d: Sum(rhs),rhsMax =  -1.01786816513756E+02  1.52369465888050E+00
(PID.TID 0000.0001)  ploadbar=  1.01083482409832E+05
 cg2d: Sum(rhs),rhsMax =  -1.02626668768477E+02  1.51107616331652E+00
(PID.TID 0000.0001)  ploadbar=  1.01081868990452E+05
 cg2d: Sum(rhs),rhsMax =  -1.03500268619321E+02  1.49818292039643E+00
(PID.TID 0000.0001)  ploadbar=  1.01080255571072E+05
 cg2d: Sum(rhs),rhsMax =  -1.04383442969793E+02  1.48537589764699E+00
(PID.TID 0000.0001)  ploadbar=  1.01078642151692E+05
 cg2d: Sum(rhs),rhsMax =  -1.05259029951091E+02  1.47289875023666E+00
(PID.TID 0000.0001)  ploadbar=  1.01078170061840E+05
 cg2d: Sum(rhs),rhsMax =  -1.06102022833141E+02  1.46108131560230E+00
(PID.TID 0000.0001)  ploadbar=  1.01077697971987E+05
 cg2d: Sum(rhs),rhsMax =  -1.06974866624149E+02  1.44904660621840E+00
(PID.TID 0000.0001)  ploadbar=  1.01077225882135E+05
 cg2d: Sum(rhs),rhsMax =  -1.07964066945358E+02  1.43565563308681E+00
(PID.TID 0000.0001)  ploadbar=  1.01076753792283E+05
 cg2d: Sum(rhs),rhsMax =  -1.09133464636309E+02  1.42015165051340E+00
(PID.TID 0000.0001)  ploadbar=  1.01076281702431E+05
 cg2d: Sum(rhs),rhsMax =  -1.10495643000974E+02  1.40251313679417E+00
(PID.TID 0000.0001)  ploadbar=  1.01075809612579E+05
 cg2d: Sum(rhs),rhsMax =  -1.12040283141463E+02  1.38306376667549E+00
(PID.TID 0000.0001)  ploadbar=  1.01075149106478E+05
 cg2d: Sum(rhs),rhsMax =  -1.11494751882383E+02  1.38972938921013E+00
(PID.TID 0000.0001)  ploadbar=  1.01074488600378E+05
 cg2d: Sum(rhs),rhsMax =  -1.09893104094208E+02  1.40989035803258E+00
(PID.TID 0000.0001)  ploadbar=  1.01073828094277E+05
 cg2d: Sum(rhs),rhsMax =  -1.08629948362963E+02  1.42619569489878E+00
(PID.TID 0000.0001)  ploadbar=  1.01073167588176E+05
 cg2d: Sum(rhs),rhsMax =  -1.07770353752205E+02  1.43748497628987E+00
(PID.TID 0000.0001)  ploadbar=  1.01072507082075E+05
 cg2d: Sum(rhs),rhsMax =  -1.07433673186380E+02  1.44190263772915E+00
(PID.TID 0000.0001)  ploadbar=  1.01071846575975E+05
 cg2d: Sum(rhs),rhsMax =  -1.07678516800493E+02  1.43851416631185E+00
(PID.TID 0000.0001)  ploadbar=  1.01072390244075E+05
 cg2d: Sum(rhs),rhsMax =  -1.07933118078841E+02  1.43498859507629E+00
(PID.TID 0000.0001)  ploadbar=  1.01072933912175E+05
 cg2d: Sum(rhs),rhsMax =  -1.08200670255207E+02  1.43128697103149E+00
(PID.TID 0000.0001)  ploadbar=  1.01073477580275E+05
 cg2d: Sum(rhs),rhsMax =  -1.08468269478525E+02  1.42757955076244E+00
(PID.TID 0000.0001)  ploadbar=  1.01074021248376E+05
 cg2d: Sum(rhs),rhsMax =  -1.08729205488078E+02  1.42395110365003E+00
(PID.TID 0000.0001)  ploadbar=  1.01074564916476E+05
 cg2d: Sum(rhs),rhsMax =  -1.08975480049072E+02  1.42050284948143E+00
(PID.TID 0000.0001)  ploadbar=  1.01075108584576E+05
 cg2d: Sum(rhs),rhsMax =  -1.09135892357647E+02  1.41822087620631E+00
(PID.TID 0000.0001)  ploadbar=  1.01075899665052E+05
 cg2d: Sum(rhs),rhsMax =  -1.09276571188858E+02  1.41623458668056E+00
(PID.TID 0000.0001)  ploadbar=  1.01076690745529E+05
 cg2d: Sum(rhs),rhsMax =  -1.09406939479011E+02  1.41441775333313E+00
(PID.TID 0000.0001)  ploadbar=  1.01077481826005E+05
 cg2d: Sum(rhs),rhsMax =  -1.09540065700172E+02  1.41259795058520E+00
(PID.TID 0000.0001)  ploadbar=  1.01078272906482E+05
 cg2d: Sum(rhs),rhsMax =  -1.09692051488187E+02  1.41056743884355E+00
(PID.TID 0000.0001)  ploadbar=  1.01079063986958E+05
 cg2d: Sum(rhs),rhsMax =  -1.09882283323745E+02  1.40807553748703E+00
(PID.TID 0000.0001)  ploadbar=  1.01079855067435E+05
 cg2d: Sum(rhs),rhsMax =  -1.10061529275184E+02  1.40572588916092E+00
(PID.TID 0000.0001)  ploadbar=  1.01081114073955E+05
 cg2d: Sum(rhs),rhsMax =  -1.10273274914254E+02  1.40296499417729E+00
(PID.TID 0000.0001)  ploadbar=  1.01082373080476E+05
 cg2d: Sum(rhs),rhsMax =  -1.10523115306717E+02  1.39972461322187E+00
(PID.TID 0000.0001)  ploadbar=  1.01083632086997E+05
 cg2d: Sum(rhs),rhsMax =  -1.10781530352106E+02  1.39638146482181E+00
(PID.TID 0000.0001)  ploadbar=  1.01084891093517E+05
 cg2d: Sum(rhs),rhsMax =  -1.09219005053298E+02  1.41626791288995E+00
(PID.TID 0000.0001)  ploadbar=  1.01086150100038E+05
 cg2d: Sum(rhs),rhsMax =  -1.07316891976605E+02  1.44126452770242E+00
(PID.TID 0000.0001)  ploadbar=  1.01087409106559E+05
 cg2d: Sum(rhs),rhsMax =  -1.04260511126345E+02  1.48341040079939E+00
(PID.TID 0000.0001)  ploadbar=  1.01088909182810E+05
 cg2d: Sum(rhs),rhsMax =  -1.01013916516464E+02  1.53098100222007E+00
(PID.TID 0000.0001)  ploadbar=  1.01090409259061E+05
 cg2d: Sum(rhs),rhsMax =  -9.79466302706814E+01  1.57881370724552E+00
(PID.TID 0000.0001)  ploadbar=  1.01091909335312E+05
 cg2d: Sum(rhs),rhsMax =  -9.52918153303086E+01  1.62268057670198E+00
(PID.TID 0000.0001)  ploadbar=  1.01093409411563E+05
 cg2d: Sum(rhs),rhsMax =  -9.32433645325093E+01  1.65819908120540E+00
(PID.TID 0000.0001)  ploadbar=  1.01094909487814E+05
 cg2d: Sum(rhs),rhsMax =  -9.18175825618512E+01  1.68380392874019E+00
(PID.TID 0000.0001)  ploadbar=  1.01096409564065E+05
 cg2d: Sum(rhs),rhsMax =  -9.10562973161016E+01  1.69773785022290E+00
(PID.TID 0000.0001)  ploadbar=  1.01096510419475E+05
 cg2d: Sum(rhs),rhsMax =  -9.08800208676570E+01  1.70088675341184E+00
(PID.TID 0000.0001)  ploadbar=  1.01096611274885E+05
 cg2d: Sum(rhs),rhsMax =  -9.07329486776318E+01  1.70349525776676E+00
(PID.TID 0000.0001)  ploadbar=  1.01096712130295E+05
 cg2d: Sum(rhs),rhsMax =  -9.09185224235562E+01  1.69986373670053E+00
(PID.TID 0000.0001)  ploadbar=  1.01096812985705E+05
 cg2d: Sum(rhs),rhsMax =  -9.12874737829691E+01  1.69283003009504E+00
(PID.TID 0000.0001)  ploadbar=  1.01096913841115E+05
 cg2d: Sum(rhs),rhsMax =  -9.16977648799884E+01  1.68508130486845E+00
(PID.TID 0000.0001)  ploadbar=  1.01097014696525E+05
 cg2d: Sum(rhs),rhsMax =  -9.20703645970758E+01  1.67812679304446E+00
(PID.TID 0000.0001)  ploadbar=  1.01096653501868E+05
 cg2d: Sum(rhs),rhsMax =  -9.23658773401278E+01  1.67266016804773E+00
(PID.TID 0000.0001)  ploadbar=  1.01096292307212E+05
 cg2d: Sum(rhs),rhsMax =  -9.25931539058940E+01  1.66848882927928E+00
(PID.TID 0000.0001)  ploadbar=  1.01095931112556E+05
 cg2d: Sum(rhs),rhsMax =  -9.28789900485363E+01  1.66331779514844E+00
(PID.TID 0000.0001)  ploadbar=  1.01095569917900E+05
 cg2d: Sum(rhs),rhsMax =  -9.32425455597774E+01  1.65682242883322E+00
(PID.TID 0000.0001)  ploadbar=  1.01095208723243E+05
 cg2d: Sum(rhs),rhsMax =  -9.37368128499598E+01  1.64809642157252E+00
(PID.TID 0000.0001)  ploadbar=  1.01094847528587E+05
 cg2d: Sum(rhs),rhsMax =  -9.42624790121721E+01  1.63892680106401E+00
(PID.TID 0000.0001)  ploadbar=  1.01095354837519E+05
 cg2d: Sum(rhs),rhsMax =  -9.47762628941020E+01  1.63007188415293E+00
(PID.TID 0000.0001)  ploadbar=  1.01095862146451E+05
 cg2d: Sum(rhs),rhsMax =  -9.52435518196602E+01  1.62210990553556E+00
(PID.TID 0000.0001)  ploadbar=  1.01096369455383E+05
 cg2d: Sum(rhs),rhsMax =  -9.56201554231399E+01  1.61576113700483E+00
(PID.TID 0000.0001)  ploadbar=  1.01096876764316E+05
 cg2d: Sum(rhs),rhsMax =  -9.58519635131845E+01  1.61189430761166E+00
(PID.TID 0000.0001)  ploadbar=  1.01097384073248E+05
 cg2d: Sum(rhs),rhsMax =  -9.58770096577642E+01  1.61151129351768E+00
(PID.TID 0000.0001)  ploadbar=  1.01097891382180E+05
 cg2d: Sum(rhs),rhsMax =  -9.57168883142380E+01  1.61424481766248E+00
(PID.TID 0000.0001)  ploadbar=  1.01098282041830E+05
 cg2d: Sum(rhs),rhsMax =  -9.53942519618152E+01  1.61973704532443E+00
(PID.TID 0000.0001)  ploadbar=  1.01098672701481E+05
 cg2d: Sum(rhs),rhsMax =  -9.49720775598039E+01  1.62696095554858E+00
(PID.TID 0000.0001)  ploadbar=  1.01099063361132E+05
 cg2d: Sum(rhs),rhsMax =  -9.45374435355337E+01  1.63445289077944E+00
(PID.TID 0000.0001)  ploadbar=  1.01099454020782E+05
 cg2d: Sum(rhs),rhsMax =  -9.41627377390825E+01  1.64095346875001E+00
(PID.TID 0000.0001)  ploadbar=  1.01099844680433E+05
 cg2d: Sum(rhs),rhsMax =  -9.38743999439850E+01  1.64596986902425E+00
(PID.TID 0000.0001)  ploadbar=  1.01100235340084E+05
 cg2d: Sum(rhs),rhsMax =  -9.37087150636889E+01  1.64885553633487E+00
(PID.TID 0000.0001)  ploadbar=  1.01100460565464E+05
 cg2d: Sum(rhs),rhsMax =  -9.36127254738557E+01  1.65052017146175E+00
(PID.TID 0000.0001)  ploadbar=  1.01100685790844E+05
 cg2d: Sum(rhs),rhsMax =  -9.35352015312651E+01  1.65185792822745E+00
(PID.TID 0000.0001)  ploadbar=  1.01100911016225E+05
 cg2d: Sum(rhs),rhsMax =  -9.34294207754737E+01  1.65369061412958E+00
(PID.TID 0000.0001)  ploadbar=  1.01101136241605E+05
 cg2d: Sum(rhs),rhsMax =  -9.30770689424548E+01  1.65990278036006E+00
(PID.TID 0000.0001)  ploadbar=  1.01101361466985E+05
 cg2d: Sum(rhs),rhsMax =  -9.26915255773098E+01  1.66674562030240E+00
(PID.TID 0000.0001)  ploadbar=  1.01101586692365E+05
 cg2d: Sum(rhs),rhsMax =  -9.22959467237281E+01  1.67387047043452E+00
(PID.TID 0000.0001)  ploadbar=  1.01101489157571E+05
 cg2d: Sum(rhs),rhsMax =  -9.19122841591050E+01  1.68087981629187E+00
(PID.TID 0000.0001)  ploadbar=  1.01101391622776E+05
 cg2d: Sum(rhs),rhsMax =  -9.15636280989201E+01  1.68734092786762E+00
(PID.TID 0000.0001)  ploadbar=  1.01101294087981E+05
 cg2d: Sum(rhs),rhsMax =  -9.12199857073234E+01  1.69379481501446E+00
(PID.TID 0000.0001)  ploadbar=  1.01101196553187E+05
 cg2d: Sum(rhs),rhsMax =  -9.09711305271192E+01  1.69855931877666E+00
(PID.TID 0000.0001)  ploadbar=  1.01101099018392E+05
 cg2d: Sum(rhs),rhsMax =  -9.08879358468465E+01  1.70027643394719E+00
(PID.TID 0000.0001)  ploadbar=  1.01101001483597E+05
 cg2d: Sum(rhs),rhsMax =  -9.08643836189911E+01  1.70087944633817E+00
(PID.TID 0000.0001)  ploadbar=  1.01100909485033E+05
 cg2d: Sum(rhs),rhsMax =  -9.08483059893258E+01  1.70133929699621E+00
(PID.TID 0000.0001)  ploadbar=  1.01100817486468E+05
 cg2d: Sum(rhs),rhsMax =  -9.08489163925277E+01  1.70148011843218E+00
(PID.TID 0000.0001)  ploadbar=  1.01100725487904E+05
 cg2d: Sum(rhs),rhsMax =  -9.08462892208767E+01  1.70167424187460E+00
(PID.TID 0000.0001)  ploadbar=  1.01100633489339E+05
 cg2d: Sum(rhs),rhsMax =  -9.07944028349313E+01  1.70277977271154E+00
(PID.TID 0000.0001)  ploadbar=  1.01100541490774E+05
 cg2d: Sum(rhs),rhsMax =  -9.07429921477233E+01  1.70386381401911E+00
(PID.TID 0000.0001)  ploadbar=  1.01100449492210E+05
 cg2d: Sum(rhs),rhsMax =  -9.02373032178114E+01  1.71353236633612E+00
(PID.TID 0000.0001)  ploadbar=  1.01099182721959E+05
 cg2d: Sum(rhs),rhsMax =  -8.96066520606869E+01  1.72570991162787E+00
(PID.TID 0000.0001)  ploadbar=  1.01097915951709E+05
 cg2d: Sum(rhs),rhsMax =  -8.90393995391831E+01  1.73681581040349E+00
(PID.TID 0000.0001)  ploadbar=  1.01096649181458E+05
 cg2d: Sum(rhs),rhsMax =  -8.85215940445202E+01  1.74707633512373E+00
(PID.TID 0000.0001)  ploadbar=  1.01095382411208E+05
 cg2d: Sum(rhs),rhsMax =  -8.80234514146578E+01  1.75704786887501E+00
(PID.TID 0000.0001)  ploadbar=  1.01094115640957E+05
 cg2d: Sum(rhs),rhsMax =  -8.75100960430549E+01  1.76741769069688E+00
(PID.TID 0000.0001)  ploadbar=  1.01092848870707E+05
 cg2d: Sum(rhs),rhsMax =  -8.69865127471516E+01  1.77811009291807E+00
(PID.TID 0000.0001)  ploadbar=  1.01093164881845E+05
 cg2d: Sum(rhs),rhsMax =  -8.64850865082855E+01  1.78846118181441E+00
(PID.TID 0000.0001)  ploadbar=  1.01093480892983E+05
 cg2d: Sum(rhs),rhsMax =  -8.60173987901291E+01  1.79821331952660E+00
(PID.TID 0000.0001)  ploadbar=  1.01093796904121E+05
 cg2d: Sum(rhs),rhsMax =  -8.55835965077162E+01  1.80733896153277E+00
(PID.TID 0000.0001)  ploadbar=  1.01094112915259E+05
 cg2d: Sum(rhs),rhsMax =  -8.51846425485052E+01  1.81579457757304E+00
(PID.TID 0000.0001)  ploadbar=  1.01094428926398E+05
 cg2d: Sum(rhs),rhsMax =  -8.48242149726187E+01  1.82347814129888E+00
(PID.TID 0000.0001)  ploadbar=  1.01094744937536E+05
 cg2d: Sum(rhs),rhsMax =  -8.45091823445676E+01  1.83028708537438E+00
(PID.TID 0000.0001)  ploadbar=  1.01095236471893E+05
 cg2d: Sum(rhs),rhsMax =  -8.42254301475504E+01  1.83650636222462E+00
(PID.TID 0000.0001)  ploadbar=  1.01095728006250E+05
 cg2d: Sum(rhs),rhsMax =  -8.39707443256722E+01  1.84216948077650E+00
(PID.TID 0000.0001)  ploadbar=  1.01096219540608E+05
 cg2d: Sum(rhs),rhsMax =  -8.37256588301589E+01  1.84768940652434E+00
(PID.TID 0000.0001)  ploadbar=  1.01096711074965E+05
 cg2d: Sum(rhs),rhsMax =  -8.34838434098905E+01  1.85319950546994E+00
(PID.TID 0000.0001)  ploadbar=  1.01097202609322E+05
 cg2d: Sum(rhs),rhsMax =  -8.32746421223004E+01  1.85804218235566E+00
(PID.TID 0000.0001)  ploadbar=  1.01097694143680E+05
 cg2d: Sum(rhs),rhsMax =  -8.31351916036101E+01  1.86133744349315E+00
(PID.TID 0000.0001)  ploadbar=  1.01097644218405E+05
 cg2d: Sum(rhs),rhsMax =  -8.30880029675910E+01  1.86256274840717E+00
(PID.TID 0000.0001)  ploadbar=  1.01097594293130E+05
 cg2d: Sum(rhs),rhsMax =  -8.31154341497957E+01  1.86210166547919E+00
(PID.TID 0000.0001)  ploadbar=  1.01097544367855E+05
 cg2d: Sum(rhs),rhsMax =  -8.31632729706927E+01  1.86116658331950E+00
(PID.TID 0000.0001)  ploadbar=  1.01097494442579E+05
 cg2d: Sum(rhs),rhsMax =  -8.32128164832378E+01  1.86017343253094E+00
(PID.TID 0000.0001)  ploadbar=  1.01097444517304E+05
 cg2d: Sum(rhs),rhsMax =  -8.32428829490312E+01  1.85958952580946E+00
(PID.TID 0000.0001)  ploadbar=  1.01097394592029E+05
 cg2d: Sum(rhs),rhsMax =  -8.32612513650846E+01  1.85927479332676E+00
(PID.TID 0000.0001)  ploadbar=  1.01097645548668E+05
 cg2d: Sum(rhs),rhsMax =  -8.32522994564757E+01  1.85957558753804E+00
(PID.TID 0000.0001)  ploadbar=  1.01097896505308E+05
 cg2d: Sum(rhs),rhsMax =  -8.32174362990446E+01  1.86045797132883E+00
(PID.TID 0000.0001)  ploadbar=  1.01098147461947E+05
 cg2d: Sum(rhs),rhsMax =  -8.31637568961046E+01  1.86176194575448E+00
(PID.TID 0000.0001)  ploadbar=  1.01098398418586E+05
 cg2d: Sum(rhs),rhsMax =  -8.30933893999202E+01  1.86343604040927E+00
(PID.TID 0000.0001)  ploadbar=  1.01098649375225E+05
 cg2d: Sum(rhs),rhsMax =  -8.30085045895425E+01  1.86542669830659E+00
(PID.TID 0000.0001)  ploadbar=  1.01098900331865E+05
 cg2d: Sum(rhs),rhsMax =  -8.29264391964113E+01  1.86733791210715E+00
(PID.TID 0000.0001)  ploadbar=  1.01100089074953E+05
 cg2d: Sum(rhs),rhsMax =  -8.28754829518634E+01  1.86852880012140E+00
(PID.TID 0000.0001)  ploadbar=  1.01101277818041E+05
 cg2d: Sum(rhs),rhsMax =  -8.28587861840992E+01  1.86892150527975E+00
(PID.TID 0000.0001)  ploadbar=  1.01102466561129E+05
 cg2d: Sum(rhs),rhsMax =  -8.28666464186517E+01  1.86873141280412E+00
(PID.TID 0000.0001)  ploadbar=  1.01103655304217E+05
 cg2d: Sum(rhs),rhsMax =  -8.28846345556824E+01  1.86828090926317E+00
(PID.TID 0000.0001)  ploadbar=  1.01104844047305E+05
 cg2d: Sum(rhs),rhsMax =  -8.29035449912837E+01  1.86777242970558E+00
(PID.TID 0000.0001)  ploadbar=  1.01106032790393E+05
 cg2d: Sum(rhs),rhsMax =  -8.29241458105484E+01  1.86726158312350E+00
(PID.TID 0000.0001)  ploadbar=  1.01107494665371E+05
 cg2d: Sum(rhs),rhsMax =  -8.29359833815387E+01  1.86698202754113E+00
(PID.TID 0000.0001)  ploadbar=  1.01108956540348E+05
 cg2d: Sum(rhs),rhsMax =  -8.29314007674268E+01  1.86710340696370E+00
(PID.TID 0000.0001)  ploadbar=  1.01110418415326E+05
 cg2d: Sum(rhs),rhsMax =  -8.28988725745963E+01  1.86788141512622E+00
(PID.TID 0000.0001)  ploadbar=  1.01111880290304E+05
 cg2d: Sum(rhs),rhsMax =  -8.28331352422589E+01  1.86943250909659E+00
(PID.TID 0000.0001)  ploadbar=  1.01113342165282E+05
 cg2d: Sum(rhs),rhsMax =  -8.27370465170429E+01  1.87169293577367E+00
(PID.TID 0000.0001)  ploadbar=  1.01114804040260E+05
 cg2d: Sum(rhs),rhsMax =  -8.26330229406151E+01  1.87411420729635E+00
(PID.TID 0000.0001)  ploadbar=  1.01115772848129E+05
 cg2d: Sum(rhs),rhsMax =  -8.25248992678850E+01  1.87660882561722E+00
(PID.TID 0000.0001)  ploadbar=  1.01116741655997E+05
 cg2d: Sum(rhs),rhsMax =  -8.24258426824224E+01  1.87887047458670E+00
(PID.TID 0000.0001)  ploadbar=  1.01117710463866E+05
 cg2d: Sum(rhs),rhsMax =  -8.23472730564943E+01  1.88063144865051E+00
(PID.TID 0000.0001)  ploadbar=  1.01118679271735E+05
 cg2d: Sum(rhs),rhsMax =  -8.22941530441339E+01  1.88177488642154E+00
(PID.TID 0000.0001)  ploadbar=  1.01119648079604E+05
 cg2d: Sum(rhs),rhsMax =  -8.22621849823500E+01  1.88239327646705E+00
(PID.TID 0000.0001)  ploadbar=  1.01120616887473E+05
 cg2d: Sum(rhs),rhsMax =  -8.22572436229223E+01  1.88241343066967E+00
(PID.TID 0000.0001)  ploadbar=  1.01122098466434E+05
 cg2d: Sum(rhs),rhsMax =  -8.22527296304630E+01  1.88243913620882E+00
(PID.TID 0000.0001)  ploadbar=  1.01123580045396E+05
 cg2d: Sum(rhs),rhsMax =  -8.22326774722947E+01  1.88283119736139E+00
(PID.TID 0000.0001)  ploadbar=  1.01125061624357E+05
 cg2d: Sum(rhs),rhsMax =  -8.21831840175655E+01  1.88390506342815E+00
(PID.TID 0000.0001)  ploadbar=  1.01126543203319E+05
 cg2d: Sum(rhs),rhsMax =  -8.20988305582925E+01  1.88578232651496E+00
(PID.TID 0000.0001)  ploadbar=  1.01128024782280E+05
 cg2d: Sum(rhs),rhsMax =  -8.19903121073321E+01  1.88821567555470E+00
(PID.TID 0000.0001)  ploadbar=  1.01129506361241E+05
 cg2d: Sum(rhs),rhsMax =  -8.18748678985630E+01  1.89081619001913E+00
(PID.TID 0000.0001)  ploadbar=  1.01130531132215E+05
 cg2d: Sum(rhs),rhsMax =  -8.17799742180087E+01  1.89294530891552E+00
(PID.TID 0000.0001)  ploadbar=  1.01131555903189E+05
 cg2d: Sum(rhs),rhsMax =  -8.17051867473474E+01  1.89460543066034E+00
(PID.TID 0000.0001)  ploadbar=  1.01132580674162E+05
 cg2d: Sum(rhs),rhsMax =  -8.16611044093825E+01  1.89554452608239E+00
(PID.TID 0000.0001)  ploadbar=  1.01133605445136E+05
 cg2d: Sum(rhs),rhsMax =  -8.16650065353734E+01  1.89535226200955E+00
(PID.TID 0000.0001)  ploadbar=  1.01134630216109E+05
 cg2d: Sum(rhs),rhsMax =  -8.17431834216500E+01  1.89341317128963E+00
(PID.TID 0000.0001)  ploadbar=  1.01135654987083E+05
 cg2d: Sum(rhs),rhsMax =  -8.19638101684479E+01  1.88822721874621E+00
(PID.TID 0000.0001)  ploadbar=  1.01136191457675E+05
 cg2d: Sum(rhs),rhsMax =  -8.24266612692831E+01  1.87756932656659E+00
(PID.TID 0000.0001)  ploadbar=  1.01136727928268E+05
 cg2d: Sum(rhs),rhsMax =  -8.30580220491385E+01  1.86327408284822E+00
(PID.TID 0000.0001)  ploadbar=  1.01137264398860E+05
 cg2d: Sum(rhs),rhsMax =  -8.37120695445996E+01  1.84872538750068E+00
(PID.TID 0000.0001)  ploadbar=  1.01137800869453E+05
 cg2d: Sum(rhs),rhsMax =  -8.43469021421171E+01  1.83484967177062E+00
(PID.TID 0000.0001)  ploadbar=  1.01138337340045E+05
 cg2d: Sum(rhs),rhsMax =  -8.49085551682182E+01  1.82277506726112E+00
(PID.TID 0000.0001)  ploadbar=  1.01138873810638E+05
 cg2d: Sum(rhs),rhsMax =  -8.53576408672454E+01  1.81323587228950E+00
(PID.TID 0000.0001)  ploadbar=  1.01139421878085E+05
 cg2d: Sum(rhs),rhsMax =  -8.58042420619734E+01  1.80383630300302E+00
(PID.TID 0000.0001)  ploadbar=  1.01139969945532E+05
 cg2d: Sum(rhs),rhsMax =  -8.62594421002017E+01  1.79434129016947E+00
(PID.TID 0000.0001)  ploadbar=  1.01140518012980E+05
 cg2d: Sum(rhs),rhsMax =  -8.67641234083711E+01  1.78391147940916E+00
(PID.TID 0000.0001)  ploadbar=  1.01141066080427E+05
 cg2d: Sum(rhs),rhsMax =  -8.73945027358859E+01  1.77103238567833E+00
(PID.TID 0000.0001)  ploadbar=  1.01141614147874E+05
 cg2d: Sum(rhs),rhsMax =  -8.81142923058727E+01  1.75652991295910E+00
(PID.TID 0000.0001)  ploadbar=  1.01142162215322E+05
 cg2d: Sum(rhs),rhsMax =  -8.87051249688133E+01  1.74481376825785E+00
(PID.TID 0000.0001)  ploadbar=  1.01142196199026E+05
 cg2d: Sum(rhs),rhsMax =  -8.88715085716633E+01  1.74154606915182E+00
(PID.TID 0000.0001)  ploadbar=  1.01142230182731E+05
 cg2d: Sum(rhs),rhsMax =  -8.85168229075436E+01  1.74853610991211E+00
(PID.TID 0000.0001)  ploadbar=  1.01142264166436E+05
 cg2d: Sum(rhs),rhsMax =  -8.77355364157706E+01  1.76413125414420E+00
(PID.TID 0000.0001)  ploadbar=  1.01142298150141E+05
 cg2d: Sum(rhs),rhsMax =  -8.67234364777756E+01  1.78475380418622E+00
(PID.TID 0000.0001)  ploadbar=  1.01142332133846E+05
 cg2d: Sum(rhs),rhsMax =  -8.56393758489269E+01  1.80738570855395E+00
(PID.TID 0000.0001)  ploadbar=  1.01142366117551E+05
 cg2d: Sum(rhs),rhsMax =  -8.46754624403163E+01  1.82799027924546E+00
(PID.TID 0000.0001)  ploadbar=  1.01141658589230E+05
 cg2d: Sum(rhs),rhsMax =  -8.38985683919534E+01  1.84493606956779E+00
(PID.TID 0000.0001)  ploadbar=  1.01140951060910E+05
 cg2d: Sum(rhs),rhsMax =  -8.33407395938897E+01  1.85728901917100E+00
(PID.TID 0000.0001)  ploadbar=  1.01140243532590E+05
 cg2d: Sum(rhs),rhsMax =  -8.30101821558927E+01  1.86467290211657E+00
(PID.TID 0000.0001)  ploadbar=  1.01139536004269E+05
 cg2d: Sum(rhs),rhsMax =  -8.28855755364892E+01  1.86744382964494E+00
(PID.TID 0000.0001)  ploadbar=  1.01138828475949E+05
 cg2d: Sum(rhs),rhsMax =  -8.28810147831464E+01  1.86749063115081E+00
(PID.TID 0000.0001)  ploadbar=  1.01138120947628E+05
 cg2d: Sum(rhs),rhsMax =  -8.29064218142426E+01  1.86690426790974E+00
(PID.TID 0000.0001)  ploadbar=  1.01137826229348E+05
 cg2d: Sum(rhs),rhsMax =  -8.30096588995938E+01  1.86460963249526E+00
(PID.TID 0000.0001)  ploadbar=  1.01137531511067E+05
 cg2d: Sum(rhs),rhsMax =  -8.32467084154171E+01  1.85936515745308E+00
(PID.TID 0000.0001)  ploadbar=  1.01137236792786E+05
 cg2d: Sum(rhs),rhsMax =  -8.36268280060021E+01  1.85101193865822E+00
(PID.TID 0000.0001)  ploadbar=  1.01136942074505E+05
 cg2d: Sum(rhs),rhsMax =  -8.41348594169719E+01  1.83996295356587E+00
(PID.TID 0000.0001)  ploadbar=  1.01136647356224E+05
 cg2d: Sum(rhs),rhsMax =  -8.47329918162620E+01  1.82712912289683E+00
(PID.TID 0000.0001)  ploadbar=  1.01136352637943E+05
 cg2d: Sum(rhs),rhsMax =  -8.53245292670121E+01  1.81461690385335E+00
(PID.TID 0000.0001)  ploadbar=  1.01135267393502E+05
 cg2d: Sum(rhs),rhsMax =  -8.58375639094756E+01  1.80392387452200E+00
(PID.TID 0000.0001)  ploadbar=  1.01134182149061E+05
 cg2d: Sum(rhs),rhsMax =  -8.62454561412529E+01  1.79553921272522E+00
(PID.TID 0000.0001)  ploadbar=  1.01133096904619E+05
 cg2d: Sum(rhs),rhsMax =  -8.65412278403463E+01  1.78954458590055E+00
(PID.TID 0000.0001)  ploadbar=  1.01132011660178E+05
 cg2d: Sum(rhs),rhsMax =  -8.67536027674643E+01  1.78529811247226E+00
(PID.TID 0000.0001)  ploadbar=  1.01130926415737E+05
 cg2d: Sum(rhs),rhsMax =  -8.69151895068227E+01  1.78210452475439E+00
(PID.TID 0000.0001)  ploadbar=  1.01129841171295E+05
 cg2d: Sum(rhs),rhsMax =  -8.70440810366962E+01  1.77959164438965E+00
(PID.TID 0000.0001)  ploadbar=  1.01128855471939E+05
 cg2d: Sum(rhs),rhsMax =  -8.71618546559379E+01  1.77731164639766E+00
(PID.TID 0000.0001)  ploadbar=  1.01127869772582E+05
 cg2d: Sum(rhs),rhsMax =  -8.72801157483187E+01  1.77502544841275E+00
(PID.TID 0000.0001)  ploadbar=  1.01126884073225E+05
 cg2d: Sum(rhs),rhsMax =  -8.73928365604374E+01  1.77285111051401E+00
(PID.TID 0000.0001)  ploadbar=  1.01125898373869E+05
 cg2d: Sum(rhs),rhsMax =  -8.75040957035254E+01  1.77070300019084E+00
(PID.TID 0000.0001)  ploadbar=  1.01124912674512E+05
 cg2d: Sum(rhs),rhsMax =  -8.75960598268407E+01  1.76893626664835E+00
(PID.TID 0000.0001)  ploadbar=  1.01123926975155E+05
 cg2d: Sum(rhs),rhsMax =  -8.76162851219368E+01  1.76860110191958E+00
(PID.TID 0000.0001)  ploadbar=  1.01122239417931E+05
 cg2d: Sum(rhs),rhsMax =  -8.75705642562256E+01  1.76957816117052E+00
(PID.TID 0000.0001)  ploadbar=  1.01120551860707E+05
 cg2d: Sum(rhs),rhsMax =  -8.74479311647299E+01  1.77209215559704E+00
(PID.TID 0000.0001)  ploadbar=  1.01118864303483E+05
 cg2d: Sum(rhs),rhsMax =  -8.72668780854628E+01  1.77577686896878E+00
(PID.TID 0000.0001)  ploadbar=  1.01117176746259E+05
 cg2d: Sum(rhs),rhsMax =  -8.70513530260296E+01  1.78015494295810E+00
(PID.TID 0000.0001)  ploadbar=  1.01115489189035E+05
 cg2d: Sum(rhs),rhsMax =  -8.68231506655857E+01  1.78478532103274E+00
(PID.TID 0000.0001)  ploadbar=  1.01113801631811E+05
 cg2d: Sum(rhs),rhsMax =  -8.65751731138495E+01  1.78988717637116E+00
(PID.TID 0000.0001)  ploadbar=  1.01112924634693E+05
 cg2d: Sum(rhs),rhsMax =  -8.63139557588679E+01  1.79533258333959E+00
(PID.TID 0000.0001)  ploadbar=  1.01112047637575E+05
 cg2d: Sum(rhs),rhsMax =  -8.60891352536692E+01  1.80008477078015E+00
(PID.TID 0000.0001)  ploadbar=  1.01111170640457E+05
 cg2d: Sum(rhs),rhsMax =  -8.59439828211115E+01  1.80321967575474E+00
(PID.TID 0000.0001)  ploadbar=  1.01110293643339E+05
 cg2d: Sum(rhs),rhsMax =  -8.57961855263262E+01  1.80644857162872E+00
(PID.TID 0000.0001)  ploadbar=  1.01109416646221E+05
 cg2d: Sum(rhs),rhsMax =  -8.55831591573742E+01  1.81108702958144E+00
(PID.TID 0000.0001)  ploadbar=  1.01108539649103E+05
 cg2d: Sum(rhs),rhsMax =  -8.54033917782264E+01  1.81504751542879E+00
(PID.TID 0000.0001)  ploadbar=  1.01107580109288E+05
 cg2d: Sum(rhs),rhsMax =  -8.52742660903131E+01  1.81794660926722E+00
(PID.TID 0000.0001)  ploadbar=  1.01106620569474E+05
 cg2d: Sum(rhs),rhsMax =  -8.51737522827610E+01  1.82024221289169E+00
(PID.TID 0000.0001)  ploadbar=  1.01105661029659E+05
 cg2d: Sum(rhs),rhsMax =  -8.50839104437812E+01  1.82230913168239E+00
(PID.TID 0000.0001)  ploadbar=  1.01104701489845E+05
 cg2d: Sum(rhs),rhsMax =  -8.47269663268946E+01  1.83012034578725E+00
(PID.TID 0000.0001)  ploadbar=  1.01103741950030E+05
 cg2d: Sum(rhs),rhsMax =  -8.43533544391902E+01  1.83834545352723E+00
(PID.TID 0000.0001)  ploadbar=  1.01102782410216E+05
 cg2d: Sum(rhs),rhsMax =  -8.39669401263851E+01  1.84693418338045E+00
(PID.TID 0000.0001)  ploadbar=  1.01102659078988E+05
 cg2d: Sum(rhs),rhsMax =  -8.36226716088171E+01  1.85467322011106E+00
(PID.TID 0000.0001)  ploadbar=  1.01102535747760E+05
 cg2d: Sum(rhs),rhsMax =  -8.33549747487235E+01  1.86077016044810E+00
(PID.TID 0000.0001)  ploadbar=  1.01102412416532E+05
 cg2d: Sum(rhs),rhsMax =  -8.31820289626931E+01  1.86477966101430E+00
(PID.TID 0000.0001)  ploadbar=  1.01102289085304E+05
 cg2d: Sum(rhs),rhsMax =  -8.31060034282473E+01  1.86662374303293E+00
(PID.TID 0000.0001)  ploadbar=  1.01102165754076E+05
 cg2d: Sum(rhs),rhsMax =  -8.31173107412371E+01  1.86649982015332E+00
(PID.TID 0000.0001)  ploadbar=  1.01102042422848E+05
 cg2d: Sum(rhs),rhsMax =  -8.31824109781042E+01  1.86515259672956E+00
(PID.TID 0000.0001)  ploadbar=  1.01102374661914E+05
 cg2d: Sum(rhs),rhsMax =  -8.32532713960457E+01  1.86366027425228E+00
(PID.TID 0000.0001)  ploadbar=  1.01102706900981E+05
 cg2d: Sum(rhs),rhsMax =  -8.32307456781183E+01  1.86423829160496E+00
(PID.TID 0000.0001)  ploadbar=  1.01103039140047E+05
 cg2d: Sum(rhs),rhsMax =  -8.28962341670916E+01  1.87180853287186E+00
(PID.TID 0000.0001)  ploadbar=  1.01103371379113E+05
 cg2d: Sum(rhs),rhsMax =  -8.26034339831559E+01  1.87845943928191E+00
(PID.TID 0000.0001)  ploadbar=  1.01103703618179E+05
 cg2d: Sum(rhs),rhsMax =  -8.23646961764522E+01  1.88388128415990E+00
(PID.TID 0000.0001)  ploadbar=  1.01104035857246E+05
 cg2d: Sum(rhs),rhsMax =  -8.21869202358562E+01  1.88797177370974E+00
(PID.TID 0000.0001)  ploadbar=  1.01104386685685E+05
 cg2d: Sum(rhs),rhsMax =  -8.20422242781343E+01  1.89135203204032E+00
(PID.TID 0000.0001)  ploadbar=  1.01104737514123E+05
 cg2d: Sum(rhs),rhsMax =  -8.19143246644450E+01  1.89438535926854E+00
(PID.TID 0000.0001)  ploadbar=  1.01105088342562E+05
 cg2d: Sum(rhs),rhsMax =  -8.17844819330336E+01  1.89749484214584E+00
(PID.TID 0000.0001)  ploadbar=  1.01105439171001E+05
 cg2d: Sum(rhs),rhsMax =  -8.16436349395851E+01  1.90088924346938E+00
(PID.TID 0000.0001)  ploadbar=  1.01105789999440E+05
 cg2d: Sum(rhs),rhsMax =  -8.14877141918374E+01  1.90466223824813E+00
(PID.TID 0000.0001)  ploadbar=  1.01106140827879E+05
 cg2d: Sum(rhs),rhsMax =  -8.13133966293232E+01  1.90889633599468E+00
(PID.TID 0000.0001)  ploadbar=  1.01107159383190E+05
 cg2d: Sum(rhs),rhsMax =  -8.11167392892167E+01  1.91368465388951E+00
(PID.TID 0000.0001)  ploadbar=  1.01108177938501E+05
 cg2d: Sum(rhs),rhsMax =  -8.09078632425751E+01  1.91878893088593E+00
(PID.TID 0000.0001)  ploadbar=  1.01109196493812E+05
 cg2d: Sum(rhs),rhsMax =  -8.07061398288698E+01  1.92374997314858E+00
(PID.TID 0000.0001)  ploadbar=  1.01110215049123E+05
 cg2d: Sum(rhs),rhsMax =  -8.05258987956647E+01  1.92822161325865E+00
(PID.TID 0000.0001)  ploadbar=  1.01111233604434E+05
 cg2d: Sum(rhs),rhsMax =  -8.03789151886270E+01  1.93191061822335E+00
(PID.TID 0000.0001)  ploadbar=  1.01112252159745E+05
 cg2d: Sum(rhs),rhsMax =  -8.02824318669228E+01  1.93440326002203E+00
(PID.TID 0000.0001)  ploadbar=  1.01113756856212E+05
 cg2d: Sum(rhs),rhsMax =  -8.02285091951925E+01  1.93587788086735E+00
(PID.TID 0000.0001)  ploadbar=  1.01115261552679E+05
 cg2d: Sum(rhs),rhsMax =  -8.02050845899030E+01  1.93661626461047E+00
(PID.TID 0000.0001)  ploadbar=  1.01116766249146E+05
 cg2d: Sum(rhs),rhsMax =  -8.02024461224655E+01  1.93684676373757E+00
(PID.TID 0000.0001)  ploadbar=  1.01118270945613E+05
 cg2d: Sum(rhs),rhsMax =  -8.02111346916750E+01  1.93679401333856E+00
(PID.TID 0000.0001)  ploadbar=  1.01119775642081E+05
 cg2d: Sum(rhs),rhsMax =  -8.02257333335833E+01  1.93658402618144E+00
(PID.TID 0000.0001)  ploadbar=  1.01121280338548E+05
 cg2d: Sum(rhs),rhsMax =  -8.02342216402284E+01  1.93648646913648E+00
(PID.TID 0000.0001)  ploadbar=  1.01122866766253E+05
 cg2d: Sum(rhs),rhsMax =  -8.02423745398736E+01  1.93636091882394E+00
(PID.TID 0000.0001)  ploadbar=  1.01124453193958E+05
 cg2d: Sum(rhs),rhsMax =  -8.02525414083452E+01  1.93614807202853E+00
(PID.TID 0000.0001)  ploadbar=  1.01126039621663E+05
 cg2d: Sum(rhs),rhsMax =  -8.02744088793956E+01  1.93560866632836E+00
(PID.TID 0000.0001)  ploadbar=  1.01127626049368E+05
 cg2d: Sum(rhs),rhsMax =  -8.03176093981634E+01  1.93450747697087E+00
(PID.TID 0000.0001)  ploadbar=  1.01129212477073E+05
 cg2d: Sum(rhs),rhsMax =  -8.03941441872472E+01  1.93255275127615E+00
(PID.TID 0000.0001)  ploadbar=  1.01130798904779E+05
 cg2d: Sum(rhs),rhsMax =  -8.05251947015680E+01  1.92932114112452E+00
(PID.TID 0000.0001)  ploadbar=  1.01132346184771E+05
 cg2d: Sum(rhs),rhsMax =  -8.07256014208308E+01  1.92446928739140E+00
(PID.TID 0000.0001)  ploadbar=  1.01133893464763E+05
 cg2d: Sum(rhs),rhsMax =  -8.10108993308598E+01  1.91765309610811E+00
(PID.TID 0000.0001)  ploadbar=  1.01135440744755E+05
 cg2d: Sum(rhs),rhsMax =  -8.13921173995508E+01  1.90865314871416E+00
(PID.TID 0000.0001)  ploadbar=  1.01136988024747E+05
 cg2d: Sum(rhs),rhsMax =  -8.18735652170000E+01  1.89742932915763E+00
(PID.TID 0000.0001)  ploadbar=  1.01138535304740E+05
 cg2d: Sum(rhs),rhsMax =  -8.24452276631754E+01  1.88428751991367E+00
(PID.TID 0000.0001)  ploadbar=  1.01140082584732E+05
 cg2d: Sum(rhs),rhsMax =  -8.30485795026612E+01  1.87061381746798E+00
(PID.TID 0000.0001)  ploadbar=  1.01140379818495E+05
 cg2d: Sum(rhs),rhsMax =  -8.36264572779790E+01  1.85770111121682E+00
(PID.TID 0000.0001)  ploadbar=  1.01140677052258E+05
 cg2d: Sum(rhs),rhsMax =  -8.41374781973100E+01  1.84642843064792E+00
(PID.TID 0000.0001)  ploadbar=  1.01140974286020E+05
 cg2d: Sum(rhs),rhsMax =  -8.45801933265115E+01  1.83676631175206E+00
(PID.TID 0000.0001)  ploadbar=  1.01141271519783E+05
 cg2d: Sum(rhs),rhsMax =  -8.49679702056288E+01  1.82837505895234E+00
(PID.TID 0000.0001)  ploadbar=  1.01141568753546E+05
 cg2d: Sum(rhs),rhsMax =  -8.53121171087017E+01  1.82097419470531E+00
(PID.TID 0000.0001)  ploadbar=  1.01141865987309E+05
 cg2d: Sum(rhs),rhsMax =  -8.56371107350982E+01  1.81403750508888E+00
(PID.TID 0000.0001)  ploadbar=  1.01141480746920E+05
 cg2d: Sum(rhs),rhsMax =  -8.59618061652712E+01  1.80715441336812E+00
(PID.TID 0000.0001)  ploadbar=  1.01141095506530E+05
 cg2d: Sum(rhs),rhsMax =  -8.62909411257222E+01  1.80022360206524E+00
(PID.TID 0000.0001)  ploadbar=  1.01140710266141E+05
 cg2d: Sum(rhs),rhsMax =  -8.66237747060032E+01  1.79325844918481E+00
(PID.TID 0000.0001)  ploadbar=  1.01140325025752E+05
 cg2d: Sum(rhs),rhsMax =  -8.69544308747818E+01  1.78637406171338E+00
(PID.TID 0000.0001)  ploadbar=  1.01139939785362E+05
 cg2d: Sum(rhs),rhsMax =  -8.69456028817401E+01  1.78646688505365E+00
(PID.TID 0000.0001)  ploadbar=  1.01139554544973E+05
 cg2d: Sum(rhs),rhsMax =  -8.69148467911596E+01  1.78701168463391E+00
(PID.TID 0000.0001)  ploadbar=  1.01139264226588E+05
 cg2d: Sum(rhs),rhsMax =  -8.69223990530722E+01  1.78676916830037E+00
(PID.TID 0000.0001)  ploadbar=  1.01138973908202E+05
 cg2d: Sum(rhs),rhsMax =  -8.69709607436055E+01  1.78568012351297E+00
(PID.TID 0000.0001)  ploadbar=  1.01138683589817E+05
 cg2d: Sum(rhs),rhsMax =  -8.70595260688120E+01  1.78376176048552E+00
(PID.TID 0000.0001)  ploadbar=  1.01138393271431E+05
 cg2d: Sum(rhs),rhsMax =  -8.71915363112987E+01  1.78094466426211E+00
(PID.TID 0000.0001)  ploadbar=  1.01138102953046E+05
 cg2d: Sum(rhs),rhsMax =  -8.73694474476521E+01  1.77718443503421E+00
(PID.TID 0000.0001)  ploadbar=  1.01137812634660E+05
 cg2d: Sum(rhs),rhsMax =  -8.75841786377221E+01  1.77273005826232E+00
(PID.TID 0000.0001)  ploadbar=  1.01137570665798E+05
 cg2d: Sum(rhs),rhsMax =  -8.78249223020157E+01  1.76780560769722E+00
(PID.TID 0000.0001)  ploadbar=  1.01137328696936E+05
 cg2d: Sum(rhs),rhsMax =  -8.80137723316754E+01  1.76397494116566E+00
(PID.TID 0000.0001)  ploadbar=  1.01137086728074E+05
 cg2d: Sum(rhs),rhsMax =  -8.77514766235967E+01  1.76923353811413E+00
(PID.TID 0000.0001)  ploadbar=  1.01136844759211E+05
 cg2d: Sum(rhs),rhsMax =  -8.74054113140359E+01  1.77624335495892E+00
(PID.TID 0000.0001)  ploadbar=  1.01136602790349E+05
 cg2d: Sum(rhs),rhsMax =  -8.70109417911211E+01  1.78431741430332E+00
(PID.TID 0000.0001)  ploadbar=  1.01136360821487E+05
 cg2d: Sum(rhs),rhsMax =  -8.65864299594219E+01  1.79309848473760E+00
(PID.TID 0000.0001)  ploadbar=  1.01135925177494E+05
 cg2d: Sum(rhs),rhsMax =  -8.61780123521331E+01  1.80163540056073E+00
(PID.TID 0000.0001)  ploadbar=  1.01135489533500E+05
 cg2d: Sum(rhs),rhsMax =  -8.57917729273335E+01  1.80978499605866E+00
(PID.TID 0000.0001)  ploadbar=  1.01135053889507E+05
 cg2d: Sum(rhs),rhsMax =  -8.54267876468558E+01  1.81755150953042E+00
(PID.TID 0000.0001)  ploadbar=  1.01134618245514E+05
 cg2d: Sum(rhs),rhsMax =  -8.50779490820740E+01  1.82502775356333E+00
(PID.TID 0000.0001)  ploadbar=  1.01134182601520E+05
 cg2d: Sum(rhs),rhsMax =  -8.47343190519718E+01  1.83243888960869E+00
(PID.TID 0000.0001)  ploadbar=  1.01133746957527E+05
 cg2d: Sum(rhs),rhsMax =  -8.43808300051661E+01  1.84014428925481E+00
(PID.TID 0000.0001)  ploadbar=  1.01132466444807E+05
 cg2d: Sum(rhs),rhsMax =  -8.40258403657936E+01  1.84795983814828E+00
(PID.TID 0000.0001)  ploadbar=  1.01131185932088E+05
 cg2d: Sum(rhs),rhsMax =  -8.36705388814928E+01  1.85586070231407E+00
(PID.TID 0000.0001)  ploadbar=  1.01129905419368E+05
 cg2d: Sum(rhs),rhsMax =  -8.33174346008504E+01  1.86378770121784E+00
(PID.TID 0000.0001)  ploadbar=  1.01128624906648E+05
 cg2d: Sum(rhs),rhsMax =  -8.29719922983226E+01  1.87161021088623E+00
(PID.TID 0000.0001)  ploadbar=  1.01127344393928E+05
 cg2d: Sum(rhs),rhsMax =  -8.26411809517255E+01  1.87916061643164E+00
(PID.TID 0000.0001)  ploadbar=  1.01126063881208E+05
 cg2d: Sum(rhs),rhsMax =  -8.23419655253086E+01  1.88603094761217E+00
(PID.TID 0000.0001)  ploadbar=  1.01126127400098E+05
 cg2d: Sum(rhs),rhsMax =  -8.20788529252478E+01  1.89210049865519E+00
(PID.TID 0000.0001)  ploadbar=  1.01126190918988E+05
 cg2d: Sum(rhs),rhsMax =  -8.18497720165923E+01  1.89739944827524E+00
(PID.TID 0000.0001)  ploadbar=  1.01126254437878E+05
 cg2d: Sum(rhs),rhsMax =  -8.16476842124922E+01  1.90207139455550E+00
(PID.TID 0000.0001)  ploadbar=  1.01126317956767E+05
 cg2d: Sum(rhs),rhsMax =  -8.14674762465456E+01  1.90621935898996E+00
(PID.TID 0000.0001)  ploadbar=  1.01126381475657E+05
 cg2d: Sum(rhs),rhsMax =  -8.13011133648250E+01  1.91002014367077E+00
(PID.TID 0000.0001)  ploadbar=  1.01126444994547E+05
 cg2d: Sum(rhs),rhsMax =  -8.11665907634052E+01  1.91312601868169E+00
(PID.TID 0000.0001)  ploadbar=  1.01125709719917E+05
 cg2d: Sum(rhs),rhsMax =  -8.10300376250082E+01  1.91632441718715E+00
(PID.TID 0000.0001)  ploadbar=  1.01124974445288E+05
 cg2d: Sum(rhs),rhsMax =  -8.09044324748425E+01  1.91929728432155E+00
(PID.TID 0000.0001)  ploadbar=  1.01124239170659E+05
 cg2d: Sum(rhs),rhsMax =  -8.08046888092811E+01  1.92167736147218E+00
(PID.TID 0000.0001)  ploadbar=  1.01123503896029E+05
 cg2d: Sum(rhs),rhsMax =  -8.07445030426271E+01  1.92312779619284E+00
(PID.TID 0000.0001)  ploadbar=  1.01122768621400E+05
 cg2d: Sum(rhs),rhsMax =  -8.07303222937448E+01  1.92348348572144E+00
(PID.TID 0000.0001)  ploadbar=  1.01122033346771E+05
 cg2d: Sum(rhs),rhsMax =  -8.07772874654170E+01  1.92239935287533E+00
(PID.TID 0000.0001)  ploadbar=  1.01120472338313E+05
 cg2d: Sum(rhs),rhsMax =  -8.08872773843809E+01  1.91983241561275E+00
(PID.TID 0000.0001)  ploadbar=  1.01118911329854E+05
 cg2d: Sum(rhs),rhsMax =  -8.10697873628282E+01  1.91556670890711E+00
(PID.TID 0000.0001)  ploadbar=  1.01117350321396E+05
 cg2d: Sum(rhs),rhsMax =  -8.13427686487336E+01  1.90919989952422E+00
(PID.TID 0000.0001)  ploadbar=  1.01115789312938E+05
 cg2d: Sum(rhs),rhsMax =  -8.17086564824972E+01  1.90071290052082E+00
(PID.TID 0000.0001)  ploadbar=  1.01114228304479E+05
 cg2d: Sum(rhs),rhsMax =  -8.21640818614792E+01  1.89023524505691E+00
(PID.TID 0000.0001)  ploadbar=  1.01112667296021E+05
 cg2d: Sum(rhs),rhsMax =  -8.27331594056787E+01  1.87729968424450E+00
(PID.TID 0000.0001)  ploadbar=  1.01111649680713E+05
 cg2d: Sum(rhs),rhsMax =  -8.33998640556901E+01  1.86236315295765E+00
(PID.TID 0000.0001)  ploadbar=  1.01110632065404E+05
 cg2d: Sum(rhs),rhsMax =  -8.41104001619894E+01  1.84670190574405E+00
(PID.TID 0000.0001)  ploadbar=  1.01109614450096E+05
 cg2d: Sum(rhs),rhsMax =  -8.47890166542646E+01  1.83199050549639E+00
(PID.TID 0000.0001)  ploadbar=  1.01108596834788E+05
 cg2d: Sum(rhs),rhsMax =  -8.53723268097263E+01  1.81953300229412E+00
(PID.TID 0000.0001)  ploadbar=  1.01107579219480E+05
 cg2d: Sum(rhs),rhsMax =  -8.58412196035536E+01  1.80963706703760E+00
(PID.TID 0000.0001)  ploadbar=  1.01106561604171E+05
 cg2d: Sum(rhs),rhsMax =  -8.62125081158528E+01  1.80186164244598E+00
(PID.TID 0000.0001)  ploadbar=  1.01106183224004E+05
 cg2d: Sum(rhs),rhsMax =  -8.64651636488273E+01  1.79658682090611E+00
(PID.TID 0000.0001)  ploadbar=  1.01105804843837E+05
 cg2d: Sum(rhs),rhsMax =  -8.65572643188738E+01  1.79463393819471E+00
(PID.TID 0000.0001)  ploadbar=  1.01105426463669E+05
 cg2d: Sum(rhs),rhsMax =  -8.65953551635951E+01  1.79376584701570E+00
(PID.TID 0000.0001)  ploadbar=  1.01105048083502E+05
 cg2d: Sum(rhs),rhsMax =  -8.67319312436444E+01  1.79082367320869E+00
(PID.TID 0000.0001)  ploadbar=  1.01104669703335E+05
 cg2d: Sum(rhs),rhsMax =  -8.70192309998692E+01  1.78475014306552E+00
(PID.TID 0000.0001)  ploadbar=  1.01104291323168E+05
 cg2d: Sum(rhs),rhsMax =  -8.72542693010095E+01  1.77980736612919E+00
(PID.TID 0000.0001)  ploadbar=  1.01103957587280E+05
 cg2d: Sum(rhs),rhsMax =  -8.75348982129683E+01  1.77398736053120E+00
(PID.TID 0000.0001)  ploadbar=  1.01103623851393E+05
 cg2d: Sum(rhs),rhsMax =  -8.78202869512282E+01  1.76812728182239E+00
(PID.TID 0000.0001)  ploadbar=  1.01103290115506E+05
 cg2d: Sum(rhs),rhsMax =  -8.80633014170815E+01  1.76316910978919E+00
(PID.TID 0000.0001)  ploadbar=  1.01102956379618E+05
 cg2d: Sum(rhs),rhsMax =  -8.82599082884010E+01  1.75917649863001E+00
(PID.TID 0000.0001)  ploadbar=  1.01102622643731E+05
 cg2d: Sum(rhs),rhsMax =  -8.84355819451318E+01  1.75562729179984E+00
(PID.TID 0000.0001)  ploadbar=  1.01102288907844E+05
 cg2d: Sum(rhs),rhsMax =  -8.86362997311920E+01  1.75159110046451E+00
(PID.TID 0000.0001)  ploadbar=  1.01101898568096E+05
 cg2d: Sum(rhs),rhsMax =  -8.86021714201300E+01  1.75219741026546E+00
(PID.TID 0000.0001)  ploadbar=  1.01101508228347E+05
 cg2d: Sum(rhs),rhsMax =  -8.83185760392780E+01  1.75774189900068E+00
(PID.TID 0000.0001)  ploadbar=  1.01101117888599E+05
 cg2d: Sum(rhs),rhsMax =  -8.78583563274633E+01  1.76685156392870E+00
(PID.TID 0000.0001)  ploadbar=  1.01100727548851E+05
 cg2d: Sum(rhs),rhsMax =  -8.73385661680067E+01  1.77725031934575E+00
(PID.TID 0000.0001)  ploadbar=  1.01100337209103E+05
 cg2d: Sum(rhs),rhsMax =  -8.68196850989641E+01  1.78773158503870E+00
(PID.TID 0000.0001)  ploadbar=  1.01099946869355E+05
 cg2d: Sum(rhs),rhsMax =  -8.62835708700979E+01  1.79869663903525E+00
(PID.TID 0000.0001)  ploadbar=  1.01099321508883E+05
 cg2d: Sum(rhs),rhsMax =  -8.57465472644220E+01  1.80981290754597E+00
(PID.TID 0000.0001)  ploadbar=  1.01098696148411E+05
 cg2d: Sum(rhs),rhsMax =  -8.51290309398199E+01  1.82278234588293E+00
(PID.TID 0000.0001)  ploadbar=  1.01098070787938E+05
 cg2d: Sum(rhs),rhsMax =  -8.43669029262017E+01  1.83907512948191E+00
(PID.TID 0000.0001)  ploadbar=  1.01097445427466E+05
 cg2d: Sum(rhs),rhsMax =  -8.34637916012668E+01  1.85878285013491E+00
(PID.TID 0000.0001)  ploadbar=  1.01096820066994E+05
 cg2d: Sum(rhs),rhsMax =  -8.24467761412230E+01  1.88149529366054E+00
(PID.TID 0000.0001)  ploadbar=  1.01096194706521E+05
 cg2d: Sum(rhs),rhsMax =  -8.13760956058993E+01  1.90601586408825E+00
(PID.TID 0000.0001)  ploadbar=  1.01095769431838E+05
 cg2d: Sum(rhs),rhsMax =  -8.03072573979494E+01  1.93112760968517E+00
(PID.TID 0000.0001)  ploadbar=  1.01095344157155E+05
 cg2d: Sum(rhs),rhsMax =  -7.93038203500260E+01  1.95528048346989E+00
(PID.TID 0000.0001)  ploadbar=  1.01094918882472E+05
 cg2d: Sum(rhs),rhsMax =  -7.84193123696840E+01  1.97702288821574E+00
(PID.TID 0000.0001)  ploadbar=  1.01094493607789E+05
 cg2d: Sum(rhs),rhsMax =  -7.76933446511257E+01  1.99515260553484E+00
(PID.TID 0000.0001)  ploadbar=  1.01094068333106E+05
 cg2d: Sum(rhs),rhsMax =  -7.71600981329921E+01  2.00856041875099E+00
(PID.TID 0000.0001)  ploadbar=  1.01093643058423E+05
 cg2d: Sum(rhs),rhsMax =  -7.67951409865469E+01  2.01778796694124E+00
(PID.TID 0000.0001)  ploadbar=  1.01092902975532E+05
 cg2d: Sum(rhs),rhsMax =  -7.66048086117150E+01  2.02254221162626E+00
(PID.TID 0000.0001)  ploadbar=  1.01092162892641E+05
 cg2d: Sum(rhs),rhsMax =  -7.65876363457342E+01  2.02279486580914E+00
(PID.TID 0000.0001)  ploadbar=  1.01091422809750E+05
 cg2d: Sum(rhs),rhsMax =  -7.67818623179367E+01  2.01753185958672E+00
(PID.TID 0000.0001)  ploadbar=  1.01090682726860E+05
 cg2d: Sum(rhs),rhsMax =  -7.72119467609982E+01  2.00620093934072E+00
(PID.TID 0000.0001)  ploadbar=  1.01089942643969E+05
 cg2d: Sum(rhs),rhsMax =  -7.78979481976355E+01  1.98848833023693E+00
(PID.TID 0000.0001)  ploadbar=  1.01089202561078E+05
 cg2d: Sum(rhs),rhsMax =  -7.88295464119975E+01  1.96493048438891E+00
(PID.TID 0000.0001)  ploadbar=  1.01088497319894E+05
 cg2d: Sum(rhs),rhsMax =  -8.00158981468097E+01  1.93572226206753E+00
(PID.TID 0000.0001)  ploadbar=  1.01087792078710E+05
 cg2d: Sum(rhs),rhsMax =  -8.14429347004046E+01  1.90170873724688E+00
(PID.TID 0000.0001)  ploadbar=  1.01087086837526E+05
 cg2d: Sum(rhs),rhsMax =  -8.30335781437563E+01  1.86515906577950E+00
(PID.TID 0000.0001)  ploadbar=  1.01086381596342E+05
 cg2d: Sum(rhs),rhsMax =  -8.44628947197704E+01  1.83345137628349E+00
(PID.TID 0000.0001)  ploadbar=  1.01085676355158E+05
 cg2d: Sum(rhs),rhsMax =  -8.57579204745234E+01  1.80559440803119E+00
(PID.TID 0000.0001)  ploadbar=  1.01084971113974E+05
 cg2d: Sum(rhs),rhsMax =  -8.69992774892598E+01  1.77967558767711E+00
(PID.TID 0000.0001)  ploadbar=  1.01084179331509E+05
 cg2d: Sum(rhs),rhsMax =  -8.82601056876973E+01  1.75410595028431E+00
(PID.TID 0000.0001)  ploadbar=  1.01083387549044E+05
 cg2d: Sum(rhs),rhsMax =  -8.94845415744323E+01  1.72996341572399E+00
(PID.TID 0000.0001)  ploadbar=  1.01082595766579E+05
 cg2d: Sum(rhs),rhsMax =  -9.06654607796261E+01  1.70729024683655E+00
(PID.TID 0000.0001)  ploadbar=  1.01081803984114E+05
 cg2d: Sum(rhs),rhsMax =  -9.18789685335828E+01  1.68459887688700E+00
(PID.TID 0000.0001)  ploadbar=  1.01081012201649E+05
 cg2d: Sum(rhs),rhsMax =  -9.35184378301473E+01  1.65491958769033E+00
(PID.TID 0000.0001)  ploadbar=  1.01080220419184E+05
 cg2d: Sum(rhs),rhsMax =  -9.56840828029263E+01  1.61732226791181E+00
(PID.TID 0000.0001)  ploadbar=  1.01078893475254E+05
 cg2d: Sum(rhs),rhsMax =  -9.83069460745699E+01  1.57403644479889E+00
(PID.TID 0000.0001)  ploadbar=  1.01077566531324E+05
 cg2d: Sum(rhs),rhsMax =  -1.00768269124992E+02  1.53545711984482E+00
(PID.TID 0000.0001)  ploadbar=  1.01076239587394E+05
 cg2d: Sum(rhs),rhsMax =  -1.02253710136928E+02  1.51301893750477E+00
(PID.TID 0000.0001)  ploadbar=  1.01074912643464E+05
 cg2d: Sum(rhs),rhsMax =  -1.02490287089636E+02  1.50938828444121E+00
(PID.TID 0000.0001)  ploadbar=  1.01073585699534E+05
 cg2d: Sum(rhs),rhsMax =  -1.02019314049612E+02  1.51621091886182E+00
(PID.TID 0000.0001)  ploadbar=  1.01072258755604E+05
 cg2d: Sum(rhs),rhsMax =  -1.01696121880793E+02  1.52091104830551E+00
(PID.TID 0000.0001)  ploadbar=  1.01071251530683E+05
 cg2d: Sum(rhs),rhsMax =  -1.01617673650908E+02  1.52199195012081E+00
(PID.TID 0000.0001)  ploadbar=  1.01070244305762E+05
 cg2d: Sum(rhs),rhsMax =  -1.01742346944561E+02  1.52005722305708E+00
(PID.TID 0000.0001)  ploadbar=  1.01069237080841E+05
 cg2d: Sum(rhs),rhsMax =  -1.01943012110787E+02  1.51701146416998E+00
(PID.TID 0000.0001)  ploadbar=  1.01068229855920E+05
 cg2d: Sum(rhs),rhsMax =  -1.02086345443870E+02  1.51484304818434E+00
(PID.TID 0000.0001)  ploadbar=  1.01067222630999E+05
 cg2d: Sum(rhs),rhsMax =  -1.02084365632862E+02  1.51485012552986E+00
(PID.TID 0000.0001)  ploadbar=  1.01066215406077E+05
 cg2d: Sum(rhs),rhsMax =  -1.01943520956656E+02  1.51688307998312E+00
(PID.TID 0000.0001)  ploadbar=  1.01064839522011E+05
 cg2d: Sum(rhs),rhsMax =  -1.01705366170422E+02  1.52033388610239E+00
(PID.TID 0000.0001)  ploadbar=  1.01063463637945E+05
 cg2d: Sum(rhs),rhsMax =  -1.01421422092473E+02  1.52444458488471E+00
(PID.TID 0000.0001)  ploadbar=  1.01062087753879E+05
 cg2d: Sum(rhs),rhsMax =  -1.01177490153949E+02  1.52792581105282E+00
(PID.TID 0000.0001)  ploadbar=  1.01060711869813E+05
 cg2d: Sum(rhs),rhsMax =  -1.01054403020059E+02  1.52953942758741E+00
(PID.TID 0000.0001)  ploadbar=  1.01059335985746E+05
 cg2d: Sum(rhs),rhsMax =  -9.80401018207116E+01  1.57625295288659E+00
(PID.TID 0000.0001)  ploadbar=  1.01057960101680E+05
 cg2d: Sum(rhs),rhsMax =  -9.55033061439610E+01  1.61782836689313E+00
(PID.TID 0000.0001)  ploadbar=  1.01057083543256E+05
 cg2d: Sum(rhs),rhsMax =  -9.34218220455278E+01  1.65359858618225E+00
(PID.TID 0000.0001)  ploadbar=  1.01056206984832E+05
 cg2d: Sum(rhs),rhsMax =  -9.17506580429091E+01  1.68345695019727E+00
(PID.TID 0000.0001)  ploadbar=  1.01055330426408E+05
 cg2d: Sum(rhs),rhsMax =  -9.04820063150739E+01  1.70681208974335E+00
(PID.TID 0000.0001)  ploadbar=  1.01054453867984E+05
 cg2d: Sum(rhs),rhsMax =  -8.95606332339024E+01  1.72413192420451E+00
(PID.TID 0000.0001)  ploadbar=  1.01053577309560E+05
 cg2d: Sum(rhs),rhsMax =  -8.89248380457518E+01  1.73622426904514E+00
(PID.TID 0000.0001)  ploadbar=  1.01052700751136E+05
 cg2d: Sum(rhs),rhsMax =  -8.86186872567560E+01  1.74199627967935E+00
(PID.TID 0000.0001)  ploadbar=  1.01053137811517E+05
 cg2d: Sum(rhs),rhsMax =  -8.84960156042589E+01  1.74419016858113E+00
(PID.TID 0000.0001)  ploadbar=  1.01053574871899E+05
 cg2d: Sum(rhs),rhsMax =  -8.84661491050493E+01  1.74456330097511E+00
(PID.TID 0000.0001)  ploadbar=  1.01054011932280E+05
 cg2d: Sum(rhs),rhsMax =  -8.85460283205278E+01  1.74277289841929E+00
(PID.TID 0000.0001)  ploadbar=  1.01054448992661E+05
 cg2d: Sum(rhs),rhsMax =  -8.87627970783273E+01  1.73829699893032E+00
(PID.TID 0000.0001)  ploadbar=  1.01054886053042E+05
 cg2d: Sum(rhs),rhsMax =  -8.91204117919459E+01  1.73109815756778E+00
(PID.TID 0000.0001)  ploadbar=  1.01055323113424E+05
 cg2d: Sum(rhs),rhsMax =  -8.95806075865286E+01  1.72202759776456E+00
(PID.TID 0000.0001)  ploadbar=  1.01055728141227E+05
 cg2d: Sum(rhs),rhsMax =  -9.01443758800912E+01  1.71112132142651E+00
(PID.TID 0000.0001)  ploadbar=  1.01056133169030E+05
 cg2d: Sum(rhs),rhsMax =  -9.07473587021403E+01  1.69965287803217E+00
(PID.TID 0000.0001)  ploadbar=  1.01056538196833E+05
 cg2d: Sum(rhs),rhsMax =  -9.13874572692714E+01  1.68768314462196E+00
(PID.TID 0000.0001)  ploadbar=  1.01056943224636E+05
 cg2d: Sum(rhs),rhsMax =  -9.20658904478877E+01  1.67521339481383E+00
(PID.TID 0000.0001)  ploadbar=  1.01057348252439E+05
 cg2d: Sum(rhs),rhsMax =  -9.27662857500045E+01  1.66255907748074E+00
(PID.TID 0000.0001)  ploadbar=  1.01057753280242E+05
 cg2d: Sum(rhs),rhsMax =  -9.34878949741024E+01  1.64971727311402E+00
(PID.TID 0000.0001)  ploadbar=  1.01058589965601E+05
 cg2d: Sum(rhs),rhsMax =  -9.43552452553939E+01  1.63453896925978E+00
(PID.TID 0000.0001)  ploadbar=  1.01059426650959E+05
 cg2d: Sum(rhs),rhsMax =  -9.54913858915793E+01  1.61506897280741E+00
(PID.TID 0000.0001)  ploadbar=  1.01060263336318E+05
 cg2d: Sum(rhs),rhsMax =  -9.65989429208913E+01  1.59651776472853E+00
(PID.TID 0000.0001)  ploadbar=  1.01061100021676E+05
 cg2d: Sum(rhs),rhsMax =  -9.76604836328115E+01  1.57911609288013E+00
(PID.TID 0000.0001)  ploadbar=  1.01061936707034E+05
 cg2d: Sum(rhs),rhsMax =  -9.86036795775158E+01  1.56394615501137E+00
(PID.TID 0000.0001)  ploadbar=  1.01062773392393E+05
 cg2d: Sum(rhs),rhsMax =  -9.94769091164388E+01  1.55017738338956E+00
(PID.TID 0000.0001)  ploadbar=  1.01063575913474E+05
 cg2d: Sum(rhs),rhsMax =  -1.00254028118406E+02  1.53813845481583E+00
(PID.TID 0000.0001)  ploadbar=  1.01064378434556E+05
 cg2d: Sum(rhs),rhsMax =  -1.00917618648267E+02  1.52801321998928E+00
(PID.TID 0000.0001)  ploadbar=  1.01065180955637E+05
 cg2d: Sum(rhs),rhsMax =  -1.01456114008797E+02  1.51989826797916E+00
(PID.TID 0000.0001)  ploadbar=  1.01065983476719E+05
 cg2d: Sum(rhs),rhsMax =  -1.01948001494141E+02  1.51256334564891E+00
(PID.TID 0000.0001)  ploadbar=  1.01066785997800E+05
 cg2d: Sum(rhs),rhsMax =  -1.02518112071478E+02  1.50415076911160E+00
(PID.TID 0000.0001)  ploadbar=  1.01067588518882E+05
 cg2d: Sum(rhs),rhsMax =  -1.03213696285099E+02  1.49402326592680E+00
(PID.TID 0000.0001)  ploadbar=  1.01069771228039E+05
 cg2d: Sum(rhs),rhsMax =  -1.04031650761522E+02  1.48229191629351E+00
(PID.TID 0000.0001)  ploadbar=  1.01071953937195E+05
 cg2d: Sum(rhs),rhsMax =  -1.04950642170816E+02  1.46933079284138E+00
(PID.TID 0000.0001)  ploadbar=  1.01074136646352E+05
 cg2d: Sum(rhs),rhsMax =  -1.05985568476040E+02  1.45499945011798E+00
(PID.TID 0000.0001)  ploadbar=  1.01076319355508E+05
 cg2d: Sum(rhs),rhsMax =  -1.07348580340944E+02  1.43653572459010E+00
(PID.TID 0000.0001)  ploadbar=  1.01078502064665E+05
 cg2d: Sum(rhs),rhsMax =  -1.09082307924873E+02  1.41370550801625E+00
(PID.TID 0000.0001)  ploadbar=  1.01080684773822E+05
 cg2d: Sum(rhs),rhsMax =  -1.11085373481181E+02  1.38825415285175E+00
(PID.TID 0000.0001)  ploadbar=  1.01082665736174E+05
 cg2d: Sum(rhs),rhsMax =  -1.13624547675024E+02  1.35730555302667E+00
(PID.TID 0000.0001)  ploadbar=  1.01084646698526E+05
 cg2d: Sum(rhs),rhsMax =  -1.16669132225267E+02  1.32198765481192E+00
(PID.TID 0000.0001)  ploadbar=  1.01086627660879E+05
 cg2d: Sum(rhs),rhsMax =  -1.20136484544234E+02  1.28395763452067E+00
(PID.TID 0000.0001)  ploadbar=  1.01088608623231E+05
 cg2d: Sum(rhs),rhsMax =  -1.20070111226555E+02  1.28481433529991E+00
(PID.TID 0000.0001)  ploadbar=  1.01090589585583E+05
 cg2d: Sum(rhs),rhsMax =  -1.18972209413574E+02  1.29683665192323E+00
(PID.TID 0000.0001)  ploadbar=  1.01092570547935E+05
 cg2d: Sum(rhs),rhsMax =  -1.18151968052378E+02  1.30600219995065E+00
(PID.TID 0000.0001)  ploadbar=  1.01094953647880E+05
 cg2d: Sum(rhs),rhsMax =  -1.17692547017312E+02  1.31125741903711E+00
(PID.TID 0000.0001)  ploadbar=  1.01097336747825E+05
 cg2d: Sum(rhs),rhsMax =  -1.17515889204932E+02  1.31337579296916E+00
(PID.TID 0000.0001)  ploadbar=  1.01099719847770E+05
 cg2d: Sum(rhs),rhsMax =  -1.17483737296840E+02  1.31386923626873E+00
(PID.TID 0000.0001)  ploadbar=  1.01102102947715E+05
 cg2d: Sum(rhs),rhsMax =  -1.16765354747443E+02  1.32207208025945E+00
(PID.TID 0000.0001)  ploadbar=  1.01104486047660E+05
 cg2d: Sum(rhs),rhsMax =  -1.15181853252194E+02  1.34034810170022E+00
(PID.TID 0000.0001)  ploadbar=  1.01106869147605E+05
 cg2d: Sum(rhs),rhsMax =  -1.13521395397677E+02  1.36007515952829E+00
(PID.TID 0000.0001)  ploadbar=  1.01107096269921E+05
 cg2d: Sum(rhs),rhsMax =  -1.11834474562442E+02  1.38072991122186E+00
(PID.TID 0000.0001)  ploadbar=  1.01107323392237E+05
 cg2d: Sum(rhs),rhsMax =  -1.10144905390726E+02  1.40206377599872E+00
(PID.TID 0000.0001)  ploadbar=  1.01107550514553E+05
 cg2d: Sum(rhs),rhsMax =  -1.08477743293161E+02  1.42377697799466E+00
(PID.TID 0000.0001)  ploadbar=  1.01107777636869E+05
 cg2d: Sum(rhs),rhsMax =  -1.06870014663404E+02  1.44536603060530E+00
(PID.TID 0000.0001)  ploadbar=  1.01108004759185E+05
 cg2d: Sum(rhs),rhsMax =  -1.05362625257187E+02  1.46621422960693E+00
(PID.TID 0000.0001)  ploadbar=  1.01108231881501E+05
 cg2d: Sum(rhs),rhsMax =  -1.03888219545859E+02  1.48718933538149E+00
(PID.TID 0000.0001)  ploadbar=  1.01107473926622E+05
 cg2d: Sum(rhs),rhsMax =  -1.02390969690073E+02  1.50909479395820E+00
(PID.TID 0000.0001)  ploadbar=  1.01106715971743E+05
 cg2d: Sum(rhs),rhsMax =  -1.00870121366290E+02  1.53199589105357E+00
(PID.TID 0000.0001)  ploadbar=  1.01105958016864E+05
 cg2d: Sum(rhs),rhsMax =  -9.93516750395952E+01  1.55554253553630E+00
(PID.TID 0000.0001)  ploadbar=  1.01105200061985E+05
 cg2d: Sum(rhs),rhsMax =  -9.78568262881598E+01  1.57941658925554E+00
(PID.TID 0000.0001)  ploadbar=  1.01104442107107E+05
 cg2d: Sum(rhs),rhsMax =  -9.64029468638925E+01  1.60332146606457E+00
(PID.TID 0000.0001)  ploadbar=  1.01103684152228E+05
 cg2d: Sum(rhs),rhsMax =  -9.49861200890186E+01  1.62736600858073E+00
(PID.TID 0000.0001)  ploadbar=  1.01103293558000E+05
 cg2d: Sum(rhs),rhsMax =  -9.36225564099360E+01  1.65123990133880E+00
(PID.TID 0000.0001)  ploadbar=  1.01102902963771E+05
 cg2d: Sum(rhs),rhsMax =  -9.23603065856757E+01  1.67401799023102E+00
(PID.TID 0000.0001)  ploadbar=  1.01102512369543E+05
 cg2d: Sum(rhs),rhsMax =  -9.12772792966403E+01  1.69412767492137E+00
(PID.TID 0000.0001)  ploadbar=  1.01102121775315E+05
 cg2d: Sum(rhs),rhsMax =  -9.04673893774732E+01  1.70957315037505E+00
(PID.TID 0000.0001)  ploadbar=  1.01101731181087E+05
 cg2d: Sum(rhs),rhsMax =  -9.00074465223042E+01  1.71861549533286E+00
(PID.TID 0000.0001)  ploadbar=  1.01101340586859E+05
 cg2d: Sum(rhs),rhsMax =  -9.00187274736288E+01  1.71868775097611E+00
(PID.TID 0000.0001)  ploadbar=  1.01100324242943E+05
 cg2d: Sum(rhs),rhsMax =  -9.04657268655113E+01  1.71046018073206E+00
(PID.TID 0000.0001)  ploadbar=  1.01099307899027E+05
 cg2d: Sum(rhs),rhsMax =  -9.11321027543628E+01  1.69818386638297E+00
(PID.TID 0000.0001)  ploadbar=  1.01098291555112E+05
 cg2d: Sum(rhs),rhsMax =  -9.17715892447833E+01  1.68653690478871E+00
(PID.TID 0000.0001)  ploadbar=  1.01097275211196E+05
 cg2d: Sum(rhs),rhsMax =  -9.23725117176089E+01  1.67570118295898E+00
(PID.TID 0000.0001)  ploadbar=  1.01096258867280E+05
 cg2d: Sum(rhs),rhsMax =  -9.29677853572113E+01  1.66505033764011E+00
(PID.TID 0000.0001)  ploadbar=  1.01095242523364E+05
 cg2d: Sum(rhs),rhsMax =  -9.35584276686601E+01  1.65463895258820E+00
(PID.TID 0000.0001)  ploadbar=  1.01094228134144E+05
 cg2d: Sum(rhs),rhsMax =  -9.41374496751432E+01  1.64457753299382E+00
(PID.TID 0000.0001)  ploadbar=  1.01093213744924E+05
 cg2d: Sum(rhs),rhsMax =  -9.45730846918959E+01  1.63712487381864E+00
(PID.TID 0000.0001)  ploadbar=  1.01092199355704E+05
 cg2d: Sum(rhs),rhsMax =  -9.32738300106600E+01  1.66005434518128E+00
(PID.TID 0000.0001)  ploadbar=  1.01091184966483E+05
 cg2d: Sum(rhs),rhsMax =  -9.21189217042490E+01  1.68098688381850E+00
(PID.TID 0000.0001)  ploadbar=  1.01090170577263E+05
 cg2d: Sum(rhs),rhsMax =  -9.11714696640629E+01  1.69856290305451E+00
(PID.TID 0000.0001)  ploadbar=  1.01089156188043E+05
 cg2d: Sum(rhs),rhsMax =  -9.03950838178580E+01  1.71323413939476E+00
(PID.TID 0000.0001)  ploadbar=  1.01087888161960E+05
 cg2d: Sum(rhs),rhsMax =  -8.97577821876080E+01  1.72545479854773E+00
(PID.TID 0000.0001)  ploadbar=  1.01086620135877E+05
 cg2d: Sum(rhs),rhsMax =  -8.92378396626969E+01  1.73553264157295E+00
(PID.TID 0000.0001)  ploadbar=  1.01085352109794E+05
 cg2d: Sum(rhs),rhsMax =  -8.88124574019881E+01  1.74383421372226E+00
(PID.TID 0000.0001)  ploadbar=  1.01084084083711E+05
 cg2d: Sum(rhs),rhsMax =  -8.84593745440369E+01  1.75074626487610E+00
(PID.TID 0000.0001)  ploadbar=  1.01082816057628E+05
 cg2d: Sum(rhs),rhsMax =  -8.81579914949257E+01  1.75664412230203E+00
(PID.TID 0000.0001)  ploadbar=  1.01081548031545E+05
 cg2d: Sum(rhs),rhsMax =  -8.79009728371636E+01  1.76174258148869E+00
(PID.TID 0000.0001)  ploadbar=  1.01081315833012E+05
 cg2d: Sum(rhs),rhsMax =  -8.76720699500499E+01  1.76635032950633E+00
(PID.TID 0000.0001)  ploadbar=  1.01081083634479E+05
 cg2d: Sum(rhs),rhsMax =  -8.74677984603928E+01  1.77052677196476E+00
(PID.TID 0000.0001)  ploadbar=  1.01080851435946E+05
 cg2d: Sum(rhs),rhsMax =  -8.73018393846221E+01  1.77397916842618E+00
(PID.TID 0000.0001)  ploadbar=  1.01080619237413E+05
 cg2d: Sum(rhs),rhsMax =  -8.71889556535649E+01  1.77639391809158E+00
(PID.TID 0000.0001)  ploadbar=  1.01080387038880E+05
 cg2d: Sum(rhs),rhsMax =  -8.71487189126799E+01  1.77735586092245E+00
(PID.TID 0000.0001)  ploadbar=  1.01080154840347E+05
 cg2d: Sum(rhs),rhsMax =  -8.72066764066640E+01  1.77631816260343E+00
(PID.TID 0000.0001)  ploadbar=  1.01079870038218E+05
 cg2d: Sum(rhs),rhsMax =  -8.73960651579486E+01  1.77261062185608E+00
(PID.TID 0000.0001)  ploadbar=  1.01079585236089E+05
 cg2d: Sum(rhs),rhsMax =  -8.77093114048647E+01  1.76641544609074E+00
(PID.TID 0000.0001)  ploadbar=  1.01079300433960E+05
 cg2d: Sum(rhs),rhsMax =  -8.81206661932851E+01  1.75829411328793E+00
(PID.TID 0000.0001)  ploadbar=  1.01079015631832E+05
 cg2d: Sum(rhs),rhsMax =  -8.82902465832853E+01  1.75502612009401E+00
(PID.TID 0000.0001)  ploadbar=  1.01078730829703E+05
 cg2d: Sum(rhs),rhsMax =  -8.77627361366636E+01  1.76566450731614E+00
(PID.TID 0000.0001)  ploadbar=  1.01078446027574E+05
 cg2d: Sum(rhs),rhsMax =  -8.74159894264201E+01  1.77277475207680E+00
(PID.TID 0000.0001)  ploadbar=  1.01077352045043E+05
 cg2d: Sum(rhs),rhsMax =  -8.71658187999013E+01  1.77798299542559E+00
(PID.TID 0000.0001)  ploadbar=  1.01076258062513E+05
 cg2d: Sum(rhs),rhsMax =  -8.69268422806196E+01  1.78300016691727E+00
(PID.TID 0000.0001)  ploadbar=  1.01075164079982E+05
 cg2d: Sum(rhs),rhsMax =  -8.65585113914808E+01  1.79071995908023E+00
(PID.TID 0000.0001)  ploadbar=  1.01074070097451E+05
 cg2d: Sum(rhs),rhsMax =  -8.64100869717291E+01  1.79392625735483E+00
(PID.TID 0000.0001)  ploadbar=  1.01072976114921E+05
 cg2d: Sum(rhs),rhsMax =  -8.67072817153016E+01  1.78789852424319E+00
(PID.TID 0000.0001)  ploadbar=  1.01071882132390E+05
 cg2d: Sum(rhs),rhsMax =  -8.68457179586291E+01  1.78512215710507E+00
(PID.TID 0000.0001)  ploadbar=  1.01071417516979E+05
 cg2d: Sum(rhs),rhsMax =  -8.69595652321523E+01  1.78280987328871E+00
(PID.TID 0000.0001)  ploadbar=  1.01070952901568E+05
 cg2d: Sum(rhs),rhsMax =  -8.70514724926712E+01  1.78090173031613E+00
(PID.TID 0000.0001)  ploadbar=  1.01070488286158E+05
 cg2d: Sum(rhs),rhsMax =  -8.71367568107304E+01  1.77907972556673E+00
(PID.TID 0000.0001)  ploadbar=  1.01070023670747E+05
 cg2d: Sum(rhs),rhsMax =  -8.72315097277857E+01  1.77701443487710E+00
(PID.TID 0000.0001)  ploadbar=  1.01069559055336E+05
 cg2d: Sum(rhs),rhsMax =  -8.73495800201058E+01  1.77442443171349E+00
(PID.TID 0000.0001)  ploadbar=  1.01069094439925E+05
 cg2d: Sum(rhs),rhsMax =  -8.74644480600394E+01  1.77196579738021E+00
(PID.TID 0000.0001)  ploadbar=  1.01068007170967E+05
 cg2d: Sum(rhs),rhsMax =  -8.76569589617140E+01  1.76800122006151E+00
(PID.TID 0000.0001)  ploadbar=  1.01066919902008E+05
 cg2d: Sum(rhs),rhsMax =  -8.79018534628000E+01  1.76305340890851E+00
(PID.TID 0000.0001)  ploadbar=  1.01065832633050E+05
 cg2d: Sum(rhs),rhsMax =  -8.81961933326695E+01  1.75719227971338E+00
(PID.TID 0000.0001)  ploadbar=  1.01064745364091E+05
 cg2d: Sum(rhs),rhsMax =  -8.85538149172158E+01  1.75015890880890E+00
(PID.TID 0000.0001)  ploadbar=  1.01063658095133E+05
 cg2d: Sum(rhs),rhsMax =  -8.89453743081813E+01  1.74255369973608E+00
(PID.TID 0000.0001)  ploadbar=  1.01062570826175E+05
 cg2d: Sum(rhs),rhsMax =  -8.91777785663782E+01  1.73812799207825E+00
(PID.TID 0000.0001)  ploadbar=  1.01061999676642E+05
 cg2d: Sum(rhs),rhsMax =  -8.93038684246576E+01  1.73580143388107E+00
(PID.TID 0000.0001)  ploadbar=  1.01061428527109E+05
 cg2d: Sum(rhs),rhsMax =  -8.93712107403347E+01  1.73462567113815E+00
(PID.TID 0000.0001)  ploadbar=  1.01060857377576E+05
 cg2d: Sum(rhs),rhsMax =  -8.94218824165925E+01  1.73377442296712E+00
(PID.TID 0000.0001)  ploadbar=  1.01060286228043E+05
 cg2d: Sum(rhs),rhsMax =  -8.94596259838947E+01  1.73316871589646E+00
(PID.TID 0000.0001)  ploadbar=  1.01059715078509E+05
 cg2d: Sum(rhs),rhsMax =  -8.94858021521225E+01  1.73277838075739E+00
(PID.TID 0000.0001)  ploadbar=  1.01059143928976E+05
 cg2d: Sum(rhs),rhsMax =  -8.95484881321967E+01  1.73165929995244E+00
(PID.TID 0000.0001)  ploadbar=  1.01058081444773E+05
 cg2d: Sum(rhs),rhsMax =  -8.96004761557173E+01  1.73072240712235E+00
(PID.TID 0000.0001)  ploadbar=  1.01057018960570E+05
 cg2d: Sum(rhs),rhsMax =  -8.96536186642297E+01  1.72973418337764E+00
(PID.TID 0000.0001)  ploadbar=  1.01055956476367E+05
 cg2d: Sum(rhs),rhsMax =  -8.97186664350969E+01  1.72848217747194E+00
(PID.TID 0000.0001)  ploadbar=  1.01054893992164E+05
 cg2d: Sum(rhs),rhsMax =  -8.97976640721135E+01  1.72692336125388E+00
(PID.TID 0000.0001)  ploadbar=  1.01053831507961E+05
 cg2d: Sum(rhs),rhsMax =  -8.98895085704411E+01  1.72507519653288E+00
(PID.TID 0000.0001)  ploadbar=  1.01052769023758E+05
 cg2d: Sum(rhs),rhsMax =  -9.00286439379797E+01  1.72231758788705E+00
(PID.TID 0000.0001)  ploadbar=  1.01052717604141E+05
 cg2d: Sum(rhs),rhsMax =  -9.01736621022547E+01  1.71944565300682E+00
(PID.TID 0000.0001)  ploadbar=  1.01052666184525E+05
 cg2d: Sum(rhs),rhsMax =  -9.03226634045357E+01  1.71649591693311E+00
(PID.TID 0000.0001)  ploadbar=  1.01052614764909E+05
 cg2d: Sum(rhs),rhsMax =  -9.04748582224923E+01  1.71348113678021E+00
(PID.TID 0000.0001)  ploadbar=  1.01052563345292E+05
 cg2d: Sum(rhs),rhsMax =  -9.06312629534661E+01  1.71037841940975E+00
(PID.TID 0000.0001)  ploadbar=  1.01052511925676E+05
 cg2d: Sum(rhs),rhsMax =  -9.07739885192509E+01  1.70752176625390E+00
(PID.TID 0000.0001)  ploadbar=  1.01052460506060E+05
 cg2d: Sum(rhs),rhsMax =  -9.09073140208405E+01  1.70490978591337E+00
(PID.TID 0000.0001)  ploadbar=  1.01054453376066E+05
 cg2d: Sum(rhs),rhsMax =  -9.10287451656777E+01  1.70258109623824E+00
(PID.TID 0000.0001)  ploadbar=  1.01056446246072E+05
 cg2d: Sum(rhs),rhsMax =  -9.11149283557521E+01  1.70096361447277E+00
(PID.TID 0000.0001)  ploadbar=  1.01058439116078E+05
 cg2d: Sum(rhs),rhsMax =  -9.11644444795247E+01  1.70007052285029E+00
(PID.TID 0000.0001)  ploadbar=  1.01060431986084E+05
 cg2d: Sum(rhs),rhsMax =  -9.11891283368797E+01  1.69967001618644E+00
(PID.TID 0000.0001)  ploadbar=  1.01062424856091E+05
 cg2d: Sum(rhs),rhsMax =  -9.11949708842348E+01  1.69964329718679E+00
(PID.TID 0000.0001)  ploadbar=  1.01064417726097E+05
 cg2d: Sum(rhs),rhsMax =  -9.11680231446617E+01  1.70023532306108E+00
(PID.TID 0000.0001)  ploadbar=  1.01065280003619E+05
 cg2d: Sum(rhs),rhsMax =  -9.11204830155853E+01  1.70121522066514E+00
(PID.TID 0000.0001)  ploadbar=  1.01066142281142E+05
 cg2d: Sum(rhs),rhsMax =  -9.10979279089026E+01  1.70172833715643E+00
(PID.TID 0000.0001)  ploadbar=  1.01067004558664E+05
 cg2d: Sum(rhs),rhsMax =  -9.10969089997200E+01  1.70183255716062E+00
(PID.TID 0000.0001)  ploadbar=  1.01067866836187E+05
 cg2d: Sum(rhs),rhsMax =  -9.11163553779908E+01  1.70154407946295E+00
(PID.TID 0000.0001)  ploadbar=  1.01068729113709E+05
 cg2d: Sum(rhs),rhsMax =  -9.11608925906154E+01  1.70077356436222E+00
(PID.TID 0000.0001)  ploadbar=  1.01069591391231E+05
 cg2d: Sum(rhs),rhsMax =  -9.12074133203110E+01  1.69997470384090E+00
(PID.TID 0000.0001)  ploadbar=  1.01070256067289E+05
 cg2d: Sum(rhs),rhsMax =  -9.12755842356310E+01  1.69877779011645E+00
(PID.TID 0000.0001)  ploadbar=  1.01070920743348E+05
 cg2d: Sum(rhs),rhsMax =  -9.13580219989181E+01  1.69731853967553E+00
(PID.TID 0000.0001)  ploadbar=  1.01071585419406E+05
 cg2d: Sum(rhs),rhsMax =  -9.14532254059899E+01  1.69562092561823E+00
(PID.TID 0000.0001)  ploadbar=  1.01072250095464E+05
 cg2d: Sum(rhs),rhsMax =  -9.15573664103991E+01  1.69375338881872E+00
(PID.TID 0000.0001)  ploadbar=  1.01072914771522E+05
 cg2d: Sum(rhs),rhsMax =  -9.16696176132513E+01  1.69172715275497E+00
(PID.TID 0000.0001)  ploadbar=  1.01073579447580E+05
 cg2d: Sum(rhs),rhsMax =  -9.17656317648827E+01  1.68998341086542E+00
(PID.TID 0000.0001)  ploadbar=  1.01073995447196E+05
 cg2d: Sum(rhs),rhsMax =  -9.18718172385617E+01  1.68803286110350E+00
(PID.TID 0000.0001)  ploadbar=  1.01074411446812E+05
 cg2d: Sum(rhs),rhsMax =  -9.19819685702663E+01  1.68598808388891E+00
(PID.TID 0000.0001)  ploadbar=  1.01074827446428E+05
 cg2d: Sum(rhs),rhsMax =  -9.20949615615606E+01  1.68386830062620E+00
(PID.TID 0000.0001)  ploadbar=  1.01075243446045E+05
 cg2d: Sum(rhs),rhsMax =  -9.22114075458508E+01  1.68166115202333E+00
(PID.TID 0000.0001)  ploadbar=  1.01075659445661E+05
 cg2d: Sum(rhs),rhsMax =  -9.23306904767934E+01  1.67937761619367E+00
(PID.TID 0000.0001)  ploadbar=  1.01076075445277E+05
 cg2d: Sum(rhs),rhsMax =  -9.24188648036923E+01  1.67770485532189E+00
(PID.TID 0000.0001)  ploadbar=  1.01076238289868E+05
 cg2d: Sum(rhs),rhsMax =  -9.25104945859848E+01  1.67600989104780E+00
(PID.TID 0000.0001)  ploadbar=  1.01076401134460E+05
 cg2d: Sum(rhs),rhsMax =  -9.26086163069852E+01  1.67423221493939E+00
(PID.TID 0000.0001)  ploadbar=  1.01076563979051E+05
 cg2d: Sum(rhs),rhsMax =  -9.27086583128772E+01  1.67244366869088E+00
(PID.TID 0000.0001)  ploadbar=  1.01076726823643E+05
 cg2d: Sum(rhs),rhsMax =  -9.28161847653302E+01  1.67053689634444E+00
(PID.TID 0000.0001)  ploadbar=  1.01076889668234E+05
 cg2d: Sum(rhs),rhsMax =  -9.29392890974862E+01  1.66836208782891E+00
(PID.TID 0000.0001)  ploadbar=  1.01077052512826E+05
 cg2d: Sum(rhs),rhsMax =  -9.30792547511021E+01  1.66586996267098E+00
(PID.TID 0000.0001)  ploadbar=  1.01077283145712E+05
 cg2d: Sum(rhs),rhsMax =  -9.32739408518487E+01  1.66238112536228E+00
(PID.TID 0000.0001)  ploadbar=  1.01077513778599E+05
 cg2d: Sum(rhs),rhsMax =  -9.34954655947443E+01  1.65839702228284E+00
(PID.TID 0000.0001)  ploadbar=  1.01077744411486E+05
 cg2d: Sum(rhs),rhsMax =  -9.37927742532656E+01  1.65305881148500E+00
(PID.TID 0000.0001)  ploadbar=  1.01077975044373E+05
 cg2d: Sum(rhs),rhsMax =  -9.41668743098873E+01  1.64636979729469E+00
(PID.TID 0000.0001)  ploadbar=  1.01078205677260E+05
 cg2d: Sum(rhs),rhsMax =  -9.46082814555753E+01  1.63852306191405E+00
(PID.TID 0000.0001)  ploadbar=  1.01078436310146E+05
 cg2d: Sum(rhs),rhsMax =  -9.51041864165787E+01  1.62982569576882E+00
(PID.TID 0000.0001)  ploadbar=  1.01078920437520E+05
 cg2d: Sum(rhs),rhsMax =  -9.56321525755077E+01  1.62068263620188E+00
(PID.TID 0000.0001)  ploadbar=  1.01079404564894E+05
 cg2d: Sum(rhs),rhsMax =  -9.61753430372895E+01  1.61138804026109E+00
(PID.TID 0000.0001)  ploadbar=  1.01079888692268E+05
 cg2d: Sum(rhs),rhsMax =  -9.67112225593369E+01  1.60231905919429E+00
(PID.TID 0000.0001)  ploadbar=  1.01080372819642E+05
 cg2d: Sum(rhs),rhsMax =  -9.72514228144548E+01  1.59327309501565E+00
(PID.TID 0000.0001)  ploadbar=  1.01080856947016E+05
 cg2d: Sum(rhs),rhsMax =  -9.77593617987069E+01  1.58483742507249E+00
(PID.TID 0000.0001)  ploadbar=  1.01081341074390E+05
 cg2d: Sum(rhs),rhsMax =  -9.82307574345875E+01  1.57704441033597E+00
(PID.TID 0000.0001)  ploadbar=  1.01081870710104E+05
 cg2d: Sum(rhs),rhsMax =  -9.86398846297371E+01  1.57028189682539E+00
(PID.TID 0000.0001)  ploadbar=  1.01082400345818E+05
 cg2d: Sum(rhs),rhsMax =  -9.89571170869512E+01  1.56498995623765E+00
(PID.TID 0000.0001)  ploadbar=  1.01082929981531E+05
 cg2d: Sum(rhs),rhsMax =  -9.91843172500909E+01  1.56110733195632E+00
(PID.TID 0000.0001)  ploadbar=  1.01083459617245E+05
 cg2d: Sum(rhs),rhsMax =  -9.93195535523331E+01  1.55864073171431E+00
(PID.TID 0000.0001)  ploadbar=  1.01083989252959E+05
 cg2d: Sum(rhs),rhsMax =  -9.93717671329790E+01  1.55743583450920E+00
(PID.TID 0000.0001)  ploadbar=  1.01084518888672E+05
 cg2d: Sum(rhs),rhsMax =  -9.94255297076067E+01  1.55624600171914E+00
(PID.TID 0000.0001)  ploadbar=  1.01085528399222E+05
 cg2d: Sum(rhs),rhsMax =  -9.94479444015289E+01  1.55558232660514E+00
(PID.TID 0000.0001)  ploadbar=  1.01086537909772E+05
 cg2d: Sum(rhs),rhsMax =  -9.94718883621846E+01  1.55492432741321E+00
(PID.TID 0000.0001)  ploadbar=  1.01087547420322E+05
 cg2d: Sum(rhs),rhsMax =  -9.95374314307180E+01  1.55363563465833E+00
(PID.TID 0000.0001)  ploadbar=  1.01088556930871E+05
 cg2d: Sum(rhs),rhsMax =  -9.96436898840398E+01  1.55172457406763E+00
(PID.TID 0000.0001)  ploadbar=  1.01089566441421E+05
 cg2d: Sum(rhs),rhsMax =  -9.94509978780319E+01  1.55448393487941E+00
(PID.TID 0000.0001)  ploadbar=  1.01090575951971E+05
 cg2d: Sum(rhs),rhsMax =  -9.94067140197194E+01  1.55493693998584E+00
(PID.TID 0000.0001)  ploadbar=  1.01089720497563E+05
 cg2d: Sum(rhs),rhsMax =  -9.95484703932103E+01  1.55248848987237E+00
(PID.TID 0000.0001)  ploadbar=  1.01088865043155E+05
 cg2d: Sum(rhs),rhsMax =  -9.96625655033133E+01  1.55047630629640E+00
(PID.TID 0000.0001)  ploadbar=  1.01088009588747E+05
 cg2d: Sum(rhs),rhsMax =  -9.98040936172273E+01  1.54803948213673E+00
(PID.TID 0000.0001)  ploadbar=  1.01087154134339E+05
 cg2d: Sum(rhs),rhsMax =  -9.99521529931612E+01  1.54550138188440E+00
(PID.TID 0000.0001)  ploadbar=  1.01086298679930E+05
 cg2d: Sum(rhs),rhsMax =  -1.00091403265573E+02  1.54309354674832E+00
(PID.TID 0000.0001)  ploadbar=  1.01085443225522E+05
 cg2d: Sum(rhs),rhsMax =  -1.00283322668976E+02  1.53988995871927E+00
(PID.TID 0000.0001)  ploadbar=  1.01085818707880E+05
 cg2d: Sum(rhs),rhsMax =  -1.00487561388845E+02  1.53651313695615E+00
(PID.TID 0000.0001)  ploadbar=  1.01086194190238E+05
 cg2d: Sum(rhs),rhsMax =  -1.00713119843203E+02  1.53282470967385E+00
(PID.TID 0000.0001)  ploadbar=  1.01086569672595E+05
 cg2d: Sum(rhs),rhsMax =  -1.00974520295430E+02  1.52860408399894E+00
(PID.TID 0000.0001)  ploadbar=  1.01086945154953E+05
 cg2d: Sum(rhs),rhsMax =  -1.01279069959283E+02  1.52374629310066E+00
(PID.TID 0000.0001)  ploadbar=  1.01087320637311E+05
 cg2d: Sum(rhs),rhsMax =  -1.01624397807933E+02  1.51829372558876E+00
(PID.TID 0000.0001)  ploadbar=  1.01087696119668E+05
 cg2d: Sum(rhs),rhsMax =  -1.02049779094202E+02  1.51167603889067E+00
(PID.TID 0000.0001)  ploadbar=  1.01088959518954E+05
 cg2d: Sum(rhs),rhsMax =  -1.02511696941935E+02  1.50455910451262E+00
(PID.TID 0000.0001)  ploadbar=  1.01090222918240E+05
 cg2d: Sum(rhs),rhsMax =  -1.02979939302020E+02  1.49739365708424E+00
(PID.TID 0000.0001)  ploadbar=  1.01091486317526E+05
 cg2d: Sum(rhs),rhsMax =  -1.03431525935874E+02  1.49051040643282E+00
(PID.TID 0000.0001)  ploadbar=  1.01092749716812E+05
 cg2d: Sum(rhs),rhsMax =  -1.03850186940234E+02  1.48413246839791E+00
(PID.TID 0000.0001)  ploadbar=  1.01094013116098E+05
 cg2d: Sum(rhs),rhsMax =  -1.04224354532079E+02  1.47840883570280E+00
(PID.TID 0000.0001)  ploadbar=  1.01095276515384E+05
 cg2d: Sum(rhs),rhsMax =  -1.04585608801528E+02  1.47295495118591E+00
(PID.TID 0000.0001)  ploadbar=  1.01095807395800E+05
 cg2d: Sum(rhs),rhsMax =  -1.04896253300394E+02  1.46828898959342E+00
(PID.TID 0000.0001)  ploadbar=  1.01096338276217E+05
 cg2d: Sum(rhs),rhsMax =  -1.05163550258083E+02  1.46429175349143E+00
(PID.TID 0000.0001)  ploadbar=  1.01096869156634E+05
 cg2d: Sum(rhs),rhsMax =  -1.05388630048606E+02  1.46093280522914E+00
(PID.TID 0000.0001)  ploadbar=  1.01097400037050E+05
 cg2d: Sum(rhs),rhsMax =  -1.05581749591650E+02  1.45806076257197E+00
(PID.TID 0000.0001)  ploadbar=  1.01097930917467E+05
 cg2d: Sum(rhs),rhsMax =  -1.05757050683438E+02  1.45547043664528E+00
(PID.TID 0000.0001)  ploadbar=  1.01098461797884E+05
 cg2d: Sum(rhs),rhsMax =  -1.05990099206805E+02  1.45211010354418E+00
(PID.TID 0000.0001)  ploadbar=  1.01098579509595E+05
 cg2d: Sum(rhs),rhsMax =  -1.06272123314344E+02  1.44810636225395E+00
(PID.TID 0000.0001)  ploadbar=  1.01098697221307E+05
 cg2d: Sum(rhs),rhsMax =  -1.06647540619863E+02  1.44286353464089E+00
(PID.TID 0000.0001)  ploadbar=  1.01098814933018E+05
 cg2d: Sum(rhs),rhsMax =  -1.07135320278310E+02  1.43615036688203E+00
(PID.TID 0000.0001)  ploadbar=  1.01098932644730E+05
 cg2d: Sum(rhs),rhsMax =  -1.07729660314996E+02  1.42808203251009E+00
(PID.TID 0000.0001)  ploadbar=  1.01099050356441E+05
 cg2d: Sum(rhs),rhsMax =  -1.08488410366400E+02  1.41794284294366E+00
(PID.TID 0000.0001)  ploadbar=  1.01099168068153E+05
 cg2d: Sum(rhs),rhsMax =  -1.09431431107552E+02  1.40556597453346E+00
(PID.TID 0000.0001)  ploadbar=  1.01099116729285E+05
 cg2d: Sum(rhs),rhsMax =  -1.10624875045235E+02  1.39023586628370E+00
(PID.TID 0000.0001)  ploadbar=  1.01099065390417E+05
 cg2d: Sum(rhs),rhsMax =  -1.12012111861360E+02  1.37284048009085E+00
(PID.TID 0000.0001)  ploadbar=  1.01099014051548E+05
 cg2d: Sum(rhs),rhsMax =  -1.13594946785332E+02  1.35351857799169E+00
(PID.TID 0000.0001)  ploadbar=  1.01098962712680E+05
 cg2d: Sum(rhs),rhsMax =  -1.15367496434472E+02  1.33251142122723E+00
(PID.TID 0000.0001)  ploadbar=  1.01098911373812E+05
 cg2d: Sum(rhs),rhsMax =  -1.17306377495136E+02  1.31025435494552E+00
(PID.TID 0000.0001)  ploadbar=  1.01098860034944E+05
 cg2d: Sum(rhs),rhsMax =  -1.19256546736593E+02  1.28858555271961E+00
(PID.TID 0000.0001)  ploadbar=  1.01098438579943E+05
 cg2d: Sum(rhs),rhsMax =  -1.21299601533651E+02  1.26662890660620E+00
(PID.TID 0000.0001)  ploadbar=  1.01098017124942E+05
 cg2d: Sum(rhs),rhsMax =  -1.23391989648387E+02  1.24488539610623E+00
(PID.TID 0000.0001)  ploadbar=  1.01097595669941E+05
 cg2d: Sum(rhs),rhsMax =  -1.25534427149038E+02  1.22336036621438E+00
(PID.TID 0000.0001)  ploadbar=  1.01097174214940E+05
 cg2d: Sum(rhs),rhsMax =  -1.27722509603314E+02  1.20210685402842E+00
(PID.TID 0000.0001)  ploadbar=  1.01096752759939E+05
 cg2d: Sum(rhs),rhsMax =  -1.29915822208111E+02  1.18149851576800E+00
(PID.TID 0000.0001)  ploadbar=  1.01096331304938E+05
 cg2d: Sum(rhs),rhsMax =  -1.31938909118340E+02  1.16310863952766E+00
(PID.TID 0000.0001)  ploadbar=  1.01096592513568E+05
 cg2d: Sum(rhs),rhsMax =  -1.33734262514694E+02  1.14725561616334E+00
(PID.TID 0000.0001)  ploadbar=  1.01096853722198E+05
 cg2d: Sum(rhs),rhsMax =  -1.35202014656997E+02  1.13459568797680E+00
(PID.TID 0000.0001)  ploadbar=  1.01097114930828E+05
 cg2d: Sum(rhs),rhsMax =  -1.36301016968516E+02  1.12527144870780E+00
(PID.TID 0000.0001)  ploadbar=  1.01097376139458E+05
 cg2d: Sum(rhs),rhsMax =  -1.37001865124400E+02  1.11936168995058E+00
(PID.TID 0000.0001)  ploadbar=  1.01097637348087E+05
 cg2d: Sum(rhs),rhsMax =  -1.37288254521096E+02  1.11689356471617E+00
(PID.TID 0000.0001)  ploadbar=  1.01097898556717E+05
 cg2d: Sum(rhs),rhsMax =  -1.36437150993322E+02  1.12371625184788E+00
(PID.TID 0000.0001)  ploadbar=  1.01097745152400E+05
 cg2d: Sum(rhs),rhsMax =  -1.35720694835474E+02  1.12948896695980E+00
(PID.TID 0000.0001)  ploadbar=  1.01097591748082E+05
 cg2d: Sum(rhs),rhsMax =  -1.35675752809692E+02  1.12968720128417E+00
(PID.TID 0000.0001)  ploadbar=  1.01097438343765E+05
 cg2d: Sum(rhs),rhsMax =  -1.35902233513892E+02  1.12761087345284E+00
(PID.TID 0000.0001)  ploadbar=  1.01097284939448E+05
 cg2d: Sum(rhs),rhsMax =  -1.35778994190748E+02  1.12841967777851E+00
(PID.TID 0000.0001)  ploadbar=  1.01097131535130E+05
 cg2d: Sum(rhs),rhsMax =  -1.35512741498237E+02  1.13039692893224E+00
(PID.TID 0000.0001)  ploadbar=  1.01096978130813E+05
 cg2d: Sum(rhs),rhsMax =  -1.32995242928913E+02  1.15155756159147E+00
(PID.TID 0000.0001)  ploadbar=  1.01097030764183E+05
 cg2d: Sum(rhs),rhsMax =  -1.29668776868140E+02  1.18086063532093E+00
(PID.TID 0000.0001)  ploadbar=  1.01097083397553E+05
 cg2d: Sum(rhs),rhsMax =  -1.26388826600768E+02  1.21126254285412E+00
(PID.TID 0000.0001)  ploadbar=  1.01097136030923E+05
 cg2d: Sum(rhs),rhsMax =  -1.23338336033741E+02  1.24096948065551E+00
(PID.TID 0000.0001)  ploadbar=  1.01097188664293E+05
 cg2d: Sum(rhs),rhsMax =  -1.20800602488704E+02  1.26677785171312E+00
(PID.TID 0000.0001)  ploadbar=  1.01097241297663E+05
 cg2d: Sum(rhs),rhsMax =  -1.18536753750571E+02  1.29069471808939E+00
(PID.TID 0000.0001)  ploadbar=  1.01097293931033E+05
 cg2d: Sum(rhs),rhsMax =  -1.16722628190039E+02  1.31047119506351E+00
(PID.TID 0000.0001)  ploadbar=  1.01097405293372E+05
 cg2d: Sum(rhs),rhsMax =  -1.14819749509059E+02  1.33189580896755E+00
(PID.TID 0000.0001)  ploadbar=  1.01097516655711E+05
 cg2d: Sum(rhs),rhsMax =  -1.12951682638897E+02  1.35361834125041E+00
(PID.TID 0000.0001)  ploadbar=  1.01097628018049E+05
 cg2d: Sum(rhs),rhsMax =  -1.11173784277182E+02  1.37494667549282E+00
(PID.TID 0000.0001)  ploadbar=  1.01097739380388E+05
 cg2d: Sum(rhs),rhsMax =  -1.09494890291500E+02  1.39569331556737E+00
(PID.TID 0000.0001)  ploadbar=  1.01097850742727E+05
 cg2d: Sum(rhs),rhsMax =  -1.07913651681973E+02  1.41578621465722E+00
(PID.TID 0000.0001)  ploadbar=  1.01097962105066E+05
 cg2d: Sum(rhs),rhsMax =  -1.06215408480056E+02  1.43811430455023E+00
(PID.TID 0000.0001)  ploadbar=  1.01098225304882E+05
 cg2d: Sum(rhs),rhsMax =  -1.04520139636594E+02  1.46117846580161E+00
(PID.TID 0000.0001)  ploadbar=  1.01098488504698E+05
 cg2d: Sum(rhs),rhsMax =  -1.02868119565357E+02  1.48442357504937E+00
(PID.TID 0000.0001)  ploadbar=  1.01098751704514E+05
 cg2d: Sum(rhs),rhsMax =  -1.01260199256523E+02  1.50780906221629E+00
(PID.TID 0000.0001)  ploadbar=  1.01099014904330E+05
 cg2d: Sum(rhs),rhsMax =  -9.96819787117441E+01  1.53152625807217E+00
(PID.TID 0000.0001)  ploadbar=  1.01099278104146E+05
 cg2d: Sum(rhs),rhsMax =  -9.81435592215575E+01  1.55540357351345E+00
(PID.TID 0000.0001)  ploadbar=  1.01099541303961E+05
 cg2d: Sum(rhs),rhsMax =  -9.67285622933804E+01  1.57802333636539E+00
(PID.TID 0000.0001)  ploadbar=  1.01100018911369E+05
 cg2d: Sum(rhs),rhsMax =  -9.55080331304196E+01  1.59805287935820E+00
(PID.TID 0000.0001)  ploadbar=  1.01100496518776E+05
 cg2d: Sum(rhs),rhsMax =  -9.45041215931603E+01  1.61488829415019E+00
(PID.TID 0000.0001)  ploadbar=  1.01100974126184E+05
 cg2d: Sum(rhs),rhsMax =  -9.36889255825847E+01  1.62879353886317E+00
(PID.TID 0000.0001)  ploadbar=  1.01101451733591E+05
 cg2d: Sum(rhs),rhsMax =  -9.30503940118183E+01  1.63981477091100E+00
(PID.TID 0000.0001)  ploadbar=  1.01101929340998E+05
 cg2d: Sum(rhs),rhsMax =  -9.25773906944782E+01  1.64802045236333E+00
(PID.TID 0000.0001)  ploadbar=  1.01102406948406E+05
 cg2d: Sum(rhs),rhsMax =  -9.25137022144679E+01  1.64897434383183E+00
(PID.TID 0000.0001)  ploadbar=  1.01103175578019E+05
 cg2d: Sum(rhs),rhsMax =  -9.25659030249399E+01  1.64785065608860E+00
(PID.TID 0000.0001)  ploadbar=  1.01103944207633E+05
 cg2d: Sum(rhs),rhsMax =  -9.27034437025876E+01  1.64519682312449E+00
(PID.TID 0000.0001)  ploadbar=  1.01104712837247E+05
 cg2d: Sum(rhs),rhsMax =  -9.29221685043246E+01  1.64109736389866E+00
(PID.TID 0000.0001)  ploadbar=  1.01105481466860E+05
 cg2d: Sum(rhs),rhsMax =  -9.32028462737290E+01  1.63590864829985E+00
(PID.TID 0000.0001)  ploadbar=  1.01106250096474E+05
 cg2d: Sum(rhs),rhsMax =  -9.35225955896423E+01  1.63004725911873E+00
(PID.TID 0000.0001)  ploadbar=  1.01107018726088E+05
 cg2d: Sum(rhs),rhsMax =  -9.38416036668372E+01  1.62423932940400E+00
(PID.TID 0000.0001)  ploadbar=  1.01107965561296E+05
 cg2d: Sum(rhs),rhsMax =  -9.41622881843179E+01  1.61843899002558E+00
(PID.TID 0000.0001)  ploadbar=  1.01108912396504E+05
 cg2d: Sum(rhs),rhsMax =  -9.44416920819266E+01  1.61337611666110E+00
(PID.TID 0000.0001)  ploadbar=  1.01109859231712E+05
 cg2d: Sum(rhs),rhsMax =  -9.46894870950134E+01  1.60886890958301E+00
(PID.TID 0000.0001)  ploadbar=  1.01110806066920E+05
 cg2d: Sum(rhs),rhsMax =  -9.49149953929894E+01  1.60474545477720E+00
(PID.TID 0000.0001)  ploadbar=  1.01111752902128E+05
 cg2d: Sum(rhs),rhsMax =  -9.51082891175534E+01  1.60116273452075E+00
(PID.TID 0000.0001)  ploadbar=  1.01112699737336E+05
 cg2d: Sum(rhs),rhsMax =  -9.52806756051761E+01  1.59802486130733E+00
(PID.TID 0000.0001)  ploadbar=  1.01113436719646E+05
 cg2d: Sum(rhs),rhsMax =  -9.54305297453058E+01  1.59534833263855E+00
(PID.TID 0000.0001)  ploadbar=  1.01114173701956E+05
 cg2d: Sum(rhs),rhsMax =  -9.55461538150201E+01  1.59331820840444E+00
(PID.TID 0000.0001)  ploadbar=  1.01114910684265E+05
 cg2d: Sum(rhs),rhsMax =  -9.55899804471328E+01  1.59254675041948E+00
(PID.TID 0000.0001)  ploadbar=  1.01115647666575E+05
 cg2d: Sum(rhs),rhsMax =  -9.56219671812300E+01  1.59202509901553E+00
(PID.TID 0000.0001)  ploadbar=  1.01116384648885E+05
 cg2d: Sum(rhs),rhsMax =  -9.60128213966563E+01  1.58559952650544E+00
(PID.TID 0000.0001)  ploadbar=  1.01117121631194E+05
 cg2d: Sum(rhs),rhsMax =  -9.61978337831282E+01  1.58261762787438E+00
(PID.TID 0000.0001)  ploadbar=  1.01117122963279E+05
 cg2d: Sum(rhs),rhsMax =  -9.62985176359321E+01  1.58104056476898E+00
(PID.TID 0000.0001)  ploadbar=  1.01117124295363E+05
 cg2d: Sum(rhs),rhsMax =  -9.62755751159161E+01  1.58150029776027E+00
(PID.TID 0000.0001)  ploadbar=  1.01117125627448E+05
 cg2d: Sum(rhs),rhsMax =  -9.61184370224382E+01  1.58417172782443E+00
(PID.TID 0000.0001)  ploadbar=  1.01117126959532E+05
 cg2d: Sum(rhs),rhsMax =  -9.58380167790548E+01  1.58888888088267E+00
(PID.TID 0000.0001)  ploadbar=  1.01117128291616E+05
 cg2d: Sum(rhs),rhsMax =  -9.55374055406801E+01  1.59395995877752E+00
(PID.TID 0000.0001)  ploadbar=  1.01117129623701E+05
 cg2d: Sum(rhs),rhsMax =  -9.53334480616431E+01  1.59745869227612E+00
(PID.TID 0000.0001)  ploadbar=  1.01116641950636E+05
 cg2d: Sum(rhs),rhsMax =  -9.52037282614114E+01  1.59973518290552E+00
(PID.TID 0000.0001)  ploadbar=  1.01116154277571E+05
 cg2d: Sum(rhs),rhsMax =  -9.51276579818275E+01  1.60112373452227E+00
(PID.TID 0000.0001)  ploadbar=  1.01115666604507E+05
 cg2d: Sum(rhs),rhsMax =  -9.51245536039828E+01  1.60129047216306E+00
(PID.TID 0000.0001)  ploadbar=  1.01115178931442E+05
 cg2d: Sum(rhs),rhsMax =  -9.52013597764596E+01  1.60011468637676E+00
(PID.TID 0000.0001)  ploadbar=  1.01114691258377E+05
 cg2d: Sum(rhs),rhsMax =  -9.53629189247064E+01  1.59751455950682E+00
(PID.TID 0000.0001)  ploadbar=  1.01114203585312E+05
 cg2d: Sum(rhs),rhsMax =  -9.55906114219467E+01  1.59380390751679E+00
(PID.TID 0000.0001)  ploadbar=  1.01114232531144E+05
 cg2d: Sum(rhs),rhsMax =  -9.58560944902311E+01  1.58946568712169E+00
(PID.TID 0000.0001)  ploadbar=  1.01114261476976E+05
 cg2d: Sum(rhs),rhsMax =  -9.61876281445385E+01  1.58404085422353E+00
(PID.TID 0000.0001)  ploadbar=  1.01114290422808E+05
 cg2d: Sum(rhs),rhsMax =  -9.65881533804977E+01  1.57749916585226E+00
(PID.TID 0000.0001)  ploadbar=  1.01114319368640E+05
 cg2d: Sum(rhs),rhsMax =  -9.70547674631134E+01  1.56991273898344E+00
(PID.TID 0000.0001)  ploadbar=  1.01114348314472E+05
 cg2d: Sum(rhs),rhsMax =  -9.75605952551651E+01  1.56173569794932E+00
(PID.TID 0000.0001)  ploadbar=  1.01114377260304E+05
 cg2d: Sum(rhs),rhsMax =  -9.80915365674819E+01  1.55326336045461E+00
(PID.TID 0000.0001)  ploadbar=  1.01113985553737E+05
 cg2d: Sum(rhs),rhsMax =  -9.86277899851278E+01  1.54480904571519E+00
(PID.TID 0000.0001)  ploadbar=  1.01113593847171E+05
 cg2d: Sum(rhs),rhsMax =  -9.91388383153610E+01  1.53684247396070E+00
(PID.TID 0000.0001)  ploadbar=  1.01113202140605E+05
 cg2d: Sum(rhs),rhsMax =  -9.96138527424009E+01  1.52950972745651E+00
(PID.TID 0000.0001)  ploadbar=  1.01112810434038E+05
 cg2d: Sum(rhs),rhsMax =  -1.00050022610313E+02  1.52283181609657E+00
(PID.TID 0000.0001)  ploadbar=  1.01112418727472E+05
 cg2d: Sum(rhs),rhsMax =  -1.00443117371807E+02  1.51685463513746E+00
(PID.TID 0000.0001)  ploadbar=  1.01112027020905E+05
 cg2d: Sum(rhs),rhsMax =  -1.00785032505429E+02  1.51170013381165E+00
(PID.TID 0000.0001)  ploadbar=  1.01111889678910E+05
 cg2d: Sum(rhs),rhsMax =  -1.01131145911674E+02  1.50652247990723E+00
(PID.TID 0000.0001)  ploadbar=  1.01111752336914E+05
 cg2d: Sum(rhs),rhsMax =  -1.01513691612856E+02  1.50083976764431E+00
(PID.TID 0000.0001)  ploadbar=  1.01111614994918E+05
 cg2d: Sum(rhs),rhsMax =  -1.01949930446007E+02  1.49440474074280E+00
(PID.TID 0000.0001)  ploadbar=  1.01111477652923E+05
 cg2d: Sum(rhs),rhsMax =  -1.02485062027592E+02  1.48657679107188E+00
(PID.TID 0000.0001)  ploadbar=  1.01111340310927E+05
 cg2d: Sum(rhs),rhsMax =  -1.03089291194399E+02  1.47782160370717E+00
(PID.TID 0000.0001)  ploadbar=  1.01111202968931E+05
 cg2d: Sum(rhs),rhsMax =  -1.03745328184020E+02  1.46844630699148E+00
(PID.TID 0000.0001)  ploadbar=  1.01111482667599E+05
 cg2d: Sum(rhs),rhsMax =  -1.04411985227078E+02  1.45904962235244E+00
(PID.TID 0000.0001)  ploadbar=  1.01111762366267E+05
 cg2d: Sum(rhs),rhsMax =  -1.05071954173416E+02  1.44987188639936E+00
(PID.TID 0000.0001)  ploadbar=  1.01112042064935E+05
 cg2d: Sum(rhs),rhsMax =  -1.05691425102023E+02  1.44136329124806E+00
(PID.TID 0000.0001)  ploadbar=  1.01112321763603E+05
 cg2d: Sum(rhs),rhsMax =  -1.06249307952903E+02  1.43377928581263E+00
(PID.TID 0000.0001)  ploadbar=  1.01112601462271E+05
 cg2d: Sum(rhs),rhsMax =  -1.06740715267647E+02  1.42715187009560E+00
(PID.TID 0000.0001)  ploadbar=  1.01112881160939E+05
 cg2d: Sum(rhs),rhsMax =  -1.07133544271220E+02  1.42188239858823E+00
(PID.TID 0000.0001)  ploadbar=  1.01112951091744E+05
 cg2d: Sum(rhs),rhsMax =  -1.07490893678688E+02  1.41710500314449E+00
(PID.TID 0000.0001)  ploadbar=  1.01113021022550E+05
 cg2d: Sum(rhs),rhsMax =  -1.07835471631424E+02  1.41250682524344E+00
(PID.TID 0000.0001)  ploadbar=  1.01113090953355E+05
 cg2d: Sum(rhs),rhsMax =  -1.08173136626920E+02  1.40800364875943E+00
(PID.TID 0000.0001)  ploadbar=  1.01113160884161E+05
 cg2d: Sum(rhs),rhsMax =  -1.08510803425505E+02  1.40350179141124E+00
(PID.TID 0000.0001)  ploadbar=  1.01113230814966E+05
 cg2d: Sum(rhs),rhsMax =  -1.08853564844702E+02  1.39893270216951E+00
(PID.TID 0000.0001)  ploadbar=  1.01113300745772E+05
 cg2d: Sum(rhs),rhsMax =  -1.09185188799792E+02  1.39455553573386E+00
(PID.TID 0000.0001)  ploadbar=  1.01113844686936E+05
 cg2d: Sum(rhs),rhsMax =  -1.09495618005011E+02  1.39048858187875E+00
(PID.TID 0000.0001)  ploadbar=  1.01114388628100E+05
 cg2d: Sum(rhs),rhsMax =  -1.09785011643832E+02  1.38671950473063E+00
(PID.TID 0000.0001)  ploadbar=  1.01114932569263E+05
 cg2d: Sum(rhs),rhsMax =  -1.09745988591238E+02  1.38711424257475E+00
(PID.TID 0000.0001)  ploadbar=  1.01115476510427E+05
 cg2d: Sum(rhs),rhsMax =  -1.09114644188092E+02  1.39504333147272E+00
(PID.TID 0000.0001)  ploadbar=  1.01116020451591E+05
 cg2d: Sum(rhs),rhsMax =  -1.08569644428080E+02  1.40194795191049E+00
(PID.TID 0000.0001)  ploadbar=  1.01116564392755E+05
 cg2d: Sum(rhs),rhsMax =  -1.08210208947882E+02  1.40651838285017E+00
(PID.TID 0000.0001)  ploadbar=  1.01116804288715E+05
 cg2d: Sum(rhs),rhsMax =  -1.07947862311715E+02  1.40985707605960E+00
(PID.TID 0000.0001)  ploadbar=  1.01117044184675E+05
 cg2d: Sum(rhs),rhsMax =  -1.07741241809711E+02  1.41248224642159E+00
(PID.TID 0000.0001)  ploadbar=  1.01117284080635E+05
 cg2d: Sum(rhs),rhsMax =  -1.07520923321155E+02  1.41529217657149E+00
(PID.TID 0000.0001)  ploadbar=  1.01117523976594E+05
 cg2d: Sum(rhs),rhsMax =  -1.07206577237921E+02  1.41934778236818E+00
(PID.TID 0000.0001)  ploadbar=  1.01117763872554E+05
 cg2d: Sum(rhs),rhsMax =  -1.06720365147089E+02  1.42570569485854E+00
(PID.TID 0000.0001)  ploadbar=  1.01118003768514E+05
 cg2d: Sum(rhs),rhsMax =  -1.06076264798043E+02  1.43425260295220E+00
(PID.TID 0000.0001)  ploadbar=  1.01118866881880E+05
 cg2d: Sum(rhs),rhsMax =  -1.05309623549222E+02  1.44457654012796E+00
(PID.TID 0000.0001)  ploadbar=  1.01119729995247E+05
 cg2d: Sum(rhs),rhsMax =  -1.04479287614915E+02  1.45592522985018E+00
(PID.TID 0000.0001)  ploadbar=  1.01120593108614E+05
 cg2d: Sum(rhs),rhsMax =  -1.03657692943015E+02  1.46730957530787E+00
(PID.TID 0000.0001)  ploadbar=  1.01121456221980E+05
 cg2d: Sum(rhs),rhsMax =  -1.02923369955060E+02  1.47759171228484E+00
(PID.TID 0000.0001)  ploadbar=  1.01122319335347E+05
 cg2d: Sum(rhs),rhsMax =  -1.02333391948093E+02  1.48588716804905E+00
(PID.TID 0000.0001)  ploadbar=  1.01123182448713E+05
 cg2d: Sum(rhs),rhsMax =  -1.01951121267672E+02  1.49120620556491E+00
(PID.TID 0000.0001)  ploadbar=  1.01123688246129E+05
 cg2d: Sum(rhs),rhsMax =  -1.01726180907114E+02  1.49422083430920E+00
(PID.TID 0000.0001)  ploadbar=  1.01124194043545E+05
 cg2d: Sum(rhs),rhsMax =  -1.01594862487217E+02  1.49583551730357E+00
(PID.TID 0000.0001)  ploadbar=  1.01124699840961E+05
 cg2d: Sum(rhs),rhsMax =  -1.01488404264453E+02  1.49704801511217E+00
(PID.TID 0000.0001)  ploadbar=  1.01125205638377E+05
 cg2d: Sum(rhs),rhsMax =  -1.01340804108139E+02  1.49882771082987E+00
(PID.TID 0000.0001)  ploadbar=  1.01125711435793E+05
 cg2d: Sum(rhs),rhsMax =  -1.01109579332049E+02  1.50180695290272E+00
(PID.TID 0000.0001)  ploadbar=  1.01126217233209E+05
 cg2d: Sum(rhs),rhsMax =  -1.00788811021741E+02  1.50618091524027E+00
(PID.TID 0000.0001)  ploadbar=  1.01126736120477E+05
 cg2d: Sum(rhs),rhsMax =  -1.00379471129493E+02  1.51195641014792E+00
(PID.TID 0000.0001)  ploadbar=  1.01127255007745E+05
 cg2d: Sum(rhs),rhsMax =  -9.98978807547590E+01  1.51891187183153E+00
(PID.TID 0000.0001)  ploadbar=  1.01127773895013E+05
 cg2d: Sum(rhs),rhsMax =  -9.93801550910655E+01  1.52651907191798E+00
(PID.TID 0000.0001)  ploadbar=  1.01128292782282E+05
 cg2d: Sum(rhs),rhsMax =  -9.88635679427748E+01  1.53421358601095E+00
(PID.TID 0000.0001)  ploadbar=  1.01128811669550E+05
 cg2d: Sum(rhs),rhsMax =  -9.83791982744932E+01  1.54150461446735E+00
(PID.TID 0000.0001)  ploadbar=  1.01129330556818E+05
 cg2d: Sum(rhs),rhsMax =  -9.78716773403974E+01  1.54925004908148E+00
(PID.TID 0000.0001)  ploadbar=  1.01127643803818E+05
 cg2d: Sum(rhs),rhsMax =  -9.73771656371461E+01  1.55687931461458E+00
(PID.TID 0000.0001)  ploadbar=  1.01125957050819E+05
 cg2d: Sum(rhs),rhsMax =  -9.69120504138532E+01  1.56411679264474E+00
(PID.TID 0000.0001)  ploadbar=  1.01124270297820E+05
 cg2d: Sum(rhs),rhsMax =  -9.64574074944454E+01  1.57125020297768E+00
(PID.TID 0000.0001)  ploadbar=  1.01122583544820E+05
 cg2d: Sum(rhs),rhsMax =  -9.60025010206886E+01  1.57844783866795E+00
(PID.TID 0000.0001)  ploadbar=  1.01120896791821E+05
 cg2d: Sum(rhs),rhsMax =  -9.55138356402654E+01  1.58626244408343E+00
(PID.TID 0000.0001)  ploadbar=  1.01119210038821E+05
 cg2d: Sum(rhs),rhsMax =  -9.51438388034173E+01  1.59219660355415E+00
(PID.TID 0000.0001)  ploadbar=  1.01117820385160E+05
 cg2d: Sum(rhs),rhsMax =  -9.48525729150871E+01  1.59687067958254E+00
(PID.TID 0000.0001)  ploadbar=  1.01116430731498E+05
 cg2d: Sum(rhs),rhsMax =  -9.46739596383269E+01  1.59968267467726E+00
(PID.TID 0000.0001)  ploadbar=  1.01115041077836E+05
 cg2d: Sum(rhs),rhsMax =  -9.46187281080247E+01  1.60042398722154E+00
(PID.TID 0000.0001)  ploadbar=  1.01113651424175E+05
 cg2d: Sum(rhs),rhsMax =  -9.47050368409093E+01  1.59877806455900E+00
(PID.TID 0000.0001)  ploadbar=  1.01112261770513E+05
 cg2d: Sum(rhs),rhsMax =  -9.49449938719650E+01  1.59454958338507E+00
(PID.TID 0000.0001)  ploadbar=  1.01110872116852E+05
 cg2d: Sum(rhs),rhsMax =  -9.54976385517743E+01  1.58511927922465E+00
(PID.TID 0000.0001)  ploadbar=  1.01110421094752E+05
 cg2d: Sum(rhs),rhsMax =  -9.63075964545285E+01  1.57156774577513E+00
(PID.TID 0000.0001)  ploadbar=  1.01109970072652E+05
 cg2d: Sum(rhs),rhsMax =  -9.73252455519082E+01  1.55489415589290E+00
(PID.TID 0000.0001)  ploadbar=  1.01109519050552E+05
 cg2d: Sum(rhs),rhsMax =  -9.84721739922031E+01  1.53651730862337E+00
(PID.TID 0000.0001)  ploadbar=  1.01109068028452E+05
 cg2d: Sum(rhs),rhsMax =  -9.96734971280245E+01  1.51769978457094E+00
(PID.TID 0000.0001)  ploadbar=  1.01108617006353E+05
 cg2d: Sum(rhs),rhsMax =  -1.00867853004046E+02  1.49939406114353E+00
(PID.TID 0000.0001)  ploadbar=  1.01108165984253E+05
 cg2d: Sum(rhs),rhsMax =  -1.02027304002514E+02  1.48207700785348E+00
(PID.TID 0000.0001)  ploadbar=  1.01109369959376E+05
 cg2d: Sum(rhs),rhsMax =  -1.02953801549376E+02  1.46851512997148E+00
(PID.TID 0000.0001)  ploadbar=  1.01110573934499E+05
 cg2d: Sum(rhs),rhsMax =  -1.03777596675001E+02  1.45668195810222E+00
(PID.TID 0000.0001)  ploadbar=  1.01111777909621E+05
 cg2d: Sum(rhs),rhsMax =  -1.04652805315805E+02  1.44436771114977E+00
(PID.TID 0000.0001)  ploadbar=  1.01112981884744E+05
 cg2d: Sum(rhs),rhsMax =  -1.05568765230153E+02  1.43174502246281E+00
(PID.TID 0000.0001)  ploadbar=  1.01114185859867E+05
 cg2d: Sum(rhs),rhsMax =  -1.06644869565712E+02  1.41724552212400E+00
(PID.TID 0000.0001)  ploadbar=  1.01115389834990E+05
 cg2d: Sum(rhs),rhsMax =  -1.07918358974760E+02  1.40047366148397E+00
(PID.TID 0000.0001)  ploadbar=  1.01116607071682E+05
 cg2d: Sum(rhs),rhsMax =  -1.09548336048772E+02  1.37958862821609E+00
(PID.TID 0000.0001)  ploadbar=  1.01117824308375E+05
 cg2d: Sum(rhs),rhsMax =  -1.11557720275779E+02  1.35468526944739E+00
(PID.TID 0000.0001)  ploadbar=  1.01119041545067E+05
 cg2d: Sum(rhs),rhsMax =  -1.13923420303085E+02  1.32648757923616E+00
(PID.TID 0000.0001)  ploadbar=  1.01120258781760E+05
 cg2d: Sum(rhs),rhsMax =  -1.16598705229046E+02  1.29596625572206E+00
(PID.TID 0000.0001)  ploadbar=  1.01121476018453E+05
 cg2d: Sum(rhs),rhsMax =  -1.19448580198158E+02  1.26493483234945E+00
(PID.TID 0000.0001)  ploadbar=  1.01122693255145E+05
 cg2d: Sum(rhs),rhsMax =  -1.22326092117439E+02  1.23507645183889E+00
(PID.TID 0000.0001)  ploadbar=  1.01124205023710E+05
 cg2d: Sum(rhs),rhsMax =  -1.25267787459489E+02  1.20597632007238E+00
(PID.TID 0000.0001)  ploadbar=  1.01125716792275E+05
 cg2d: Sum(rhs),rhsMax =  -1.25597424320284E+02  1.20271387075825E+00
(PID.TID 0000.0001)  ploadbar=  1.01127228560841E+05
 cg2d: Sum(rhs),rhsMax =  -1.25909481935358E+02  1.19962817680966E+00
(PID.TID 0000.0001)  ploadbar=  1.01128740329406E+05
 cg2d: Sum(rhs),rhsMax =  -1.26191234271319E+02  1.19683249789320E+00
(PID.TID 0000.0001)  ploadbar=  1.01130252097971E+05
 cg2d: Sum(rhs),rhsMax =  -1.26432774912327E+02  1.19441010737011E+00
(PID.TID 0000.0001)  ploadbar=  1.01131763866536E+05
 cg2d: Sum(rhs),rhsMax =  -1.26553661923841E+02  1.19311606465170E+00
(PID.TID 0000.0001)  ploadbar=  1.01132431349178E+05
 cg2d: Sum(rhs),rhsMax =  -1.26612388608064E+02  1.19239107452007E+00
(PID.TID 0000.0001)  ploadbar=  1.01133098831820E+05
 cg2d: Sum(rhs),rhsMax =  -1.26648356774639E+02  1.19186022292973E+00
(PID.TID 0000.0001)  ploadbar=  1.01133766314462E+05
 cg2d: Sum(rhs),rhsMax =  -1.26636118608906E+02  1.19176157638818E+00
(PID.TID 0000.0001)  ploadbar=  1.01134433797104E+05
 cg2d: Sum(rhs),rhsMax =  -1.26573034556821E+02  1.19211882288459E+00
(PID.TID 0000.0001)  ploadbar=  1.01135101279746E+05
 cg2d: Sum(rhs),rhsMax =  -1.26462990442390E+02  1.19289236260597E+00
(PID.TID 0000.0001)  ploadbar=  1.01135768762388E+05
 cg2d: Sum(rhs),rhsMax =  -1.26271852907264E+02  1.19446945814402E+00
(PID.TID 0000.0001)  ploadbar=  1.01135309461309E+05
 cg2d: Sum(rhs),rhsMax =  -1.26059164756397E+02  1.19629016565896E+00
(PID.TID 0000.0001)  ploadbar=  1.01134850160231E+05
 cg2d: Sum(rhs),rhsMax =  -1.25852364149779E+02  1.19809309782104E+00
(PID.TID 0000.0001)  ploadbar=  1.01134390859152E+05
 cg2d: Sum(rhs),rhsMax =  -1.25650170141096E+02  1.19988566541565E+00
(PID.TID 0000.0001)  ploadbar=  1.01133931558074E+05
 cg2d: Sum(rhs),rhsMax =  -1.25475031938970E+02  1.20144912628078E+00
(PID.TID 0000.0001)  ploadbar=  1.01133472256995E+05
 cg2d: Sum(rhs),rhsMax =  -1.25344281456971E+02  1.20261190979471E+00
(PID.TID 0000.0001)  ploadbar=  1.01133012955917E+05
 cg2d: Sum(rhs),rhsMax =  -1.25191706504293E+02  1.20397902811723E+00
(PID.TID 0000.0001)  ploadbar=  1.01131937957440E+05
 cg2d: Sum(rhs),rhsMax =  -1.25044636598863E+02  1.20528399844954E+00
(PID.TID 0000.0001)  ploadbar=  1.01130862958963E+05
 cg2d: Sum(rhs),rhsMax =  -1.24902178975266E+02  1.20653143971142E+00
(PID.TID 0000.0001)  ploadbar=  1.01129787960486E+05
 cg2d: Sum(rhs),rhsMax =  -1.24759943373478E+02  1.20775947525436E+00
(PID.TID 0000.0001)  ploadbar=  1.01128712962009E+05
 cg2d: Sum(rhs),rhsMax =  -1.24611521489513E+02  1.20902641300000E+00
(PID.TID 0000.0001)  ploadbar=  1.01127637963532E+05
 cg2d: Sum(rhs),rhsMax =  -1.24453397870738E+02  1.21036287992729E+00
(PID.TID 0000.0001)  ploadbar=  1.01126562965055E+05
 cg2d: Sum(rhs),rhsMax =  -1.24336543374137E+02  1.21133689924745E+00
(PID.TID 0000.0001)  ploadbar=  1.01124650919129E+05
 cg2d: Sum(rhs),rhsMax =  -1.24193697992417E+02  1.21259872134691E+00
(PID.TID 0000.0001)  ploadbar=  1.01122738873203E+05
 cg2d: Sum(rhs),rhsMax =  -1.24036946831506E+02  1.21402515147013E+00
(PID.TID 0000.0001)  ploadbar=  1.01120826827276E+05
 cg2d: Sum(rhs),rhsMax =  -1.23899268969533E+02  1.21528446097656E+00
(PID.TID 0000.0001)  ploadbar=  1.01118914781350E+05
 cg2d: Sum(rhs),rhsMax =  -1.23783970423959E+02  1.21633494363849E+00
(PID.TID 0000.0001)  ploadbar=  1.01117002735424E+05
 cg2d: Sum(rhs),rhsMax =  -1.23697632199463E+02  1.21710069506693E+00
(PID.TID 0000.0001)  ploadbar=  1.01115090689497E+05
 cg2d: Sum(rhs),rhsMax =  -1.23621575937387E+02  1.21774981551290E+00
(PID.TID 0000.0001)  ploadbar=  1.01113674013446E+05
 cg2d: Sum(rhs),rhsMax =  -1.23549401741084E+02  1.21833988157332E+00
(PID.TID 0000.0001)  ploadbar=  1.01112257337395E+05
 cg2d: Sum(rhs),rhsMax =  -1.23482905431297E+02  1.21884846030279E+00
(PID.TID 0000.0001)  ploadbar=  1.01110840661343E+05
 cg2d: Sum(rhs),rhsMax =  -1.23428843849151E+02  1.21920573639677E+00
(PID.TID 0000.0001)  ploadbar=  1.01109423985292E+05
 cg2d: Sum(rhs),rhsMax =  -1.23380832719700E+02  1.21947021546926E+00
(PID.TID 0000.0001)  ploadbar=  1.01108007309241E+05
 cg2d: Sum(rhs),rhsMax =  -1.23335912687870E+02  1.21966575139573E+00
(PID.TID 0000.0001)  ploadbar=  1.01106590633189E+05
 cg2d: Sum(rhs),rhsMax =  -1.23302130149328E+02  1.21978778644485E+00
(PID.TID 0000.0001)  ploadbar=  1.01106153493470E+05
 cg2d: Sum(rhs),rhsMax =  -1.23257560042016E+02  1.22004848343069E+00
(PID.TID 0000.0001)  ploadbar=  1.01105716353751E+05
 cg2d: Sum(rhs),rhsMax =  -1.23195316807868E+02  1.22051010160224E+00
(PID.TID 0000.0001)  ploadbar=  1.01105279214031E+05
 cg2d: Sum(rhs),rhsMax =  -1.23131089666518E+02  1.22101196896812E+00
(PID.TID 0000.0001)  ploadbar=  1.01104842074312E+05
 cg2d: Sum(rhs),rhsMax =  -1.23074443829290E+02  1.22145306834439E+00
(PID.TID 0000.0001)  ploadbar=  1.01104404934593E+05
 cg2d: Sum(rhs),rhsMax =  -1.23028851892175E+02  1.22179039792873E+00
(PID.TID 0000.0001)  ploadbar=  1.01103967794874E+05
 cg2d: Sum(rhs),rhsMax =  -1.23149914193606E+02  1.22046006536439E+00
(PID.TID 0000.0001)  ploadbar=  1.01103561342816E+05
 cg2d: Sum(rhs),rhsMax =  -1.23326139771738E+02  1.21856738493103E+00
(PID.TID 0000.0001)  ploadbar=  1.01103154890759E+05
 cg2d: Sum(rhs),rhsMax =  -1.23518104407106E+02  1.21649770542223E+00
(PID.TID 0000.0001)  ploadbar=  1.01102748438702E+05
 cg2d: Sum(rhs),rhsMax =  -1.23743059421290E+02  1.21407849089314E+00
(PID.TID 0000.0001)  ploadbar=  1.01102341986644E+05
 cg2d: Sum(rhs),rhsMax =  -1.24015671189892E+02  1.21116447588258E+00
(PID.TID 0000.0001)  ploadbar=  1.01101935534587E+05
 cg2d: Sum(rhs),rhsMax =  -1.24335832040554E+02  1.20775758143407E+00
(PID.TID 0000.0001)  ploadbar=  1.01101529082529E+05
 cg2d: Sum(rhs),rhsMax =  -1.24667766686193E+02  1.20428591549715E+00
(PID.TID 0000.0001)  ploadbar=  1.01101083824302E+05
 cg2d: Sum(rhs),rhsMax =  -1.25103414394182E+02  1.19986386464095E+00
(PID.TID 0000.0001)  ploadbar=  1.01100638566074E+05
 cg2d: Sum(rhs),rhsMax =  -1.25576702049273E+02  1.19513655291556E+00
(PID.TID 0000.0001)  ploadbar=  1.01100193307846E+05
 cg2d: Sum(rhs),rhsMax =  -1.26060575744923E+02  1.19036249524198E+00
(PID.TID 0000.0001)  ploadbar=  1.01099748049618E+05
 cg2d: Sum(rhs),rhsMax =  -1.26556393211503E+02  1.18552448450144E+00
(PID.TID 0000.0001)  ploadbar=  1.01099302791391E+05
 cg2d: Sum(rhs),rhsMax =  -1.27068863064103E+02  1.18057326282595E+00
(PID.TID 0000.0001)  ploadbar=  1.01098857533163E+05
 cg2d: Sum(rhs),rhsMax =  -1.27566852052245E+02  1.17579257775001E+00
(PID.TID 0000.0001)  ploadbar=  1.01099175154004E+05
 cg2d: Sum(rhs),rhsMax =  -1.28059950462543E+02  1.17108731994696E+00
(PID.TID 0000.0001)  ploadbar=  1.01099492774846E+05
 cg2d: Sum(rhs),rhsMax =  -1.28526112284669E+02  1.16665294567249E+00
(PID.TID 0000.0001)  ploadbar=  1.01099810395687E+05
 cg2d: Sum(rhs),rhsMax =  -1.28951138337580E+02  1.16260615946685E+00
(PID.TID 0000.0001)  ploadbar=  1.01100128016529E+05
 cg2d: Sum(rhs),rhsMax =  -1.29326574822600E+02  1.15900911286533E+00
(PID.TID 0000.0001)  ploadbar=  1.01100445637371E+05
 cg2d: Sum(rhs),rhsMax =  -1.29653997451745E+02  1.15583433095998E+00
(PID.TID 0000.0001)  ploadbar=  1.01100763258212E+05
 cg2d: Sum(rhs),rhsMax =  -1.29919762122882E+02  1.15327037924544E+00
(PID.TID 0000.0001)  ploadbar=  1.01102158389042E+05
 cg2d: Sum(rhs),rhsMax =  -1.30206036296266E+02  1.15058234468312E+00
(PID.TID 0000.0001)  ploadbar=  1.01103553519871E+05
 cg2d: Sum(rhs),rhsMax =  -1.30499449395326E+02  1.14788410516792E+00
(PID.TID 0000.0001)  ploadbar=  1.01104948650700E+05
 cg2d: Sum(rhs),rhsMax =  -1.30768013239921E+02  1.14545000503944E+00
(PID.TID 0000.0001)  ploadbar=  1.01106343781530E+05
 cg2d: Sum(rhs),rhsMax =  -1.30991625152987E+02  1.14344576415785E+00
(PID.TID 0000.0001)  ploadbar=  1.01107738912359E+05
 cg2d: Sum(rhs),rhsMax =  -1.31164269853550E+02  1.14191172212660E+00
(PID.TID 0000.0001)  ploadbar=  1.01109134043189E+05
 cg2d: Sum(rhs),rhsMax =  -1.31171928574957E+02  1.14180137336169E+00
(PID.TID 0000.0001)  ploadbar=  1.01108833556792E+05
 cg2d: Sum(rhs),rhsMax =  -1.31122538123916E+02  1.14217036585133E+00
(PID.TID 0000.0001)  ploadbar=  1.01108533070395E+05
 cg2d: Sum(rhs),rhsMax =  -1.31051808861559E+02  1.14270480874247E+00
(PID.TID 0000.0001)  ploadbar=  1.01108232583999E+05
 cg2d: Sum(rhs),rhsMax =  -1.30952700871288E+02  1.14346341832463E+00
(PID.TID 0000.0001)  ploadbar=  1.01107932097602E+05
 cg2d: Sum(rhs),rhsMax =  -1.30820921110597E+02  1.14448230247514E+00
(PID.TID 0000.0001)  ploadbar=  1.01107631611206E+05
 cg2d: Sum(rhs),rhsMax =  -1.30664360637441E+02  1.14569045037584E+00
(PID.TID 0000.0001)  ploadbar=  1.01107331124809E+05
 cg2d: Sum(rhs),rhsMax =  -1.30452398047632E+02  1.14740823973366E+00
(PID.TID 0000.0001)  ploadbar=  1.01107696287066E+05
 cg2d: Sum(rhs),rhsMax =  -1.30230412004889E+02  1.14923634228458E+00
(PID.TID 0000.0001)  ploadbar=  1.01108061449323E+05
 cg2d: Sum(rhs),rhsMax =  -1.30079967598934E+02  1.15045101258337E+00
(PID.TID 0000.0001)  ploadbar=  1.01108426611580E+05
 cg2d: Sum(rhs),rhsMax =  -1.30002028793929E+02  1.15103547825095E+00
(PID.TID 0000.0001)  ploadbar=  1.01108791773837E+05
 cg2d: Sum(rhs),rhsMax =  -1.29993181218032E+02  1.15101457028752E+00
(PID.TID 0000.0001)  ploadbar=  1.01109156936094E+05
 cg2d: Sum(rhs),rhsMax =  -1.30051675307651E+02  1.15039643740335E+00
(PID.TID 0000.0001)  ploadbar=  1.01109522098351E+05
 cg2d: Sum(rhs),rhsMax =  -1.30147833097336E+02  1.14943654307436E+00
(PID.TID 0000.0001)  ploadbar=  1.01109040731103E+05
 cg2d: Sum(rhs),rhsMax =  -1.30360545758893E+02  1.14743891582993E+00
(PID.TID 0000.0001)  ploadbar=  1.01108559363854E+05
 cg2d: Sum(rhs),rhsMax =  -1.30658655894034E+02  1.14468361299180E+00
(PID.TID 0000.0001)  ploadbar=  1.01108077996606E+05
 cg2d: Sum(rhs),rhsMax =  -1.31017280323659E+02  1.14139370016825E+00
(PID.TID 0000.0001)  ploadbar=  1.01107596629358E+05
 cg2d: Sum(rhs),rhsMax =  -1.31408317646655E+02  1.13781924464188E+00
(PID.TID 0000.0001)  ploadbar=  1.01107115262109E+05
 cg2d: Sum(rhs),rhsMax =  -1.31792686859328E+02  1.13429742274089E+00
(PID.TID 0000.0001)  ploadbar=  1.01106633894861E+05
 cg2d: Sum(rhs),rhsMax =  -1.32294945564024E+02  1.12984584196338E+00
(PID.TID 0000.0001)  ploadbar=  1.01106274238400E+05
 cg2d: Sum(rhs),rhsMax =  -1.32773037654063E+02  1.12568392884259E+00
(PID.TID 0000.0001)  ploadbar=  1.01105914581939E+05
 cg2d: Sum(rhs),rhsMax =  -1.33177938564780E+02  1.12221336659006E+00
(PID.TID 0000.0001)  ploadbar=  1.01105554925478E+05
 cg2d: Sum(rhs),rhsMax =  -1.33505997866764E+02  1.11944438189147E+00
(PID.TID 0000.0001)  ploadbar=  1.01105195269017E+05
 cg2d: Sum(rhs),rhsMax =  -1.33645760700736E+02  1.11829299159225E+00
(PID.TID 0000.0001)  ploadbar=  1.01104835612556E+05
 cg2d: Sum(rhs),rhsMax =  -1.33516227501686E+02  1.11942323267579E+00
(PID.TID 0000.0001)  ploadbar=  1.01104475956095E+05
 cg2d: Sum(rhs),rhsMax =  -1.32907612096274E+02  1.12458366813822E+00
(PID.TID 0000.0001)  ploadbar=  1.01102482708451E+05
 cg2d: Sum(rhs),rhsMax =  -1.32050301042260E+02  1.13190460983275E+00
(PID.TID 0000.0001)  ploadbar=  1.01100489460806E+05
 cg2d: Sum(rhs),rhsMax =  -1.30975964849163E+02  1.14118899070035E+00
(PID.TID 0000.0001)  ploadbar=  1.01098496213162E+05
 cg2d: Sum(rhs),rhsMax =  -1.29704764177697E+02  1.15234770905934E+00
(PID.TID 0000.0001)  ploadbar=  1.01096502965518E+05
 cg2d: Sum(rhs),rhsMax =  -1.28295459377345E+02  1.16494718457066E+00
(PID.TID 0000.0001)  ploadbar=  1.01094509717873E+05
 cg2d: Sum(rhs),rhsMax =  -1.26800397462291E+02  1.17858431854560E+00
(PID.TID 0000.0001)  ploadbar=  1.01092516470229E+05
 cg2d: Sum(rhs),rhsMax =  -1.25246328686693E+02  1.19314026027384E+00
(PID.TID 0000.0001)  ploadbar=  1.01091106693768E+05
 cg2d: Sum(rhs),rhsMax =  -1.23627695949547E+02  1.20871973825979E+00
(PID.TID 0000.0001)  ploadbar=  1.01089696917306E+05
 cg2d: Sum(rhs),rhsMax =  -1.22027336689273E+02  1.22455138057731E+00
(PID.TID 0000.0001)  ploadbar=  1.01088287140845E+05
 cg2d: Sum(rhs),rhsMax =  -1.20451670965183E+02  1.24056793587695E+00
(PID.TID 0000.0001)  ploadbar=  1.01086877364384E+05
 cg2d: Sum(rhs),rhsMax =  -1.18941381289102E+02  1.25633051959243E+00
(PID.TID 0000.0001)  ploadbar=  1.01085467587922E+05
 cg2d: Sum(rhs),rhsMax =  -1.17472942654188E+02  1.27204939898032E+00
(PID.TID 0000.0001)  ploadbar=  1.01084057811461E+05
 cg2d: Sum(rhs),rhsMax =  -1.16072714507143E+02  1.28739997785377E+00
(PID.TID 0000.0001)  ploadbar=  1.01082924536957E+05
 cg2d: Sum(rhs),rhsMax =  -1.14791003752402E+02  1.30176800935595E+00
(PID.TID 0000.0001)  ploadbar=  1.01081791262453E+05
 cg2d: Sum(rhs),rhsMax =  -1.13620686550281E+02  1.31515244229755E+00
(PID.TID 0000.0001)  ploadbar=  1.01080657987948E+05
 cg2d: Sum(rhs),rhsMax =  -1.12591731607285E+02  1.32712229012206E+00
(PID.TID 0000.0001)  ploadbar=  1.01079524713444E+05
 cg2d: Sum(rhs),rhsMax =  -1.11709958164988E+02  1.33751931682830E+00
(PID.TID 0000.0001)  ploadbar=  1.01078391438940E+05
 cg2d: Sum(rhs),rhsMax =  -1.10963277032271E+02  1.34640843116364E+00
(PID.TID 0000.0001)  ploadbar=  1.01077258164436E+05
 cg2d: Sum(rhs),rhsMax =  -1.10509113841413E+02  1.35189940438836E+00
(PID.TID 0000.0001)  ploadbar=  1.01075495724427E+05
 cg2d: Sum(rhs),rhsMax =  -1.10178464000542E+02  1.35597767306403E+00
(PID.TID 0000.0001)  ploadbar=  1.01073733284418E+05
 cg2d: Sum(rhs),rhsMax =  -1.09894011738655E+02  1.35956907861696E+00
(PID.TID 0000.0001)  ploadbar=  1.01071970844409E+05
 cg2d: Sum(rhs),rhsMax =  -1.09668433272448E+02  1.36250242337410E+00
(PID.TID 0000.0001)  ploadbar=  1.01070208404400E+05
 cg2d: Sum(rhs),rhsMax =  -1.09496315742800E+02  1.36482598893417E+00
(PID.TID 0000.0001)  ploadbar=  1.01068445964391E+05
 cg2d: Sum(rhs),rhsMax =  -1.09359230299578E+02  1.36674842460870E+00
(PID.TID 0000.0001)  ploadbar=  1.01066683524382E+05
 cg2d: Sum(rhs),rhsMax =  -1.09271382946627E+02  1.36803005482703E+00
(PID.TID 0000.0001)  ploadbar=  1.01065930575444E+05
 cg2d: Sum(rhs),rhsMax =  -1.09237007891811E+02  1.36860966915759E+00
(PID.TID 0000.0001)  ploadbar=  1.01065177626506E+05
 cg2d: Sum(rhs),rhsMax =  -1.09196467043396E+02  1.36922796377503E+00
(PID.TID 0000.0001)  ploadbar=  1.01064424677568E+05
 cg2d: Sum(rhs),rhsMax =  -1.09133878602211E+02  1.37008257640288E+00
(PID.TID 0000.0001)  ploadbar=  1.01063671728630E+05
 cg2d: Sum(rhs),rhsMax =  -1.09064750063362E+02  1.37097617803836E+00
(PID.TID 0000.0001)  ploadbar=  1.01062918779691E+05
 cg2d: Sum(rhs),rhsMax =  -1.09102752317919E+02  1.37047214671849E+00
(PID.TID 0000.0001)  ploadbar=  1.01062165830753E+05
 cg2d: Sum(rhs),rhsMax =  -1.09156135775115E+02  1.36979130768911E+00
(PID.TID 0000.0001)  ploadbar=  1.01061402940074E+05
 cg2d: Sum(rhs),rhsMax =  -1.09305004108075E+02  1.36792666323318E+00
(PID.TID 0000.0001)  ploadbar=  1.01060640049395E+05
 cg2d: Sum(rhs),rhsMax =  -1.09511304247864E+02  1.36535692381781E+00
(PID.TID 0000.0001)  ploadbar=  1.01059877158716E+05
 cg2d: Sum(rhs),rhsMax =  -1.09754637056061E+02  1.36233488695654E+00
(PID.TID 0000.0001)  ploadbar=  1.01059114268037E+05
 cg2d: Sum(rhs),rhsMax =  -1.10012640995533E+02  1.35913835299426E+00
(PID.TID 0000.0001)  ploadbar=  1.01058351377358E+05
 cg2d: Sum(rhs),rhsMax =  -1.10270422158109E+02  1.35595005289966E+00
(PID.TID 0000.0001)  ploadbar=  1.01057588486679E+05
 cg2d: Sum(rhs),rhsMax =  -1.10398025957796E+02  1.35436655462619E+00
(PID.TID 0000.0001)  ploadbar=  1.01056598891238E+05
 cg2d: Sum(rhs),rhsMax =  -1.10499399450120E+02  1.35309741641749E+00
(PID.TID 0000.0001)  ploadbar=  1.01055609295797E+05
 cg2d: Sum(rhs),rhsMax =  -1.10582416470133E+02  1.35204060183235E+00
(PID.TID 0000.0001)  ploadbar=  1.01054619700355E+05
 cg2d: Sum(rhs),rhsMax =  -1.10657039665666E+02  1.35106783475110E+00
(PID.TID 0000.0001)  ploadbar=  1.01053630104914E+05
 cg2d: Sum(rhs),rhsMax =  -1.10706407606308E+02  1.35037855683664E+00
(PID.TID 0000.0001)  ploadbar=  1.01052640509473E+05
 cg2d: Sum(rhs),rhsMax =  -1.10737750637727E+02  1.34988199590388E+00
(PID.TID 0000.0001)  ploadbar=  1.01051650914032E+05
 cg2d: Sum(rhs),rhsMax =  -1.10683790724899E+02  1.35046737175112E+00
(PID.TID 0000.0001)  ploadbar=  1.01050127921209E+05
 cg2d: Sum(rhs),rhsMax =  -1.10784200498920E+02  1.34920836620359E+00
(PID.TID 0000.0001)  ploadbar=  1.01048604928386E+05
 cg2d: Sum(rhs),rhsMax =  -1.11100609354398E+02  1.34536582474811E+00
(PID.TID 0000.0001)  ploadbar=  1.01047081935563E+05
 cg2d: Sum(rhs),rhsMax =  -1.11497168446674E+02  1.34060919088110E+00
(PID.TID 0000.0001)  ploadbar=  1.01045558942740E+05
 cg2d: Sum(rhs),rhsMax =  -1.11880642096877E+02  1.33606562405894E+00
(PID.TID 0000.0001)  ploadbar=  1.01044035949917E+05
 cg2d: Sum(rhs),rhsMax =  -1.12389971428330E+02  1.33007951805734E+00
(PID.TID 0000.0001)  ploadbar=  1.01042512957093E+05
 cg2d: Sum(rhs),rhsMax =  -1.12517599615192E+02  1.32861813659956E+00
(PID.TID 0000.0001)  ploadbar=  1.01042133157692E+05
 cg2d: Sum(rhs),rhsMax =  -1.10131242209583E+02  1.35743091459117E+00
(PID.TID 0000.0001)  ploadbar=  1.01041753358291E+05
 cg2d: Sum(rhs),rhsMax =  -1.07615708795493E+02  1.38915761222294E+00
(PID.TID 0000.0001)  ploadbar=  1.01041373558890E+05
 cg2d: Sum(rhs),rhsMax =  -1.04557470367892E+02  1.42975476680740E+00
(PID.TID 0000.0001)  ploadbar=  1.01040993759489E+05
 cg2d: Sum(rhs),rhsMax =  -1.01232463780558E+02  1.47664407908398E+00
(PID.TID 0000.0001)  ploadbar=  1.01040613960088E+05
 cg2d: Sum(rhs),rhsMax =  -9.75534313906170E+01  1.53221814536168E+00
(PID.TID 0000.0001)  ploadbar=  1.01040234160686E+05
 cg2d: Sum(rhs),rhsMax =  -9.37943292727067E+01  1.59353683339891E+00
(PID.TID 0000.0001)  ploadbar=  1.01040034703325E+05
 cg2d: Sum(rhs),rhsMax =  -9.01656214870428E+01  1.65759489143268E+00
(PID.TID 0000.0001)  ploadbar=  1.01039835245964E+05
 cg2d: Sum(rhs),rhsMax =  -8.67929061001479E+01  1.72194703202839E+00
(PID.TID 0000.0001)  ploadbar=  1.01039635788603E+05
 cg2d: Sum(rhs),rhsMax =  -8.37048578782720E+01  1.78541974820058E+00
(PID.TID 0000.0001)  ploadbar=  1.01039436331242E+05
 cg2d: Sum(rhs),rhsMax =  -8.09028191665028E+01  1.84720666601647E+00
(PID.TID 0000.0001)  ploadbar=  1.01039236873880E+05
 cg2d: Sum(rhs),rhsMax =  -7.83731388476875E+01  1.90677668526397E+00
(PID.TID 0000.0001)  ploadbar=  1.01039037416519E+05
 cg2d: Sum(rhs),rhsMax =  -7.63219181309849E+01  1.95791762878097E+00
(PID.TID 0000.0001)  ploadbar=  1.01039235698699E+05
 cg2d: Sum(rhs),rhsMax =  -7.46019968958175E+01  2.00289162065143E+00
(PID.TID 0000.0001)  ploadbar=  1.01039433980878E+05
 cg2d: Sum(rhs),rhsMax =  -7.31746673108070E+01  2.04173021313186E+00
(PID.TID 0000.0001)  ploadbar=  1.01039632263058E+05
 cg2d: Sum(rhs),rhsMax =  -7.20312838579688E+01  2.07383774064985E+00
(PID.TID 0000.0001)  ploadbar=  1.01039830545237E+05
 cg2d: Sum(rhs),rhsMax =  -7.11621787642887E+01  2.09878186264804E+00
(PID.TID 0000.0001)  ploadbar=  1.01040028827417E+05
 cg2d: Sum(rhs),rhsMax =  -7.05578633624237E+01  2.11628476157776E+00
(PID.TID 0000.0001)  ploadbar=  1.01040227109596E+05
 cg2d: Sum(rhs),rhsMax =  -7.01939314569735E+01  2.12685571647301E+00
(PID.TID 0000.0001)  ploadbar=  1.01039984486986E+05
 cg2d: Sum(rhs),rhsMax =  -6.99739573642481E+01  2.13320459604657E+00
(PID.TID 0000.0001)  ploadbar=  1.01039741864375E+05
 cg2d: Sum(rhs),rhsMax =  -6.98554595039102E+01  2.13654131835099E+00
(PID.TID 0000.0001)  ploadbar=  1.01039499241764E+05
 cg2d: Sum(rhs),rhsMax =  -6.98227853407844E+01  2.13730407511859E+00
(PID.TID 0000.0001)  ploadbar=  1.01039256619154E+05
 cg2d: Sum(rhs),rhsMax =  -6.98477586772228E+01  2.13634299099457E+00
(PID.TID 0000.0001)  ploadbar=  1.01039013996543E+05
 cg2d: Sum(rhs),rhsMax =  -6.98959059983344E+01  2.13470735023483E+00
(PID.TID 0000.0001)  ploadbar=  1.01038771373932E+05
 cg2d: Sum(rhs),rhsMax =  -6.99195582193867E+01  2.13380924332788E+00
(PID.TID 0000.0001)  ploadbar=  1.01038580749642E+05
 cg2d: Sum(rhs),rhsMax =  -6.99854058756642E+01  2.13160745652176E+00
(PID.TID 0000.0001)  ploadbar=  1.01038390125352E+05
 cg2d: Sum(rhs),rhsMax =  -7.01068518238308E+01  2.12769990707755E+00
(PID.TID 0000.0001)  ploadbar=  1.01038199501061E+05
 cg2d: Sum(rhs),rhsMax =  -7.02803129892103E+01  2.12220885369160E+00
(PID.TID 0000.0001)  ploadbar=  1.01038008876771E+05
 cg2d: Sum(rhs),rhsMax =  -7.05228511403507E+01  2.11464256444636E+00
(PID.TID 0000.0001)  ploadbar=  1.01037818252481E+05
 cg2d: Sum(rhs),rhsMax =  -7.08346153316991E+01  2.10503281409435E+00
(PID.TID 0000.0001)  ploadbar=  1.01037627628190E+05
 cg2d: Sum(rhs),rhsMax =  -7.12235511492545E+01  2.09327382508029E+00
(PID.TID 0000.0001)  ploadbar=  1.01038655355538E+05
 cg2d: Sum(rhs),rhsMax =  -7.16437376745304E+01  2.08076128222531E+00
(PID.TID 0000.0001)  ploadbar=  1.01039683082886E+05
 cg2d: Sum(rhs),rhsMax =  -7.20750718260568E+01  2.06809764176911E+00
(PID.TID 0000.0001)  ploadbar=  1.01040710810235E+05
 cg2d: Sum(rhs),rhsMax =  -7.24982380958434E+01  2.05583651578659E+00
(PID.TID 0000.0001)  ploadbar=  1.01041738537583E+05
 cg2d: Sum(rhs),rhsMax =  -7.29035400460237E+01  2.04423353717220E+00
(PID.TID 0000.0001)  ploadbar=  1.01042766264931E+05
 cg2d: Sum(rhs),rhsMax =  -7.32937404409003E+01  2.03317976232830E+00
(PID.TID 0000.0001)  ploadbar=  1.01043793992279E+05
 cg2d: Sum(rhs),rhsMax =  -7.36793771483394E+01  2.02237377502459E+00
(PID.TID 0000.0001)  ploadbar=  1.01044208639451E+05
 cg2d: Sum(rhs),rhsMax =  -7.40620762130653E+01  2.01175451824574E+00
(PID.TID 0000.0001)  ploadbar=  1.01044623286624E+05
 cg2d: Sum(rhs),rhsMax =  -7.44395609390124E+01  2.00137346330174E+00
(PID.TID 0000.0001)  ploadbar=  1.01045037933796E+05
 cg2d: Sum(rhs),rhsMax =  -7.47806352737787E+01  1.99205143245309E+00
(PID.TID 0000.0001)  ploadbar=  1.01045452580969E+05
 cg2d: Sum(rhs),rhsMax =  -7.50917068081705E+01  1.98358810769971E+00
(PID.TID 0000.0001)  ploadbar=  1.01045867228141E+05
 cg2d: Sum(rhs),rhsMax =  -7.53549210622270E+01  1.97642607294840E+00
(PID.TID 0000.0001)  ploadbar=  1.01046281875313E+05
 cg2d: Sum(rhs),rhsMax =  -7.55353907008441E+01  1.97153861078688E+00
(PID.TID 0000.0001)  ploadbar=  1.01045876873738E+05
 cg2d: Sum(rhs),rhsMax =  -7.56803889904780E+01  1.96765010714862E+00
(PID.TID 0000.0001)  ploadbar=  1.01045471872164E+05
 cg2d: Sum(rhs),rhsMax =  -7.57721788705088E+01  1.96520064270944E+00
(PID.TID 0000.0001)  ploadbar=  1.01045066870589E+05
 cg2d: Sum(rhs),rhsMax =  -7.58118429979542E+01  1.96414874908104E+00
(PID.TID 0000.0001)  ploadbar=  1.01044661869014E+05
 cg2d: Sum(rhs),rhsMax =  -7.58002614461902E+01  1.96446076968408E+00
(PID.TID 0000.0001)  ploadbar=  1.01044256867439E+05
 cg2d: Sum(rhs),rhsMax =  -7.57457708748037E+01  1.96591814556535E+00
(PID.TID 0000.0001)  ploadbar=  1.01043851865864E+05
 cg2d: Sum(rhs),rhsMax =  -7.56394265163869E+01  1.96871932398893E+00
(PID.TID 0000.0001)  ploadbar=  1.01043490955215E+05
 cg2d: Sum(rhs),rhsMax =  -7.55178319871132E+01  1.97191661208825E+00
(PID.TID 0000.0001)  ploadbar=  1.01043130044567E+05
 cg2d: Sum(rhs),rhsMax =  -7.54154171617735E+01  1.97460410157106E+00
(PID.TID 0000.0001)  ploadbar=  1.01042769133918E+05
 cg2d: Sum(rhs),rhsMax =  -7.54260490023722E+01  1.97431188771546E+00
(PID.TID 0000.0001)  ploadbar=  1.01042408223269E+05
 cg2d: Sum(rhs),rhsMax =  -7.57904498874741E+01  1.96477929500692E+00
(PID.TID 0000.0001)  ploadbar=  1.01042047312620E+05
 cg2d: Sum(rhs),rhsMax =  -7.60529160245265E+01  1.95792476001458E+00
(PID.TID 0000.0001)  ploadbar=  1.01041686401972E+05
 cg2d: Sum(rhs),rhsMax =  -7.63271959565617E+01  1.95082944377355E+00
(PID.TID 0000.0001)  ploadbar=  1.01042724808462E+05
 cg2d: Sum(rhs),rhsMax =  -7.65492434007273E+01  1.94512031726922E+00
(PID.TID 0000.0001)  ploadbar=  1.01043763214952E+05
 cg2d: Sum(rhs),rhsMax =  -7.67192871618373E+01  1.94076305232671E+00
(PID.TID 0000.0001)  ploadbar=  1.01044801621441E+05
 cg2d: Sum(rhs),rhsMax =  -7.68590902302106E+01  1.93718556057330E+00
(PID.TID 0000.0001)  ploadbar=  1.01045840027931E+05
 cg2d: Sum(rhs),rhsMax =  -7.69751397172616E+01  1.93421046042489E+00
(PID.TID 0000.0001)  ploadbar=  1.01046878434421E+05
 cg2d: Sum(rhs),rhsMax =  -7.70733830276192E+01  1.93167575568094E+00
(PID.TID 0000.0001)  ploadbar=  1.01047916840911E+05
 cg2d: Sum(rhs),rhsMax =  -7.71367486323228E+01  1.93003843813570E+00
(PID.TID 0000.0001)  ploadbar=  1.01046605796567E+05
 cg2d: Sum(rhs),rhsMax =  -7.71796052388183E+01  1.92892770512728E+00
(PID.TID 0000.0001)  ploadbar=  1.01045294752223E+05
 cg2d: Sum(rhs),rhsMax =  -7.72149984305062E+01  1.92801205770335E+00
(PID.TID 0000.0001)  ploadbar=  1.01043983707879E+05
 cg2d: Sum(rhs),rhsMax =  -7.72607464082278E+01  1.92683868182614E+00
(PID.TID 0000.0001)  ploadbar=  1.01042672663535E+05
 cg2d: Sum(rhs),rhsMax =  -7.73507455799343E+01  1.92456228889765E+00
(PID.TID 0000.0001)  ploadbar=  1.01041361619191E+05
 cg2d: Sum(rhs),rhsMax =  -7.75177562289027E+01  1.92037036924042E+00
(PID.TID 0000.0001)  ploadbar=  1.01040050574847E+05
 cg2d: Sum(rhs),rhsMax =  -7.77242251627781E+01  1.91527484272081E+00
(PID.TID 0000.0001)  ploadbar=  1.01038749866545E+05
 cg2d: Sum(rhs),rhsMax =  -7.79959823363578E+01  1.90864753418248E+00
(PID.TID 0000.0001)  ploadbar=  1.01037449158243E+05
 cg2d: Sum(rhs),rhsMax =  -7.83054286178852E+01  1.90118413366178E+00
(PID.TID 0000.0001)  ploadbar=  1.01036148449942E+05
 cg2d: Sum(rhs),rhsMax =  -7.86412146801414E+01  1.89317693440366E+00
(PID.TID 0000.0001)  ploadbar=  1.01034847741640E+05
 cg2d: Sum(rhs),rhsMax =  -7.89926359102405E+01  1.88489850153958E+00
(PID.TID 0000.0001)  ploadbar=  1.01033547033338E+05
 cg2d: Sum(rhs),rhsMax =  -7.93415942764744E+01  1.87679094617174E+00
(PID.TID 0000.0001)  ploadbar=  1.01032246325037E+05
 cg2d: Sum(rhs),rhsMax =  -7.96784533028765E+01  1.86903562510774E+00
(PID.TID 0000.0001)  ploadbar=  1.01030820900699E+05
 cg2d: Sum(rhs),rhsMax =  -8.00082110479482E+01  1.86149442444591E+00
(PID.TID 0000.0001)  ploadbar=  1.01029395476362E+05
 cg2d: Sum(rhs),rhsMax =  -8.03540913490495E+01  1.85361927392036E+00
(PID.TID 0000.0001)  ploadbar=  1.01027970052025E+05
 cg2d: Sum(rhs),rhsMax =  -8.07170427942573E+01  1.84539358837289E+00
(PID.TID 0000.0001)  ploadbar=  1.01026544627688E+05
 cg2d: Sum(rhs),rhsMax =  -8.11120018627271E+01  1.83648760363184E+00
(PID.TID 0000.0001)  ploadbar=  1.01025119203351E+05
 cg2d: Sum(rhs),rhsMax =  -8.15601698530579E+01  1.82644385567425E+00
(PID.TID 0000.0001)  ploadbar=  1.01023693779014E+05
 cg2d: Sum(rhs),rhsMax =  -8.20985145412819E+01  1.81453532764681E+00
(PID.TID 0000.0001)  ploadbar=  1.01022189259997E+05
 cg2d: Sum(rhs),rhsMax =  -8.27320970571525E+01  1.80072283088667E+00
(PID.TID 0000.0001)  ploadbar=  1.01020684740981E+05
 cg2d: Sum(rhs),rhsMax =  -8.34706645839195E+01  1.78488822997477E+00
(PID.TID 0000.0001)  ploadbar=  1.01019180221964E+05
 cg2d: Sum(rhs),rhsMax =  -8.43203240755488E+01  1.76701309623919E+00
(PID.TID 0000.0001)  ploadbar=  1.01017675702948E+05
 cg2d: Sum(rhs),rhsMax =  -8.52600070818182E+01  1.74765462511954E+00
(PID.TID 0000.0001)  ploadbar=  1.01016171183931E+05
 cg2d: Sum(rhs),rhsMax =  -8.62698243285931E+01  1.72731396423158E+00
(PID.TID 0000.0001)  ploadbar=  1.01014666664915E+05
 cg2d: Sum(rhs),rhsMax =  -8.72206378335928E+01  1.70857872472445E+00
(PID.TID 0000.0001)  ploadbar=  1.01012914660949E+05
 cg2d: Sum(rhs),rhsMax =  -8.81634719000002E+01  1.69037353345200E+00
(PID.TID 0000.0001)  ploadbar=  1.01011162656984E+05
 cg2d: Sum(rhs),rhsMax =  -8.90355373381283E+01  1.67384844414620E+00
(PID.TID 0000.0001)  ploadbar=  1.01009410653019E+05
 cg2d: Sum(rhs),rhsMax =  -8.98170160440084E+01  1.65927512893324E+00
(PID.TID 0000.0001)  ploadbar=  1.01007658649054E+05
 cg2d: Sum(rhs),rhsMax =  -9.05026423454331E+01  1.64665267385455E+00
(PID.TID 0000.0001)  ploadbar=  1.01005906645089E+05
 cg2d: Sum(rhs),rhsMax =  -9.10972623619449E+01  1.63580647457880E+00
(PID.TID 0000.0001)  ploadbar=  1.01004154641124E+05
 cg2d: Sum(rhs),rhsMax =  -9.17259003134180E+01  1.62454972181715E+00
(PID.TID 0000.0001)  ploadbar=  1.01003065347118E+05
 cg2d: Sum(rhs),rhsMax =  -9.23262259513952E+01  1.61398234525182E+00
(PID.TID 0000.0001)  ploadbar=  1.01001976053113E+05
 cg2d: Sum(rhs),rhsMax =  -9.29202377974109E+01  1.60369622654987E+00
(PID.TID 0000.0001)  ploadbar=  1.01000886759108E+05
 cg2d: Sum(rhs),rhsMax =  -9.35138594829590E+01  1.59358126659386E+00
(PID.TID 0000.0001)  ploadbar=  1.00999797465103E+05
 cg2d: Sum(rhs),rhsMax =  -9.41203204892455E+01  1.58340932436118E+00
(PID.TID 0000.0001)  ploadbar=  1.00998708171097E+05
 cg2d: Sum(rhs),rhsMax =  -9.47394741775253E+01  1.57319028630990E+00
(PID.TID 0000.0001)  ploadbar=  1.00997618877092E+05
 cg2d: Sum(rhs),rhsMax =  -9.54592931534796E+01  1.56146095324923E+00
(PID.TID 0000.0001)  ploadbar=  1.00996661748226E+05
 cg2d: Sum(rhs),rhsMax =  -9.62297540220780E+01  1.54907903355290E+00
(PID.TID 0000.0001)  ploadbar=  1.00995704619361E+05
 cg2d: Sum(rhs),rhsMax =  -9.70691888359008E+01  1.53578586814304E+00
(PID.TID 0000.0001)  ploadbar=  1.00994747490495E+05
 cg2d: Sum(rhs),rhsMax =  -9.79536979165039E+01  1.52200088658241E+00
(PID.TID 0000.0001)  ploadbar=  1.00993790361629E+05
 cg2d: Sum(rhs),rhsMax =  -9.89040891258838E+01  1.50743581829679E+00
(PID.TID 0000.0001)  ploadbar=  1.00992833232764E+05
 cg2d: Sum(rhs),rhsMax =  -9.99543231499454E+01  1.49163429289253E+00
(PID.TID 0000.0001)  ploadbar=  1.00991876103898E+05
 cg2d: Sum(rhs),rhsMax =  -1.01058090225639E+02  1.47539160078008E+00
(PID.TID 0000.0001)  ploadbar=  1.00990845401296E+05
 cg2d: Sum(rhs),rhsMax =  -1.02348467518872E+02  1.45684716266253E+00
(PID.TID 0000.0001)  ploadbar=  1.00989814698695E+05
 cg2d: Sum(rhs),rhsMax =  -1.03857673442129E+02  1.43574152144080E+00
(PID.TID 0000.0001)  ploadbar=  1.00988783996093E+05
 cg2d: Sum(rhs),rhsMax =  -1.05572633803467E+02  1.41248785070954E+00
(PID.TID 0000.0001)  ploadbar=  1.00987753293491E+05
 cg2d: Sum(rhs),rhsMax =  -1.07471550202324E+02  1.38759905259047E+00
(PID.TID 0000.0001)  ploadbar=  1.00986722590889E+05
 cg2d: Sum(rhs),rhsMax =  -1.09538720859313E+02  1.36147862251096E+00
(PID.TID 0000.0001)  ploadbar=  1.00985691888288E+05
 cg2d: Sum(rhs),rhsMax =  -1.11472859730129E+02  1.33793435571879E+00
(PID.TID 0000.0001)  ploadbar=  1.00986061934545E+05
 cg2d: Sum(rhs),rhsMax =  -1.11645863100799E+02  1.33594916044537E+00
(PID.TID 0000.0001)  ploadbar=  1.00986431980802E+05
 cg2d: Sum(rhs),rhsMax =  -1.11821149715979E+02  1.33394940813932E+00
(PID.TID 0000.0001)  ploadbar=  1.00986802027059E+05
 cg2d: Sum(rhs),rhsMax =  -1.12010991395352E+02  1.33178615022476E+00
(PID.TID 0000.0001)  ploadbar=  1.00987172073316E+05
 cg2d: Sum(rhs),rhsMax =  -1.12211609018149E+02  1.32950001591140E+00
(PID.TID 0000.0001)  ploadbar=  1.00987542119573E+05
 cg2d: Sum(rhs),rhsMax =  -1.12422743504715E+02  1.32709318674885E+00
(PID.TID 0000.0001)  ploadbar=  1.00987912165830E+05
 cg2d: Sum(rhs),rhsMax =  -1.12665610102159E+02  1.32435266027962E+00
(PID.TID 0000.0001)  ploadbar=  1.00988162008133E+05
 cg2d: Sum(rhs),rhsMax =  -1.12938351827452E+02  1.32129476156803E+00
(PID.TID 0000.0001)  ploadbar=  1.00988411850435E+05
 cg2d: Sum(rhs),rhsMax =  -1.13217889849423E+02  1.31818731755282E+00
(PID.TID 0000.0001)  ploadbar=  1.00988661692737E+05
 cg2d: Sum(rhs),rhsMax =  -1.13521064617266E+02  1.31483254878340E+00
(PID.TID 0000.0001)  ploadbar=  1.00988911535039E+05
 cg2d: Sum(rhs),rhsMax =  -1.13864153601482E+02  1.31104631320351E+00
(PID.TID 0000.0001)  ploadbar=  1.00989161377341E+05
 cg2d: Sum(rhs),rhsMax =  -1.14246563330917E+02  1.30684327085987E+00
(PID.TID 0000.0001)  ploadbar=  1.00989411219643E+05
 cg2d: Sum(rhs),rhsMax =  -1.14689450541269E+02  1.30195348172931E+00
(PID.TID 0000.0001)  ploadbar=  1.00989163973211E+05
 cg2d: Sum(rhs),rhsMax =  -1.15195083623246E+02  1.29636073235214E+00
(PID.TID 0000.0001)      cg2d_init_res =   3.00802639325112E-01
(PID.TID 0000.0001)      cg2d_iters(min,last) =      -1     141
(PID.TID 0000.0001)      cg2d_last_res =   8.82091730671633E-08
(PID.TID 0000.0001) // =======================================================
(PID.TID 0000.0001) // Begin MONITOR dynamic field statistics
(PID.TID 0000.0001) // =======================================================
(PID.TID 0000.0001) %MON time_tsnumber                =                  7008
(PID.TID 0000.0001) %MON time_secondsf                =   2.5228800000000E+07
(PID.TID 0000.0001) %MON dynstat_eta_max              =   1.1589385353556E+00
(PID.TID 0000.0001) %MON dynstat_eta_min              =  -5.6506774894744E+00
(PID.TID 0000.0001) %MON dynstat_eta_mean             =   7.5582775611028E-02
(PID.TID 0000.0001) %MON dynstat_eta_sd               =   7.2834196609343E-01
(PID.TID 0000.0001) %MON dynstat_eta_del2             =   1.9338372911624E-04
(PID.TID 0000.0001) %MON dynstat_uvel_max             =   1.3413571449691E+00
(PID.TID 0000.0001) %MON dynstat_uvel_min             =  -1.2237694907264E+00
(PID.TID 0000.0001) %MON dynstat_uvel_mean            =   1.3358291124893E-03
(PID.TID 0000.0001) %MON dynstat_uvel_sd              =   2.0840535766987E-02
(PID.TID 0000.0001) %MON dynstat_uvel_del2            =   8.6602740630791E-06
(PID.TID 0000.0001) %MON dynstat_vvel_max             =   6.8121303201843E-01
(PID.TID 0000.0001) %MON dynstat_vvel_min             =  -8.6596074166136E-01
(PID.TID 0000.0001) %MON dynstat_vvel_mean            =   1.2408956361641E-03
(PID.TID 0000.0001) %MON dynstat_vvel_sd              =   2.1582337477533E-02
(PID.TID 0000.0001) %MON dynstat_vvel_del2            =   8.9803155190725E-06
(PID.TID 0000.0001) %MON dynstat_wvel_max             =   3.3897062494736E-04
(PID.TID 0000.0001) %MON dynstat_wvel_min             =  -1.4476817100649E-03
(PID.TID 0000.0001) %MON dynstat_wvel_mean            =   3.5981602895064E-09
(PID.TID 0000.0001) %MON dynstat_wvel_sd              =   2.0100021184262E-05
(PID.TID 0000.0001) %MON dynstat_wvel_del2            =   1.6277781401668E-08
(PID.TID 0000.0001) %MON dynstat_theta_max            =   3.2643194866384E+01
(PID.TID 0000.0001) %MON dynstat_theta_min            =  -1.9727243331397E+00
(PID.TID 0000.0001) %MON dynstat_theta_mean           =   3.5774194679659E+00
(PID.TID 0000.0001) %MON dynstat_theta_sd             =   4.4258656504792E+00
(PID.TID 0000.0001) %MON dynstat_theta_del2           =   8.9614030237588E-05
(PID.TID 0000.0001) %MON dynstat_salt_max             =   4.0641866302356E+01
(PID.TID 0000.0001) %MON dynstat_salt_min             =   2.2084811564972E+01
(PID.TID 0000.0001) %MON dynstat_salt_mean            =   3.4726951190717E+01
(PID.TID 0000.0001) %MON dynstat_salt_sd              =   3.8020276217892E-01
(PID.TID 0000.0001) %MON dynstat_salt_del2            =   1.9445088938277E-05
(PID.TID 0000.0001) %MON dynstat_sst_max              =   3.1692915866796E+01
(PID.TID 0000.0001) %MON dynstat_sst_min              =  -1.9605424665402E+00
(PID.TID 0000.0001) %MON dynstat_sst_mean             =   1.7927854070493E+01
(PID.TID 0000.0001) %MON dynstat_sst_sd               =   1.0289813939553E+01
(PID.TID 0000.0001) %MON dynstat_sst_del2             =   5.5688295218438E-04
(PID.TID 0000.0001) %MON dynstat_sss_max              =   3.9865571399485E+01
(PID.TID 0000.0001) %MON dynstat_sss_min              =   2.2084811564972E+01
(PID.TID 0000.0001) %MON dynstat_sss_mean             =   3.4704896531345E+01
(PID.TID 0000.0001) %MON dynstat_sss_sd               =   1.3112285213139E+00
(PID.TID 0000.0001) %MON dynstat_sss_del2             =   2.9270616053561E-04
(PID.TID 0000.0001) %MON forcing_qnet_max             =   7.4619323080849E+02
(PID.TID 0000.0001) %MON forcing_qnet_min             =  -5.7329654391044E+02
(PID.TID 0000.0001) %MON forcing_qnet_mean            =   1.6248906045331E+01
(PID.TID 0000.0001) %MON forcing_qnet_sd              =   1.8914767256116E+02
(PID.TID 0000.0001) %MON forcing_qnet_del2            =   9.3167782016220E-02
(PID.TID 0000.0001) %MON forcing_qsw_max              =   5.6509998509494E+01
(PID.TID 0000.0001) %MON forcing_qsw_min              =  -6.3357070972711E+02
(PID.TID 0000.0001) %MON forcing_qsw_mean             =  -1.4914740585748E+02
(PID.TID 0000.0001) %MON forcing_qsw_sd               =   1.6783895453227E+02
(PID.TID 0000.0001) %MON forcing_qsw_del2             =   5.5678034815442E-02
(PID.TID 0000.0001) %MON forcing_empmr_max            =   1.1774335831464E-03
(PID.TID 0000.0001) %MON forcing_empmr_min            =  -3.5220237256103E-03
(PID.TID 0000.0001) %MON forcing_empmr_mean           =  -2.0331105552796E-06
(PID.TID 0000.0001) %MON forcing_empmr_sd             =   9.6794056689973E-05
(PID.TID 0000.0001) %MON forcing_empmr_del2           =   2.5563263822790E-07
(PID.TID 0000.0001) %MON forcing_fu_max               =   1.0005438327789E+00
(PID.TID 0000.0001) %MON forcing_fu_min               =  -1.8907892505328E+00
(PID.TID 0000.0001) %MON forcing_fu_mean              =   1.0336740169487E-02
(PID.TID 0000.0001) %MON forcing_fu_sd                =   1.2570887507657E-01
(PID.TID 0000.0001) %MON forcing_fu_del2              =   8.6247539711380E-05
(PID.TID 0000.0001) %MON forcing_fv_max               =   7.1958143815570E-01
(PID.TID 0000.0001) %MON forcing_fv_min               =  -1.3043215838141E+00
(PID.TID 0000.0001) %MON forcing_fv_mean              =   5.7034527486220E-03
(PID.TID 0000.0001) %MON forcing_fv_sd                =   1.2345420458479E-01
(PID.TID 0000.0001) %MON forcing_fv_del2              =   6.7021297454781E-05
(PID.TID 0000.0001) %MON trAdv_CFL_u_max              =   6.4883621236384E-02
(PID.TID 0000.0001) %MON trAdv_CFL_v_max              =   5.2255570849347E-02
(PID.TID 0000.0001) %MON trAdv_CFL_w_max              =   1.3253660712225E-01
(PID.TID 0000.0001) %MON advcfl_uvel_max              =   6.8588328373335E-02
(PID.TID 0000.0001) %MON advcfl_vvel_max              =   5.1372293985314E-02
(PID.TID 0000.0001) %MON advcfl_wvel_max              =   1.3602584658398E-01
(PID.TID 0000.0001) %MON advcfl_W_hf_max              =   1.4137212170335E-01
(PID.TID 0000.0001) %MON pe_b_mean                    =   2.4683226668079E-03
(PID.TID 0000.0001) %MON ke_max                       =   9.0169498027747E-01
(PID.TID 0000.0001) %MON ke_mean                      =   4.3563759289123E-04
(PID.TID 0000.0001) %MON ke_vol                       =   1.3350249340741E+18
(PID.TID 0000.0001) %MON vort_r_min                   =  -2.1356795222600E-05
(PID.TID 0000.0001) %MON vort_r_max                   =   2.4622120749728E-05
(PID.TID 0000.0001) %MON vort_a_mean                  =  -1.9727864647440E-05
(PID.TID 0000.0001) %MON vort_a_sd                    =   7.4543105710092E-05
(PID.TID 0000.0001) %MON vort_p_mean                  =  -2.1760081280227E-05
(PID.TID 0000.0001) %MON vort_p_sd                    =   9.7242394721723E-05
(PID.TID 0000.0001) %MON surfExpan_theta_mean         =  -1.7615634256630E-07
(PID.TID 0000.0001) %MON surfExpan_salt_mean          =  -1.7063257938051E-08
(PID.TID 0000.0001) // =======================================================
(PID.TID 0000.0001) // End MONITOR dynamic field statistics
(PID.TID 0000.0001) // =======================================================
(PID.TID 0000.0001)  ploadbar=  1.00988916726780E+05
(PID.TID 0000.0001) %SBO sbo_mass                     =   1.3737612059893E+21
(PID.TID 0000.0001) %SBO sbo_mass_fw                  =   4.8390618752221E+16
(PID.TID 0000.0001) %SBO sbo_zoamc                    =   1.2629632817298E+25
(PID.TID 0000.0001) %SBO sbo_zoamp                    =   2.9276715638433E+30
(PID.TID 0000.0001) // =======================================================
(PID.TID 0000.0001) // Begin MONITOR SEAICE statistics
(PID.TID 0000.0001) // =======================================================
(PID.TID 0000.0001) %MON seaice_tsnumber              =                  7008
(PID.TID 0000.0001) %MON seaice_time_sec              =   2.5228800000000E+07
(PID.TID 0000.0001) %MON seaice_uice_max              =   4.0000000000000E-01
(PID.TID 0000.0001) %MON seaice_uice_min              =  -4.0000000000000E-01
(PID.TID 0000.0001) %MON seaice_uice_mean             =   9.4328673012816E-03
(PID.TID 0000.0001) %MON seaice_uice_sd               =   1.6728402833513E-01
(PID.TID 0000.0001) %MON seaice_uice_del2             =   1.5084711672127E-04
(PID.TID 0000.0001) %MON seaice_vice_max              =   4.0000000000000E-01
(PID.TID 0000.0001) %MON seaice_vice_min              =  -4.0000000000000E-01
(PID.TID 0000.0001) %MON seaice_vice_mean             =  -5.3462706566914E-03
(PID.TID 0000.0001) %MON seaice_vice_sd               =   1.9001256309186E-01
(PID.TID 0000.0001) %MON seaice_vice_del2             =   1.4288836063137E-04
(PID.TID 0000.0001) %MON seaice_area_max              =   9.7000000000000E-01
(PID.TID 0000.0001) %MON seaice_area_min              =   0.0000000000000E+00
(PID.TID 0000.0001) %MON seaice_area_mean             =   6.9871899426907E-02
(PID.TID 0000.0001) %MON seaice_area_sd               =   2.4084355888077E-01
(PID.TID 0000.0001) %MON seaice_area_del2             =   2.2001212243346E-04
(PID.TID 0000.0001) %MON seaice_heff_max              =   4.6448947135521E+00
(PID.TID 0000.0001) %MON seaice_heff_min              =   0.0000000000000E+00
(PID.TID 0000.0001) %MON seaice_heff_mean             =   5.8881906038134E-02
(PID.TID 0000.0001) %MON seaice_heff_sd               =   2.6080178570646E-01
(PID.TID 0000.0001) %MON seaice_heff_del2             =   1.9315638212837E-04
(PID.TID 0000.0001) %MON seaice_hsnow_max             =   1.5884740760342E+00
(PID.TID 0000.0001) %MON seaice_hsnow_min             =  -6.7343566859130E-05
(PID.TID 0000.0001) %MON seaice_hsnow_mean            =   1.1536006672476E-02
(PID.TID 0000.0001) %MON seaice_hsnow_sd              =   5.4115474772628E-02
(PID.TID 0000.0001) %MON seaice_hsnow_del2            =   5.3600297607344E-05
(PID.TID 0000.0001) // =======================================================
(PID.TID 0000.0001) // End MONITOR SEAICE statistics
(PID.TID 0000.0001) // =======================================================
(PID.TID 0000.0001) // =======================================================
(PID.TID 0000.0001) // Begin MONITOR EXF statistics
(PID.TID 0000.0001) // =======================================================
(PID.TID 0000.0001) %MON exf_tsnumber                 =                  7008
(PID.TID 0000.0001) %MON exf_time_sec                 =   2.5228800000000E+07
(PID.TID 0000.0001) %MON exf_ustress_max              =   1.0047499537468E+00
(PID.TID 0000.0001) %MON exf_ustress_min              =  -2.0063149929047E+00
(PID.TID 0000.0001) %MON exf_ustress_mean             =   1.0097171908583E-02
(PID.TID 0000.0001) %MON exf_ustress_sd               =   1.2749516565533E-01
(PID.TID 0000.0001) %MON exf_ustress_del2             =   1.1548911405615E-04
(PID.TID 0000.0001) %MON exf_vstress_max              =   7.2830842863394E-01
(PID.TID 0000.0001) %MON exf_vstress_min              =  -1.5375439753135E+00
(PID.TID 0000.0001) %MON exf_vstress_mean             =   5.4688154165056E-03
(PID.TID 0000.0001) %MON exf_vstress_sd               =   1.2497972782644E-01
(PID.TID 0000.0001) %MON exf_vstress_del2             =   8.4659609307856E-05
(PID.TID 0000.0001) %MON exf_hflux_max                =   1.1076388065908E+03
(PID.TID 0000.0001) %MON exf_hflux_min                =  -4.5575298034889E+02
(PID.TID 0000.0001) %MON exf_hflux_mean               =   2.1659363210003E+01
(PID.TID 0000.0001) %MON exf_hflux_sd                 =   1.9888505566438E+02
(PID.TID 0000.0001) %MON exf_hflux_del2               =   3.9628318228468E-01
(PID.TID 0000.0001) %MON exf_sflux_max                =   2.3042404024033E-07
(PID.TID 0000.0001) %MON exf_sflux_min                =  -3.0713210831495E-06
(PID.TID 0000.0001) %MON exf_sflux_mean               =  -1.7424679570377E-12
(PID.TID 0000.0001) %MON exf_sflux_sd                 =   8.6567908851064E-08
(PID.TID 0000.0001) %MON exf_sflux_del2               =   2.2887481722219E-10
(PID.TID 0000.0001) %MON exf_wspeed_max               =   2.4265119552612E+01
(PID.TID 0000.0001) %MON exf_wspeed_min               =   4.4450447708368E-01
(PID.TID 0000.0001) %MON exf_wspeed_mean              =   7.2316298758546E+00
(PID.TID 0000.0001) %MON exf_wspeed_sd                =   3.3597543484569E+00
(PID.TID 0000.0001) %MON exf_wspeed_del2              =   1.5469493058701E-02
(PID.TID 0000.0001) %MON exf_atemp_max                =   3.0570972576141E+02
(PID.TID 0000.0001) %MON exf_atemp_min                =   2.2757535018921E+02
(PID.TID 0000.0001) %MON exf_atemp_mean               =   2.8902992066914E+02
(PID.TID 0000.0001) %MON exf_atemp_sd                 =   1.1608409299003E+01
(PID.TID 0000.0001) %MON exf_atemp_del2               =   2.9964874271784E-02
(PID.TID 0000.0001) %MON exf_aqh_max                  =   2.0970256067812E-02
(PID.TID 0000.0001) %MON exf_aqh_min                  =   1.4266483776737E-04
(PID.TID 0000.0001) %MON exf_aqh_mean                 =   1.0644742071239E-02
(PID.TID 0000.0001) %MON exf_aqh_sd                   =   5.6427373597676E-03
(PID.TID 0000.0001) %MON exf_aqh_del2                 =   1.7495328937239E-05
(PID.TID 0000.0001) %MON exf_lwflux_max               =   2.3090205162318E+02
(PID.TID 0000.0001) %MON exf_lwflux_min               =  -2.0720685975231E+01
(PID.TID 0000.0001) %MON exf_lwflux_mean              =   4.7140425084105E+01
(PID.TID 0000.0001) %MON exf_lwflux_sd                =   2.5318166423570E+01
(PID.TID 0000.0001) %MON exf_lwflux_del2              =   1.0401174445918E-01
(PID.TID 0000.0001) %MON exf_evap_max                 =   2.4427777141896E-07
(PID.TID 0000.0001) %MON exf_evap_min                 =  -1.6610788915172E-08
(PID.TID 0000.0001) %MON exf_evap_mean                =   4.3751127424861E-08
(PID.TID 0000.0001) %MON exf_evap_sd                  =   2.7360580547128E-08
(PID.TID 0000.0001) %MON exf_evap_del2                =   8.5162622339824E-11
(PID.TID 0000.0001) %MON exf_precip_max               =   3.1084255738278E-06
(PID.TID 0000.0001) %MON exf_precip_min               =  -2.1812001094190E-08
(PID.TID 0000.0001) %MON exf_precip_mean              =   4.0736930161533E-08
(PID.TID 0000.0001) %MON exf_precip_sd                =   8.0019987580677E-08
(PID.TID 0000.0001) %MON exf_precip_del2              =   2.3004695952493E-10
(PID.TID 0000.0001) %MON exf_swflux_max               =   9.9558839313985E+01
(PID.TID 0000.0001) %MON exf_swflux_min               =  -5.7580650567899E+02
(PID.TID 0000.0001) %MON exf_swflux_mean              =  -1.6060400251320E+02
(PID.TID 0000.0001) %MON exf_swflux_sd                =   1.6082565587051E+02
(PID.TID 0000.0001) %MON exf_swflux_del2              =   3.5870606363295E-01
(PID.TID 0000.0001) %MON exf_swdown_max               =   6.2065512084961E+02
(PID.TID 0000.0001) %MON exf_swdown_min               =  -1.4132811737061E+02
(PID.TID 0000.0001) %MON exf_swdown_mean              =   1.7408854725968E+02
(PID.TID 0000.0001) %MON exf_swdown_sd                =   1.7400223954535E+02
(PID.TID 0000.0001) %MON exf_swdown_del2              =   3.8986196538369E-01
(PID.TID 0000.0001) %MON exf_lwdown_max               =   4.6679513549805E+02
(PID.TID 0000.0001) %MON exf_lwdown_min               =   6.8630306243896E+01
(PID.TID 0000.0001) %MON exf_lwdown_mean              =   3.6143161760701E+02
(PID.TID 0000.0001) %MON exf_lwdown_sd                =   6.1588113292250E+01
(PID.TID 0000.0001) %MON exf_lwdown_del2              =   5.9744771448861E-01
(PID.TID 0000.0001) %MON exf_apressure_max            =   1.0339980859375E+05
(PID.TID 0000.0001) %MON exf_apressure_min            =   9.4313593750000E+04
(PID.TID 0000.0001) %MON exf_apressure_mean           =   1.0098866948035E+05
(PID.TID 0000.0001) %MON exf_apressure_sd             =   1.1915242315822E+03
(PID.TID 0000.0001) %MON exf_apressure_del2           =   1.7819142809851E+02
(PID.TID 0000.0001) %MON exf_runoff_max               =   9.3245055585031E-07
(PID.TID 0000.0001) %MON exf_runoff_min               =   0.0000000000000E+00
(PID.TID 0000.0001) %MON exf_runoff_mean              =   3.0159397312850E-09
(PID.TID 0000.0001) %MON exf_runoff_sd                =   1.6428556549052E-08
(PID.TID 0000.0001) %MON exf_runoff_del2              =   3.9145515204250E-11
(PID.TID 0000.0001) // =======================================================
(PID.TID 0000.0001) // End MONITOR EXF statistics
(PID.TID 0000.0001) // =======================================================
 cg2d: Sum(rhs),rhsMax =  -1.15753949302577E+02  1.29018509396194E+00
(PID.TID 0000.0001)  ploadbar=  1.00988669480348E+05
 cg2d: Sum(rhs),rhsMax =  -1.16366681117366E+02  1.28343258763398E+00
(PID.TID 0000.0001)  ploadbar=  1.00988422233916E+05
 cg2d: Sum(rhs),rhsMax =  -1.17046171389687E+02  1.27598071962891E+00
(PID.TID 0000.0001)  ploadbar=  1.00988174987484E+05
 cg2d: Sum(rhs),rhsMax =  -1.17798827900130E+02  1.26778530879239E+00
(PID.TID 0000.0001)  ploadbar=  1.00987927741052E+05
 cg2d: Sum(rhs),rhsMax =  -1.18643395316963E+02  1.25872039421768E+00
(PID.TID 0000.0001)  ploadbar=  1.00988429280131E+05
 cg2d: Sum(rhs),rhsMax =  -1.19561813306336E+02  1.24900833962810E+00
(PID.TID 0000.0001)  ploadbar=  1.00988930819210E+05
 cg2d: Sum(rhs),rhsMax =  -1.20532645924301E+02  1.23890088226296E+00
(PID.TID 0000.0001)  ploadbar=  1.00989432358288E+05
 cg2d: Sum(rhs),rhsMax =  -1.21510097204490E+02  1.22887987337074E+00
(PID.TID 0000.0001)  ploadbar=  1.00989933897367E+05
 cg2d: Sum(rhs),rhsMax =  -1.22445693972189E+02  1.21942378837784E+00
(PID.TID 0000.0001)  ploadbar=  1.00990435436446E+05
 cg2d: Sum(rhs),rhsMax =  -1.23285807474941E+02  1.21103316151092E+00
(PID.TID 0000.0001)  ploadbar=  1.00990936975524E+05
 cg2d: Sum(rhs),rhsMax =  -1.23895737727071E+02  1.20498557331552E+00
(PID.TID 0000.0001)  ploadbar=  1.00992051195665E+05
 cg2d: Sum(rhs),rhsMax =  -1.24328049061007E+02  1.20070028410565E+00
(PID.TID 0000.0001)  ploadbar=  1.00993165415806E+05
 cg2d: Sum(rhs),rhsMax =  -1.24606763241827E+02  1.19790505230511E+00
(PID.TID 0000.0001)  ploadbar=  1.00994279635946E+05
 cg2d: Sum(rhs),rhsMax =  -1.24767347211215E+02  1.19623573838392E+00
(PID.TID 0000.0001)  ploadbar=  1.00995393856087E+05
 cg2d: Sum(rhs),rhsMax =  -1.24889873747768E+02  1.19491210395247E+00
(PID.TID 0000.0001)  ploadbar=  1.00996508076228E+05
 cg2d: Sum(rhs),rhsMax =  -1.25087657468898E+02  1.19284679894115E+00
(PID.TID 0000.0001)  ploadbar=  1.00997622296369E+05
 cg2d: Sum(rhs),rhsMax =  -1.25256434226280E+02  1.19109850465934E+00
(PID.TID 0000.0001)  ploadbar=  1.00998187898342E+05
 cg2d: Sum(rhs),rhsMax =  -1.25416713831470E+02  1.18946424381657E+00
(PID.TID 0000.0001)  ploadbar=  1.00998753500315E+05
 cg2d: Sum(rhs),rhsMax =  -1.25587958800399E+02  1.18775378706154E+00
(PID.TID 0000.0001)  ploadbar=  1.00999319102288E+05
 cg2d: Sum(rhs),rhsMax =  -1.25817579040758E+02  1.18551739212120E+00
(PID.TID 0000.0001)  ploadbar=  1.00999884704262E+05
 cg2d: Sum(rhs),rhsMax =  -1.26104084274881E+02  1.18277364636771E+00
(PID.TID 0000.0001)  ploadbar=  1.01000450306235E+05
 cg2d: Sum(rhs),rhsMax =  -1.26485986133613E+02  1.17916860701562E+00
(PID.TID 0000.0001)  ploadbar=  1.01001015908208E+05
 cg2d: Sum(rhs),rhsMax =  -1.26985087803069E+02  1.17448703684354E+00
(PID.TID 0000.0001)  ploadbar=  1.01002138672761E+05
 cg2d: Sum(rhs),rhsMax =  -1.27580592073936E+02  1.16893961462587E+00
(PID.TID 0000.0001)  ploadbar=  1.01003261437314E+05
 cg2d: Sum(rhs),rhsMax =  -1.28316911871588E+02  1.16214445928414E+00
(PID.TID 0000.0001)  ploadbar=  1.01004384201867E+05
 cg2d: Sum(rhs),rhsMax =  -1.29247251016030E+02  1.15366750502594E+00
(PID.TID 0000.0001)  ploadbar=  1.01005506966420E+05
 cg2d: Sum(rhs),rhsMax =  -1.30457394593984E+02  1.14283019894001E+00
(PID.TID 0000.0001)  ploadbar=  1.01006629730973E+05
 cg2d: Sum(rhs),rhsMax =  -1.32049816736102E+02  1.12888940699488E+00
(PID.TID 0000.0001)  ploadbar=  1.01007752495526E+05
 cg2d: Sum(rhs),rhsMax =  -1.34069538453807E+02  1.11174481343346E+00
(PID.TID 0000.0001)  ploadbar=  1.01009056510800E+05
 cg2d: Sum(rhs),rhsMax =  -1.36267332545650E+02  1.09369079803325E+00
(PID.TID 0000.0001)  ploadbar=  1.01010360526074E+05
 cg2d: Sum(rhs),rhsMax =  -1.38509516990491E+02  1.07587367441321E+00
(PID.TID 0000.0001)  ploadbar=  1.01011664541348E+05
 cg2d: Sum(rhs),rhsMax =  -1.40773951244114E+02  1.05846218852188E+00
(PID.TID 0000.0001)  ploadbar=  1.01012968556622E+05
 cg2d: Sum(rhs),rhsMax =  -1.42975894260135E+02  1.04205935364407E+00
(PID.TID 0000.0001)  ploadbar=  1.01014272571896E+05
 cg2d: Sum(rhs),rhsMax =  -1.43429077435463E+02  1.03866381046620E+00
(PID.TID 0000.0001)  ploadbar=  1.01015576587171E+05
 cg2d: Sum(rhs),rhsMax =  -1.43390027500163E+02  1.03882969539336E+00
(PID.TID 0000.0001)  ploadbar=  1.01017210305613E+05
 cg2d: Sum(rhs),rhsMax =  -1.43405173373641E+02  1.03858647605814E+00
(PID.TID 0000.0001)  ploadbar=  1.01018844024056E+05
 cg2d: Sum(rhs),rhsMax =  -1.43464437792145E+02  1.03800368629625E+00
(PID.TID 0000.0001)  ploadbar=  1.01020477742499E+05
 cg2d: Sum(rhs),rhsMax =  -1.43566570452987E+02  1.03708628713158E+00
(PID.TID 0000.0001)  ploadbar=  1.01022111460942E+05
 cg2d: Sum(rhs),rhsMax =  -1.43713234412371E+02  1.03581933564152E+00
(PID.TID 0000.0001)  ploadbar=  1.01023745179384E+05
 cg2d: Sum(rhs),rhsMax =  -1.43890361348258E+02  1.03430409151839E+00
(PID.TID 0000.0001)  ploadbar=  1.01025378897827E+05
 cg2d: Sum(rhs),rhsMax =  -1.44077618232126E+02  1.03277329276219E+00
(PID.TID 0000.0001)  ploadbar=  1.01026845507231E+05
 cg2d: Sum(rhs),rhsMax =  -1.44295861410199E+02  1.03106967976192E+00
(PID.TID 0000.0001)  ploadbar=  1.01028312116635E+05
 cg2d: Sum(rhs),rhsMax =  -1.44556716532701E+02  1.02910663877173E+00
(PID.TID 0000.0001)  ploadbar=  1.01029778726038E+05
 cg2d: Sum(rhs),rhsMax =  -1.44860341074867E+02  1.02688174842324E+00
(PID.TID 0000.0001)  ploadbar=  1.01031245335442E+05
 cg2d: Sum(rhs),rhsMax =  -1.45209155560150E+02  1.02438208066855E+00
(PID.TID 0000.0001)  ploadbar=  1.01032711944846E+05
 cg2d: Sum(rhs),rhsMax =  -1.45574071824435E+02  1.02181913709990E+00
(PID.TID 0000.0001)  ploadbar=  1.01034178554249E+05
 cg2d: Sum(rhs),rhsMax =  -1.45985703216507E+02  1.01893055900535E+00
(PID.TID 0000.0001)  ploadbar=  1.01035732213261E+05
 cg2d: Sum(rhs),rhsMax =  -1.46478133070831E+02  1.01547951621576E+00
(PID.TID 0000.0001)  ploadbar=  1.01037285872273E+05
 cg2d: Sum(rhs),rhsMax =  -1.47001131360433E+02  1.01182057836418E+00
(PID.TID 0000.0001)  ploadbar=  1.01038839531284E+05
 cg2d: Sum(rhs),rhsMax =  -1.47573856374716E+02  1.00782608261229E+00
(PID.TID 0000.0001)  ploadbar=  1.01040393190296E+05
 cg2d: Sum(rhs),rhsMax =  -1.48183790348777E+02  1.00358938625246E+00
(PID.TID 0000.0001)  ploadbar=  1.01041946849308E+05
 cg2d: Sum(rhs),rhsMax =  -1.48831975987089E+02  9.99107671507009E-01
(PID.TID 0000.0001)  ploadbar=  1.01043500508320E+05
 cg2d: Sum(rhs),rhsMax =  -1.49515797781595E+02  9.94444090744903E-01
(PID.TID 0000.0001)  ploadbar=  1.01045719218831E+05
 cg2d: Sum(rhs),rhsMax =  -1.50223325781003E+02  9.89676675927161E-01
(PID.TID 0000.0001)  ploadbar=  1.01047937929342E+05
 cg2d: Sum(rhs),rhsMax =  -1.50943273635184E+02  9.84881552272627E-01
(PID.TID 0000.0001)  ploadbar=  1.01050156639854E+05
 cg2d: Sum(rhs),rhsMax =  -1.51656090550982E+02  9.80183207292862E-01
(PID.TID 0000.0001)  ploadbar=  1.01052375350365E+05
 cg2d: Sum(rhs),rhsMax =  -1.52342629099303E+02  9.75698758978478E-01
(PID.TID 0000.0001)  ploadbar=  1.01054594060876E+05
 cg2d: Sum(rhs),rhsMax =  -1.52994256999863E+02  9.71472092760459E-01
(PID.TID 0000.0001)  ploadbar=  1.01056812771388E+05
 cg2d: Sum(rhs),rhsMax =  -1.53596395863273E+02  9.67581319196200E-01
(PID.TID 0000.0001)  ploadbar=  1.01057757440319E+05
 cg2d: Sum(rhs),rhsMax =  -1.54163216486110E+02  9.63927852403081E-01
(PID.TID 0000.0001)  ploadbar=  1.01058702109251E+05
 cg2d: Sum(rhs),rhsMax =  -1.54705579762488E+02  9.60435990997977E-01
(PID.TID 0000.0001)  ploadbar=  1.01059646778183E+05
 cg2d: Sum(rhs),rhsMax =  -1.55223163858298E+02  9.57100995340990E-01
(PID.TID 0000.0001)  ploadbar=  1.01060591447114E+05
 cg2d: Sum(rhs),rhsMax =  -1.55719772431765E+02  9.53892322864721E-01
(PID.TID 0000.0001)  ploadbar=  1.01061536116046E+05
 cg2d: Sum(rhs),rhsMax =  -1.56203118868924E+02  9.50755666937159E-01
(PID.TID 0000.0001)  ploadbar=  1.01062480784978E+05
 cg2d: Sum(rhs),rhsMax =  -1.56654320336877E+02  9.47859835066429E-01
(PID.TID 0000.0001)  ploadbar=  1.01062928345197E+05
 cg2d: Sum(rhs),rhsMax =  -1.57096298738450E+02  9.45056184271508E-01
(PID.TID 0000.0001)  ploadbar=  1.01063375905416E+05
 cg2d: Sum(rhs),rhsMax =  -1.57536349961899E+02  9.42294858624859E-01
(PID.TID 0000.0001)  ploadbar=  1.01063823465635E+05
 cg2d: Sum(rhs),rhsMax =  -1.57974407819054E+02  9.39573527639967E-01
(PID.TID 0000.0001)  ploadbar=  1.01064271025854E+05
 cg2d: Sum(rhs),rhsMax =  -1.58417679850973E+02  9.36848656497290E-01
(PID.TID 0000.0001)  ploadbar=  1.01064718586073E+05
 cg2d: Sum(rhs),rhsMax =  -1.58872070326243E+02  9.34085017156163E-01
(PID.TID 0000.0001)  ploadbar=  1.01065166146292E+05
 cg2d: Sum(rhs),rhsMax =  -1.59347376384574E+02  9.31207859129469E-01
(PID.TID 0000.0001)  ploadbar=  1.01064732826465E+05
 cg2d: Sum(rhs),rhsMax =  -1.59836051267344E+02  9.28257007601742E-01
(PID.TID 0000.0001)  ploadbar=  1.01064299506638E+05
 cg2d: Sum(rhs),rhsMax =  -1.60338036199422E+02  9.25233628981662E-01
(PID.TID 0000.0001)  ploadbar=  1.01063866186812E+05
 cg2d: Sum(rhs),rhsMax =  -1.59486339639023E+02  9.30042393178874E-01
(PID.TID 0000.0001)  ploadbar=  1.01063432866985E+05
 cg2d: Sum(rhs),rhsMax =  -1.58271654644035E+02  9.37031053039687E-01
(PID.TID 0000.0001)  ploadbar=  1.01062999547159E+05
 cg2d: Sum(rhs),rhsMax =  -1.57095882160682E+02  9.43877552257415E-01
(PID.TID 0000.0001)  ploadbar=  1.01062566227332E+05
 cg2d: Sum(rhs),rhsMax =  -1.55932316854415E+02  9.50773308287426E-01
(PID.TID 0000.0001)  ploadbar=  1.01062733130369E+05
 cg2d: Sum(rhs),rhsMax =  -1.54756714788956E+02  9.57861769584148E-01
(PID.TID 0000.0001)  ploadbar=  1.01062900033406E+05
 cg2d: Sum(rhs),rhsMax =  -1.53572330793029E+02  9.65123813414159E-01
(PID.TID 0000.0001)  ploadbar=  1.01063066936443E+05
 cg2d: Sum(rhs),rhsMax =  -1.52379917085876E+02  9.72555765465323E-01
(PID.TID 0000.0001)  ploadbar=  1.01063233839480E+05
 cg2d: Sum(rhs),rhsMax =  -1.51179569108789E+02  9.80154535693475E-01
(PID.TID 0000.0001)  ploadbar=  1.01063400742517E+05
 cg2d: Sum(rhs),rhsMax =  -1.49984117193042E+02  9.87836274198464E-01
(PID.TID 0000.0001)  ploadbar=  1.01063567645554E+05
 cg2d: Sum(rhs),rhsMax =  -1.48722868368103E+02  9.96078123289420E-01
(PID.TID 0000.0001)  ploadbar=  1.01063710337390E+05
 cg2d: Sum(rhs),rhsMax =  -1.47457859047316E+02  1.00447912837704E+00
(PID.TID 0000.0001)  ploadbar=  1.01063853029226E+05
 cg2d: Sum(rhs),rhsMax =  -1.46121320930164E+02  1.01350853867590E+00
(PID.TID 0000.0001)  ploadbar=  1.01063995721062E+05
 cg2d: Sum(rhs),rhsMax =  -1.43554081432141E+02  1.03145338176146E+00
(PID.TID 0000.0001)  ploadbar=  1.01064138412899E+05
 cg2d: Sum(rhs),rhsMax =  -1.40538321211687E+02  1.05338027604440E+00
(PID.TID 0000.0001)  ploadbar=  1.01064281104735E+05
 cg2d: Sum(rhs),rhsMax =  -1.37230880354907E+02  1.07853138284615E+00
(PID.TID 0000.0001)  ploadbar=  1.01064423796571E+05
 cg2d: Sum(rhs),rhsMax =  -1.33824861357513E+02  1.10577925896574E+00
(PID.TID 0000.0001)  ploadbar=  1.01064199611944E+05
 cg2d: Sum(rhs),rhsMax =  -1.30929697901113E+02  1.13005494591892E+00
(PID.TID 0000.0001)  ploadbar=  1.01063975427317E+05
 cg2d: Sum(rhs),rhsMax =  -1.28612652397590E+02  1.15026211500923E+00
(PID.TID 0000.0001)  ploadbar=  1.01063751242690E+05
 cg2d: Sum(rhs),rhsMax =  -1.26662952385962E+02  1.16784001894048E+00
(PID.TID 0000.0001)  ploadbar=  1.01063527058062E+05
 cg2d: Sum(rhs),rhsMax =  -1.25014017354216E+02  1.18313807676705E+00
(PID.TID 0000.0001)  ploadbar=  1.01063302873435E+05
 cg2d: Sum(rhs),rhsMax =  -1.23588727702309E+02  1.19669714339363E+00
(PID.TID 0000.0001)  ploadbar=  1.01063078688808E+05
 cg2d: Sum(rhs),rhsMax =  -1.22383252961258E+02  1.20839082648813E+00
(PID.TID 0000.0001)  ploadbar=  1.01063228955579E+05
 cg2d: Sum(rhs),rhsMax =  -1.21310859923252E+02  1.21896977514353E+00
(PID.TID 0000.0001)  ploadbar=  1.01063379222349E+05
 cg2d: Sum(rhs),rhsMax =  -1.20492572731859E+02  1.22713391515952E+00
(PID.TID 0000.0001)  ploadbar=  1.01063529489120E+05
 cg2d: Sum(rhs),rhsMax =  -1.19462941081972E+02  1.23758396457669E+00
(PID.TID 0000.0001)  ploadbar=  1.01063679755890E+05
 cg2d: Sum(rhs),rhsMax =  -1.18602158470240E+02  1.24642632480344E+00
(PID.TID 0000.0001)  ploadbar=  1.01063830022661E+05
 cg2d: Sum(rhs),rhsMax =  -1.17706944584717E+02  1.25574904828337E+00
(PID.TID 0000.0001)  ploadbar=  1.01063980289432E+05
 cg2d: Sum(rhs),rhsMax =  -1.16471900197418E+02  1.26892599937329E+00
(PID.TID 0000.0001)  ploadbar=  1.01065105563120E+05
 cg2d: Sum(rhs),rhsMax =  -1.15094051678330E+02  1.28398804675710E+00
(PID.TID 0000.0001)  ploadbar=  1.01066230836809E+05
 cg2d: Sum(rhs),rhsMax =  -1.13691874043406E+02  1.29969845690093E+00
(PID.TID 0000.0001)  ploadbar=  1.01067356110497E+05
 cg2d: Sum(rhs),rhsMax =  -1.12328583590154E+02  1.31534157194411E+00
(PID.TID 0000.0001)  ploadbar=  1.01068481384186E+05
 cg2d: Sum(rhs),rhsMax =  -1.11048998978629E+02  1.33035509964370E+00
(PID.TID 0000.0001)  ploadbar=  1.01069606657874E+05
 cg2d: Sum(rhs),rhsMax =  -1.09879916050047E+02  1.34435143745680E+00
(PID.TID 0000.0001)  ploadbar=  1.01070731931563E+05
 cg2d: Sum(rhs),rhsMax =  -1.08815617368038E+02  1.35731860907525E+00
(PID.TID 0000.0001)  ploadbar=  1.01071940415283E+05
 cg2d: Sum(rhs),rhsMax =  -1.07869844314741E+02  1.36900832275976E+00
(PID.TID 0000.0001)  ploadbar=  1.01073148899003E+05
 cg2d: Sum(rhs),rhsMax =  -1.07027894642591E+02  1.37953238383245E+00
(PID.TID 0000.0001)  ploadbar=  1.01074357382723E+05
 cg2d: Sum(rhs),rhsMax =  -1.06268423963919E+02  1.38910498484350E+00
(PID.TID 0000.0001)  ploadbar=  1.01075565866443E+05
 cg2d: Sum(rhs),rhsMax =  -1.05592634457342E+02  1.39766263157818E+00
(PID.TID 0000.0001)  ploadbar=  1.01076774350163E+05
 cg2d: Sum(rhs),rhsMax =  -1.05001047030352E+02  1.40515525905965E+00
(PID.TID 0000.0001)  ploadbar=  1.01077982833884E+05
 cg2d: Sum(rhs),rhsMax =  -1.04613344645061E+02  1.41003205933984E+00
(PID.TID 0000.0001)  ploadbar=  1.01079646893925E+05
 cg2d: Sum(rhs),rhsMax =  -1.04604806368266E+02  1.40985987563310E+00
(PID.TID 0000.0001)  ploadbar=  1.01081310953966E+05
 cg2d: Sum(rhs),rhsMax =  -1.04957864705480E+02  1.40486622519046E+00
(PID.TID 0000.0001)  ploadbar=  1.01082975014007E+05
 cg2d: Sum(rhs),rhsMax =  -1.05671104934099E+02  1.39516671332124E+00
(PID.TID 0000.0001)  ploadbar=  1.01084639074048E+05
 cg2d: Sum(rhs),rhsMax =  -1.06330967926196E+02  1.38632297585848E+00
(PID.TID 0000.0001)  ploadbar=  1.01086303134089E+05
 cg2d: Sum(rhs),rhsMax =  -1.07132356220928E+02  1.37579497681216E+00
(PID.TID 0000.0001)  ploadbar=  1.01087967194131E+05
 cg2d: Sum(rhs),rhsMax =  -1.07972813379714E+02  1.36494178324204E+00
(PID.TID 0000.0001)  ploadbar=  1.01088369761869E+05
 cg2d: Sum(rhs),rhsMax =  -1.08825173289595E+02  1.35411316213528E+00
(PID.TID 0000.0001)  ploadbar=  1.01088772329607E+05
 cg2d: Sum(rhs),rhsMax =  -1.09638079996092E+02  1.34393902174644E+00
(PID.TID 0000.0001)  ploadbar=  1.01089174897345E+05
 cg2d: Sum(rhs),rhsMax =  -1.10391275073224E+02  1.33463926054738E+00
(PID.TID 0000.0001)  ploadbar=  1.01089577465083E+05
 cg2d: Sum(rhs),rhsMax =  -1.11133683684015E+02  1.32559460630680E+00
(PID.TID 0000.0001)  ploadbar=  1.01089980032821E+05
 cg2d: Sum(rhs),rhsMax =  -1.11863548751291E+02  1.31681502438188E+00
(PID.TID 0000.0001)  ploadbar=  1.01090382600559E+05
 cg2d: Sum(rhs),rhsMax =  -1.12625828682364E+02  1.30778573083572E+00
(PID.TID 0000.0001)  ploadbar=  1.01092457940766E+05
 cg2d: Sum(rhs),rhsMax =  -1.13384614174567E+02  1.29892501677867E+00
(PID.TID 0000.0001)  ploadbar=  1.01094533280974E+05
 cg2d: Sum(rhs),rhsMax =  -1.14107762126898E+02  1.29058844030763E+00
(PID.TID 0000.0001)  ploadbar=  1.01096608621181E+05
 cg2d: Sum(rhs),rhsMax =  -1.14787796985209E+02  1.28284118662070E+00
(PID.TID 0000.0001)  ploadbar=  1.01098683961388E+05
 cg2d: Sum(rhs),rhsMax =  -1.14419364552088E+02  1.28687037043991E+00
(PID.TID 0000.0001)  ploadbar=  1.01100759301596E+05
 cg2d: Sum(rhs),rhsMax =  -1.11552330718397E+02  1.31983486087090E+00
(PID.TID 0000.0001)  ploadbar=  1.01102834641803E+05
 cg2d: Sum(rhs),rhsMax =  -1.08909481889536E+02  1.35172988996212E+00
(PID.TID 0000.0001)  ploadbar=  1.01102890618569E+05
 cg2d: Sum(rhs),rhsMax =  -1.06511272757467E+02  1.38200317282663E+00
(PID.TID 0000.0001)  ploadbar=  1.01102946595334E+05
 cg2d: Sum(rhs),rhsMax =  -1.04436875668834E+02  1.40925788332050E+00
(PID.TID 0000.0001)  ploadbar=  1.01103002572099E+05
 cg2d: Sum(rhs),rhsMax =  -1.02687768581603E+02  1.43302936646382E+00
(PID.TID 0000.0001)  ploadbar=  1.01103058548864E+05
 cg2d: Sum(rhs),rhsMax =  -1.01249107533481E+02  1.45311959940275E+00
(PID.TID 0000.0001)  ploadbar=  1.01103114525630E+05
 cg2d: Sum(rhs),rhsMax =  -1.00073225415482E+02  1.46988080265426E+00
(PID.TID 0000.0001)  ploadbar=  1.01103170502395E+05
 cg2d: Sum(rhs),rhsMax =  -9.92349358623296E+01  1.48203029270716E+00
(PID.TID 0000.0001)  ploadbar=  1.01103544903755E+05
 cg2d: Sum(rhs),rhsMax =  -9.86222363035086E+01  1.49100721094106E+00
(PID.TID 0000.0001)  ploadbar=  1.01103919305116E+05
 cg2d: Sum(rhs),rhsMax =  -9.82690513130887E+01  1.49616825955746E+00
(PID.TID 0000.0001)  ploadbar=  1.01104293706477E+05
 cg2d: Sum(rhs),rhsMax =  -9.81118659289690E+01  1.49839877613216E+00
(PID.TID 0000.0001)  ploadbar=  1.01104668107838E+05
 cg2d: Sum(rhs),rhsMax =  -9.81064339472925E+01  1.49834316461990E+00
(PID.TID 0000.0001)  ploadbar=  1.01105042509198E+05
 cg2d: Sum(rhs),rhsMax =  -9.81906539855813E+01  1.49694543178804E+00
(PID.TID 0000.0001)  ploadbar=  1.01105416910559E+05
 cg2d: Sum(rhs),rhsMax =  -9.84697720780294E+01  1.49259238719522E+00
(PID.TID 0000.0001)  ploadbar=  1.01105568663324E+05
 cg2d: Sum(rhs),rhsMax =  -9.89990575920752E+01  1.48449829563961E+00
(PID.TID 0000.0001)  ploadbar=  1.01105720416089E+05
 cg2d: Sum(rhs),rhsMax =  -9.97445239532562E+01  1.47328228681970E+00
(PID.TID 0000.0001)  ploadbar=  1.01105872168854E+05
 cg2d: Sum(rhs),rhsMax =  -1.00703170414927E+02  1.45912665128625E+00
(PID.TID 0000.0001)  ploadbar=  1.01106023921619E+05
 cg2d: Sum(rhs),rhsMax =  -1.01880907885572E+02  1.44211687587267E+00
(PID.TID 0000.0001)  ploadbar=  1.01106175674384E+05
 cg2d: Sum(rhs),rhsMax =  -1.03260109855707E+02  1.42270042119069E+00
(PID.TID 0000.0001)  ploadbar=  1.01106327427149E+05
 cg2d: Sum(rhs),rhsMax =  -1.04829629006486E+02  1.40125359267893E+00
(PID.TID 0000.0001)  ploadbar=  1.01104888624172E+05
 cg2d: Sum(rhs),rhsMax =  -1.06589505443045E+02  1.37797657645884E+00
(PID.TID 0000.0001)  ploadbar=  1.01103449821195E+05
 cg2d: Sum(rhs),rhsMax =  -1.08535403482284E+02  1.35313324487211E+00
(PID.TID 0000.0001)  ploadbar=  1.01102011018218E+05
 cg2d: Sum(rhs),rhsMax =  -1.10668426977733E+02  1.32691463646637E+00
(PID.TID 0000.0001)  ploadbar=  1.01100572215241E+05
 cg2d: Sum(rhs),rhsMax =  -1.12989292224647E+02  1.29951400575158E+00
(PID.TID 0000.0001)  ploadbar=  1.01099133412264E+05
 cg2d: Sum(rhs),rhsMax =  -1.15494078092809E+02  1.27117270652264E+00
(PID.TID 0000.0001)  ploadbar=  1.01097694609287E+05
 cg2d: Sum(rhs),rhsMax =  -1.18086614322247E+02  1.24310726748411E+00
(PID.TID 0000.0001)  ploadbar=  1.01097200519244E+05
 cg2d: Sum(rhs),rhsMax =  -1.20272186435741E+02  1.22035569346010E+00
(PID.TID 0000.0001)  ploadbar=  1.01096706429201E+05
 cg2d: Sum(rhs),rhsMax =  -1.22204797238891E+02  1.20088615576928E+00
(PID.TID 0000.0001)  ploadbar=  1.01096212339158E+05
 cg2d: Sum(rhs),rhsMax =  -1.22642980959358E+02  1.19641241567228E+00
(PID.TID 0000.0001)  ploadbar=  1.01095718249115E+05
 cg2d: Sum(rhs),rhsMax =  -1.21868018184180E+02  1.20381984926558E+00
(PID.TID 0000.0001)  ploadbar=  1.01095224159073E+05
 cg2d: Sum(rhs),rhsMax =  -1.20860249833489E+02  1.21363648787356E+00
(PID.TID 0000.0001)  ploadbar=  1.01094730069030E+05
 cg2d: Sum(rhs),rhsMax =  -1.19990585302527E+02  1.22225161015480E+00
(PID.TID 0000.0001)  ploadbar=  1.01094464128534E+05
 cg2d: Sum(rhs),rhsMax =  -1.19177342426833E+02  1.23044123835409E+00
(PID.TID 0000.0001)  ploadbar=  1.01094198188038E+05
 cg2d: Sum(rhs),rhsMax =  -1.18476355589233E+02  1.23759586205464E+00
(PID.TID 0000.0001)  ploadbar=  1.01093932247542E+05
 cg2d: Sum(rhs),rhsMax =  -1.17928485706831E+02  1.24324139591486E+00
(PID.TID 0000.0001)  ploadbar=  1.01093666307047E+05
 cg2d: Sum(rhs),rhsMax =  -1.17548372038020E+02  1.24717832650911E+00
(PID.TID 0000.0001)  ploadbar=  1.01093400366551E+05
 cg2d: Sum(rhs),rhsMax =  -1.17594543176918E+02  1.24662599797426E+00
(PID.TID 0000.0001)  ploadbar=  1.01093134426055E+05
 cg2d: Sum(rhs),rhsMax =  -1.17891874374735E+02  1.24341102118010E+00
(PID.TID 0000.0001)  ploadbar=  1.01092087910628E+05
 cg2d: Sum(rhs),rhsMax =  -1.18376456098083E+02  1.23823673736026E+00
(PID.TID 0000.0001)  ploadbar=  1.01091041395200E+05
 cg2d: Sum(rhs),rhsMax =  -1.19158208039127E+02  1.23001442588240E+00
(PID.TID 0000.0001)  ploadbar=  1.01089994879773E+05
 cg2d: Sum(rhs),rhsMax =  -1.20225039255617E+02  1.21898598494734E+00
(PID.TID 0000.0001)  ploadbar=  1.01088948364346E+05
 cg2d: Sum(rhs),rhsMax =  -1.21541365062043E+02  1.20565510219327E+00
(PID.TID 0000.0001)  ploadbar=  1.01087901848918E+05
 cg2d: Sum(rhs),rhsMax =  -1.23121728427564E+02  1.19003296576392E+00
(PID.TID 0000.0001)  ploadbar=  1.01086855333491E+05
 cg2d: Sum(rhs),rhsMax =  -1.25310073153571E+02  1.16913202181766E+00
(PID.TID 0000.0001)  ploadbar=  1.01086152259401E+05
 cg2d: Sum(rhs),rhsMax =  -1.26485616710481E+02  1.15816769160452E+00
(PID.TID 0000.0001)  ploadbar=  1.01085449185310E+05
 cg2d: Sum(rhs),rhsMax =  -1.27002521286354E+02  1.15336863288171E+00
(PID.TID 0000.0001)  ploadbar=  1.01084746111220E+05
 cg2d: Sum(rhs),rhsMax =  -1.27500347500842E+02  1.14879096947026E+00
(PID.TID 0000.0001)  ploadbar=  1.01084043037130E+05
 cg2d: Sum(rhs),rhsMax =  -1.27966533750179E+02  1.14454039618658E+00
(PID.TID 0000.0001)  ploadbar=  1.01083339963040E+05
 cg2d: Sum(rhs),rhsMax =  -1.28399119358191E+02  1.14062360384832E+00
(PID.TID 0000.0001)  ploadbar=  1.01082636888949E+05
 cg2d: Sum(rhs),rhsMax =  -1.28840413801241E+02  1.13665204947265E+00
(PID.TID 0000.0001)  ploadbar=  1.01082141762510E+05
 cg2d: Sum(rhs),rhsMax =  -1.29257059954070E+02  1.13291511003306E+00
(PID.TID 0000.0001)  ploadbar=  1.01081646636072E+05
 cg2d: Sum(rhs),rhsMax =  -1.29628787435223E+02  1.12958011800069E+00
(PID.TID 0000.0001)  ploadbar=  1.01081151509633E+05
 cg2d: Sum(rhs),rhsMax =  -1.29974753652599E+02  1.12647238209963E+00
(PID.TID 0000.0001)  ploadbar=  1.01080656383194E+05
 cg2d: Sum(rhs),rhsMax =  -1.30287311386901E+02  1.12364952016440E+00
(PID.TID 0000.0001)  ploadbar=  1.01080161256755E+05
 cg2d: Sum(rhs),rhsMax =  -1.30562321888170E+02  1.12113913786882E+00
(PID.TID 0000.0001)  ploadbar=  1.01079666130316E+05
 cg2d: Sum(rhs),rhsMax =  -1.30850331898603E+02  1.11856450661041E+00
(PID.TID 0000.0001)  ploadbar=  1.01080247046265E+05
 cg2d: Sum(rhs),rhsMax =  -1.31122046906461E+02  1.11616701230604E+00
(PID.TID 0000.0001)  ploadbar=  1.01080827962213E+05
 cg2d: Sum(rhs),rhsMax =  -1.31351495017667E+02  1.11415937433015E+00
(PID.TID 0000.0001)  ploadbar=  1.01081408878162E+05
 cg2d: Sum(rhs),rhsMax =  -1.31562854324092E+02  1.11233002040670E+00
(PID.TID 0000.0001)  ploadbar=  1.01081989794110E+05
 cg2d: Sum(rhs),rhsMax =  -1.31764125345409E+02  1.11060886091642E+00
(PID.TID 0000.0001)  ploadbar=  1.01082570710059E+05
 cg2d: Sum(rhs),rhsMax =  -1.31960052208268E+02  1.10895535887449E+00
(PID.TID 0000.0001)  ploadbar=  1.01083151626007E+05
 cg2d: Sum(rhs),rhsMax =  -1.32103990117845E+02  1.10774684252201E+00
(PID.TID 0000.0001)  ploadbar=  1.01083746491382E+05
 cg2d: Sum(rhs),rhsMax =  -1.32296760012088E+02  1.10613257936191E+00
(PID.TID 0000.0001)  ploadbar=  1.01084341356756E+05
 cg2d: Sum(rhs),rhsMax =  -1.32538751889590E+02  1.10411061236048E+00
(PID.TID 0000.0001)  ploadbar=  1.01084936222130E+05
 cg2d: Sum(rhs),rhsMax =  -1.27132390724280E+02  1.15105649751871E+00
(PID.TID 0000.0001)  ploadbar=  1.01085531087504E+05
 cg2d: Sum(rhs),rhsMax =  -1.18641735982925E+02  1.23341376858424E+00
(PID.TID 0000.0001)  ploadbar=  1.01086125952878E+05
 cg2d: Sum(rhs),rhsMax =  -1.08822193257109E+02  1.34467146381174E+00
(PID.TID 0000.0001)  ploadbar=  1.01086720818252E+05
 cg2d: Sum(rhs),rhsMax =  -1.00911992771513E+02  1.45003984066845E+00
(PID.TID 0000.0001)  ploadbar=  1.01086936905711E+05
 cg2d: Sum(rhs),rhsMax =  -9.42641501138262E+01  1.55226289216058E+00
(PID.TID 0000.0001)  ploadbar=  1.01087152993169E+05
 cg2d: Sum(rhs),rhsMax =  -8.87229428535614E+01  1.64916804799609E+00
(PID.TID 0000.0001)  ploadbar=  1.01087369080627E+05
 cg2d: Sum(rhs),rhsMax =  -8.43532152910327E+01  1.73455600718170E+00
(PID.TID 0000.0001)  ploadbar=  1.01087585168085E+05
 cg2d: Sum(rhs),rhsMax =  -8.10734950522460E+01  1.80468084148021E+00
(PID.TID 0000.0001)  ploadbar=  1.01087801255544E+05
 cg2d: Sum(rhs),rhsMax =  -7.85742722158675E+01  1.86203547998579E+00
(PID.TID 0000.0001)  ploadbar=  1.01088017343002E+05
 cg2d: Sum(rhs),rhsMax =  -7.67451084687707E+01  1.90635476998179E+00
(PID.TID 0000.0001)  ploadbar=  1.01089048266768E+05
 cg2d: Sum(rhs),rhsMax =  -7.53408577082419E+01  1.94180420879605E+00
(PID.TID 0000.0001)  ploadbar=  1.01090079190534E+05
 cg2d: Sum(rhs),rhsMax =  -7.42237339196210E+01  1.97092138569327E+00
(PID.TID 0000.0001)  ploadbar=  1.01091110114300E+05
 cg2d: Sum(rhs),rhsMax =  -7.33722761627397E+01  1.99365148084036E+00
(PID.TID 0000.0001)  ploadbar=  1.01092141038066E+05
 cg2d: Sum(rhs),rhsMax =  -7.27956751181795E+01  2.00926073760104E+00
(PID.TID 0000.0001)  ploadbar=  1.01093171961832E+05
 cg2d: Sum(rhs),rhsMax =  -7.25481406858489E+01  2.01588764613868E+00
(PID.TID 0000.0001)  ploadbar=  1.01094202885598E+05
 cg2d: Sum(rhs),rhsMax =  -7.24699591753504E+01  2.01789234020710E+00
(PID.TID 0000.0001)  ploadbar=  1.01095507053321E+05
 cg2d: Sum(rhs),rhsMax =  -7.25810642872472E+01  2.01467880192882E+00
(PID.TID 0000.0001)  ploadbar=  1.01096811221043E+05
 cg2d: Sum(rhs),rhsMax =  -7.28916737215783E+01  2.00600548471154E+00
(PID.TID 0000.0001)  ploadbar=  1.01098115388765E+05
 cg2d: Sum(rhs),rhsMax =  -7.34797693920546E+01  1.98989512247444E+00
(PID.TID 0000.0001)  ploadbar=  1.01099419556487E+05
 cg2d: Sum(rhs),rhsMax =  -7.43734987338347E+01  1.96595819265448E+00
(PID.TID 0000.0001)  ploadbar=  1.01100723724210E+05
 cg2d: Sum(rhs),rhsMax =  -7.52517880637743E+01  1.94301891291824E+00
(PID.TID 0000.0001)  ploadbar=  1.01102027891932E+05
 cg2d: Sum(rhs),rhsMax =  -7.60946391851278E+01  1.92151993175151E+00
(PID.TID 0000.0001)  ploadbar=  1.01102211716343E+05
 cg2d: Sum(rhs),rhsMax =  -7.69137608816192E+01  1.90108733256163E+00
(PID.TID 0000.0001)  ploadbar=  1.01102395540753E+05
 cg2d: Sum(rhs),rhsMax =  -7.76717110188632E+01  1.88257177596569E+00
(PID.TID 0000.0001)  ploadbar=  1.01102579365164E+05
 cg2d: Sum(rhs),rhsMax =  -7.82176958188199E+01  1.86946730178772E+00
(PID.TID 0000.0001)  ploadbar=  1.01102763189574E+05
 cg2d: Sum(rhs),rhsMax =  -7.84270618768054E+01  1.86450140067090E+00
(PID.TID 0000.0001)  ploadbar=  1.01102947013985E+05
 cg2d: Sum(rhs),rhsMax =  -7.83544397865582E+01  1.86622426119316E+00
(PID.TID 0000.0001)  ploadbar=  1.01103130838396E+05
 cg2d: Sum(rhs),rhsMax =  -7.79098690173058E+01  1.87688530350289E+00
(PID.TID 0000.0001)  ploadbar=  1.01103085610394E+05
 cg2d: Sum(rhs),rhsMax =  -7.72304299044976E+01  1.89341960760742E+00
(PID.TID 0000.0001)  ploadbar=  1.01103040382391E+05
 cg2d: Sum(rhs),rhsMax =  -7.63793306240570E+01  1.91454808318332E+00
(PID.TID 0000.0001)  ploadbar=  1.01102995154389E+05
 cg2d: Sum(rhs),rhsMax =  -7.53770170757001E+01  1.94003963079449E+00
(PID.TID 0000.0001)  ploadbar=  1.01102949926387E+05
 cg2d: Sum(rhs),rhsMax =  -7.41743937508481E+01  1.97152579498231E+00
(PID.TID 0000.0001)  ploadbar=  1.01102904698385E+05
 cg2d: Sum(rhs),rhsMax =  -7.27776384245067E+01  2.00938464558000E+00
(PID.TID 0000.0001)  ploadbar=  1.01102859470383E+05
 cg2d: Sum(rhs),rhsMax =  -7.10475948751430E+01  2.05835895586844E+00
(PID.TID 0000.0001)  ploadbar=  1.01103357440468E+05
 cg2d: Sum(rhs),rhsMax =  -6.89726588911354E+01  2.12034419729429E+00
(PID.TID 0000.0001)  ploadbar=  1.01103855410554E+05
 cg2d: Sum(rhs),rhsMax =  -6.65490241222299E+01  2.19763751317408E+00
(PID.TID 0000.0001)  ploadbar=  1.01104353380640E+05
 cg2d: Sum(rhs),rhsMax =  -6.38719596301663E+01  2.28982400133718E+00
(PID.TID 0000.0001)  ploadbar=  1.01104851350725E+05
 cg2d: Sum(rhs),rhsMax =  -6.13874010852950E+01  2.38257534755632E+00
(PID.TID 0000.0001)  ploadbar=  1.01105349320811E+05
 cg2d: Sum(rhs),rhsMax =  -5.92738885244672E+01  2.46759436425012E+00
(PID.TID 0000.0001)  ploadbar=  1.01105847290896E+05
 cg2d: Sum(rhs),rhsMax =  -5.73760329136189E+01  2.54934423069113E+00
(PID.TID 0000.0001)  ploadbar=  1.01105635493592E+05
 cg2d: Sum(rhs),rhsMax =  -5.55239406939355E+01  2.63455663547599E+00
(PID.TID 0000.0001)  ploadbar=  1.01105423696287E+05
 cg2d: Sum(rhs),rhsMax =  -5.37098064883371E+01  2.72376554997959E+00
(PID.TID 0000.0001)  ploadbar=  1.01105211898983E+05
 cg2d: Sum(rhs),rhsMax =  -5.21007495122228E+01  2.80815688811983E+00
(PID.TID 0000.0001)  ploadbar=  1.01105000101678E+05
 cg2d: Sum(rhs),rhsMax =  -5.10696441079410E+01  2.86518525581780E+00
(PID.TID 0000.0001)  ploadbar=  1.01104788304374E+05
 cg2d: Sum(rhs),rhsMax =  -5.00901885940548E+01  2.92160856845271E+00
(PID.TID 0000.0001)  ploadbar=  1.01104576507069E+05
 cg2d: Sum(rhs),rhsMax =  -4.91499040962938E+01  2.97787120797451E+00
(PID.TID 0000.0001)  ploadbar=  1.01104022299264E+05
 cg2d: Sum(rhs),rhsMax =  -4.82479825305170E+01  3.03384801508683E+00
(PID.TID 0000.0001)  ploadbar=  1.01103468091459E+05
 cg2d: Sum(rhs),rhsMax =  -4.73909153331357E+01  3.08894586245722E+00
(PID.TID 0000.0001)  ploadbar=  1.01102913883654E+05
 cg2d: Sum(rhs),rhsMax =  -4.65801095844195E+01  3.14285527675069E+00
(PID.TID 0000.0001)  ploadbar=  1.01102359675849E+05
 cg2d: Sum(rhs),rhsMax =  -4.58060037595223E+01  3.19599669514229E+00
(PID.TID 0000.0001)  ploadbar=  1.01101805468043E+05
 cg2d: Sum(rhs),rhsMax =  -4.50541348952630E+01  3.24923505339572E+00
(PID.TID 0000.0001)  ploadbar=  1.01101251260238E+05
 cg2d: Sum(rhs),rhsMax =  -4.43471739896178E+01  3.30096213214430E+00
(PID.TID 0000.0001)  ploadbar=  1.01101508482923E+05
 cg2d: Sum(rhs),rhsMax =  -4.36756541463360E+01  3.35165316769862E+00
(PID.TID 0000.0001)  ploadbar=  1.01101765705607E+05
 cg2d: Sum(rhs),rhsMax =  -4.30474718342466E+01  3.40050054626564E+00
(PID.TID 0000.0001)  ploadbar=  1.01102022928292E+05
 cg2d: Sum(rhs),rhsMax =  -4.24705485920733E+01  3.44662916251825E+00
(PID.TID 0000.0001)  ploadbar=  1.01102280150977E+05
 cg2d: Sum(rhs),rhsMax =  -4.19616919072171E+01  3.48835141116144E+00
(PID.TID 0000.0001)  ploadbar=  1.01102537373661E+05
 cg2d: Sum(rhs),rhsMax =  -4.15196460086902E+01  3.52539500337728E+00
(PID.TID 0000.0001)  ploadbar=  1.01102794596346E+05
 cg2d: Sum(rhs),rhsMax =  -4.11383194759423E+01  3.55795543371999E+00
(PID.TID 0000.0001)  ploadbar=  1.01101603175734E+05
 cg2d: Sum(rhs),rhsMax =  -4.08137882870195E+01  3.58609685345022E+00
(PID.TID 0000.0001)  ploadbar=  1.01100411755121E+05
 cg2d: Sum(rhs),rhsMax =  -4.05422076491723E+01  3.60992662017359E+00
(PID.TID 0000.0001)  ploadbar=  1.01099220334509E+05
 cg2d: Sum(rhs),rhsMax =  -4.03195608541647E+01  3.62961206235456E+00
(PID.TID 0000.0001)  ploadbar=  1.01098028913896E+05
 cg2d: Sum(rhs),rhsMax =  -4.01483220541764E+01  3.64477353239468E+00
(PID.TID 0000.0001)  ploadbar=  1.01096837493284E+05
 cg2d: Sum(rhs),rhsMax =  -4.00636979005405E+01  3.65207453737554E+00
(PID.TID 0000.0001)  ploadbar=  1.01095646072671E+05
 cg2d: Sum(rhs),rhsMax =  -4.00260312557054E+01  3.65523161663346E+00
(PID.TID 0000.0001)  ploadbar=  1.01095405107830E+05
 cg2d: Sum(rhs),rhsMax =  -4.00118746873614E+01  3.65633891598181E+00
(PID.TID 0000.0001)  ploadbar=  1.01095164142988E+05
 cg2d: Sum(rhs),rhsMax =  -4.00185115047121E+01  3.65562482872234E+00
(PID.TID 0000.0001)  ploadbar=  1.01094923178147E+05
 cg2d: Sum(rhs),rhsMax =  -4.00530025869486E+01  3.65243979898635E+00
(PID.TID 0000.0001)  ploadbar=  1.01094682213305E+05
 cg2d: Sum(rhs),rhsMax =  -4.01103705908673E+01  3.64724440950077E+00
(PID.TID 0000.0001)  ploadbar=  1.01094441248463E+05
 cg2d: Sum(rhs),rhsMax =  -4.01769337774939E+01  3.64130701291139E+00
(PID.TID 0000.0001)  ploadbar=  1.01094200283622E+05
 cg2d: Sum(rhs),rhsMax =  -4.02608583964022E+01  3.63381844493058E+00
(PID.TID 0000.0001)  ploadbar=  1.01092317698985E+05
 cg2d: Sum(rhs),rhsMax =  -4.06137895806790E+01  3.60229751507120E+00
(PID.TID 0000.0001)  ploadbar=  1.01090435114349E+05
 cg2d: Sum(rhs),rhsMax =  -4.12062696242678E+01  3.55050427427564E+00
(PID.TID 0000.0001)  ploadbar=  1.01088552529712E+05
 cg2d: Sum(rhs),rhsMax =  -4.20059007807349E+01  3.48287013199396E+00
(PID.TID 0000.0001)  ploadbar=  1.01086669945075E+05
 cg2d: Sum(rhs),rhsMax =  -4.31257246455339E+01  3.39233607920308E+00
(PID.TID 0000.0001)  ploadbar=  1.01084787360439E+05
 cg2d: Sum(rhs),rhsMax =  -4.43327228036991E+01  3.29982782732236E+00
(PID.TID 0000.0001)  ploadbar=  1.01082904775802E+05
 cg2d: Sum(rhs),rhsMax =  -4.50156437866622E+01  3.24962956188015E+00
(PID.TID 0000.0001)  ploadbar=  1.01080933697335E+05
 cg2d: Sum(rhs),rhsMax =  -4.57054207871268E+01  3.20044232479519E+00
(PID.TID 0000.0001)  ploadbar=  1.01078962618867E+05
 cg2d: Sum(rhs),rhsMax =  -4.63568822433402E+01  3.15530930614071E+00
(PID.TID 0000.0001)  ploadbar=  1.01076991540400E+05
 cg2d: Sum(rhs),rhsMax =  -4.69514390854594E+01  3.11517736287495E+00
(PID.TID 0000.0001)  ploadbar=  1.01075020461933E+05
 cg2d: Sum(rhs),rhsMax =  -4.74839553344803E+01  3.08003413218052E+00
(PID.TID 0000.0001)  ploadbar=  1.01073049383465E+05
 cg2d: Sum(rhs),rhsMax =  -4.79509861166356E+01  3.04977694206181E+00
(PID.TID 0000.0001)  ploadbar=  1.01071078304998E+05
 cg2d: Sum(rhs),rhsMax =  -4.83620301117909E+01  3.02358410722796E+00
(PID.TID 0000.0001)  ploadbar=  1.01069680016471E+05
 cg2d: Sum(rhs),rhsMax =  -4.87421128910137E+01  2.99970964768706E+00
(PID.TID 0000.0001)  ploadbar=  1.01068281727943E+05
 cg2d: Sum(rhs),rhsMax =  -4.90913628668620E+01  2.97803847834708E+00
(PID.TID 0000.0001)  ploadbar=  1.01066883439416E+05
 cg2d: Sum(rhs),rhsMax =  -4.94104372616068E+01  2.95844059282034E+00
(PID.TID 0000.0001)  ploadbar=  1.01065485150889E+05
 cg2d: Sum(rhs),rhsMax =  -4.97041119048617E+01  2.94055234258718E+00
(PID.TID 0000.0001)  ploadbar=  1.01064086862361E+05
 cg2d: Sum(rhs),rhsMax =  -4.99728869191187E+01  2.92428409041211E+00
(PID.TID 0000.0001)  ploadbar=  1.01062688573834E+05
 cg2d: Sum(rhs),rhsMax =  -5.02613170179283E+01  2.90715785571629E+00
(PID.TID 0000.0001)  ploadbar=  1.01061131135178E+05
 cg2d: Sum(rhs),rhsMax =  -5.05896565233896E+01  2.88801652880898E+00
(PID.TID 0000.0001)  ploadbar=  1.01059573696522E+05
 cg2d: Sum(rhs),rhsMax =  -5.09592719033084E+01  2.86685256930096E+00
(PID.TID 0000.0001)  ploadbar=  1.01058016257866E+05
 cg2d: Sum(rhs),rhsMax =  -5.13665896150523E+01  2.84394609265222E+00
(PID.TID 0000.0001)  ploadbar=  1.01056458819210E+05
 cg2d: Sum(rhs),rhsMax =  -5.18105981232868E+01  2.81943648962001E+00
(PID.TID 0000.0001)  ploadbar=  1.01054901380554E+05
 cg2d: Sum(rhs),rhsMax =  -5.22922759885057E+01  2.79336171754453E+00
(PID.TID 0000.0001)  ploadbar=  1.01053343941898E+05
 cg2d: Sum(rhs),rhsMax =  -5.28112987852235E+01  2.76580549523261E+00
(PID.TID 0000.0001)  ploadbar=  1.01052850953448E+05
 cg2d: Sum(rhs),rhsMax =  -5.33788260090278E+01  2.73628060018025E+00
(PID.TID 0000.0001)  ploadbar=  1.01052357964998E+05
 cg2d: Sum(rhs),rhsMax =  -5.40197328831092E+01  2.70367600986974E+00
(PID.TID 0000.0001)  ploadbar=  1.01051864976549E+05
 cg2d: Sum(rhs),rhsMax =  -5.47437288331481E+01  2.66775159893829E+00
(PID.TID 0000.0001)  ploadbar=  1.01051371988099E+05
 cg2d: Sum(rhs),rhsMax =  -5.55563578919098E+01  2.62852454037177E+00
(PID.TID 0000.0001)  ploadbar=  1.01050878999649E+05
 cg2d: Sum(rhs),rhsMax =  -5.64582059304837E+01  2.58628405645708E+00
(PID.TID 0000.0001)  ploadbar=  1.01050386011199E+05
 cg2d: Sum(rhs),rhsMax =  -5.74611084796559E+01  2.54093505295462E+00
(PID.TID 0000.0001)  ploadbar=  1.01049376001530E+05
 cg2d: Sum(rhs),rhsMax =  -5.85445402469788E+01  2.49373344797880E+00
(PID.TID 0000.0001)  ploadbar=  1.01048365991861E+05
 cg2d: Sum(rhs),rhsMax =  -5.97010139630579E+01  2.44526896050772E+00
(PID.TID 0000.0001)  ploadbar=  1.01047355982192E+05
 cg2d: Sum(rhs),rhsMax =  -6.09305182984860E+01  2.39578224975612E+00
(PID.TID 0000.0001)  ploadbar=  1.01046345972523E+05
 cg2d: Sum(rhs),rhsMax =  -6.22410526524582E+01  2.34519236039834E+00
(PID.TID 0000.0001)  ploadbar=  1.01045335962854E+05
 cg2d: Sum(rhs),rhsMax =  -6.36236651947077E+01  2.29406491642419E+00
(PID.TID 0000.0001)  ploadbar=  1.01044325953185E+05
 cg2d: Sum(rhs),rhsMax =  -6.50038527383542E+01  2.24519109073352E+00
(PID.TID 0000.0001)  ploadbar=  1.01044375167352E+05
 cg2d: Sum(rhs),rhsMax =  -6.63124517685318E+01  2.20070793252589E+00
(PID.TID 0000.0001)  ploadbar=  1.01044424381518E+05
 cg2d: Sum(rhs),rhsMax =  -6.74568027359932E+01  2.16317577770949E+00
(PID.TID 0000.0001)  ploadbar=  1.01044473595685E+05
 cg2d: Sum(rhs),rhsMax =  -6.84258454164085E+01  2.13231037437957E+00
(PID.TID 0000.0001)  ploadbar=  1.01044522809852E+05
 cg2d: Sum(rhs),rhsMax =  -6.92281112636958E+01  2.10733199778389E+00
(PID.TID 0000.0001)  ploadbar=  1.01044572024018E+05
 cg2d: Sum(rhs),rhsMax =  -6.99022457147624E+01  2.08670036506861E+00
(PID.TID 0000.0001)  ploadbar=  1.01044621238185E+05
 cg2d: Sum(rhs),rhsMax =  -7.05718761348046E+01  2.06669266087937E+00
(PID.TID 0000.0001)  ploadbar=  1.01044958477107E+05
 cg2d: Sum(rhs),rhsMax =  -7.12989747320327E+01  2.04548225884606E+00
(PID.TID 0000.0001)  ploadbar=  1.01045295716029E+05
 cg2d: Sum(rhs),rhsMax =  -7.20841881942603E+01  2.02312696298586E+00
(PID.TID 0000.0001)  ploadbar=  1.01045632954951E+05
 cg2d: Sum(rhs),rhsMax =  -7.29341970180738E+01  1.99952339940255E+00
(PID.TID 0000.0001)  ploadbar=  1.01045970193874E+05
 cg2d: Sum(rhs),rhsMax =  -7.38197738040516E+01  1.97555243901993E+00
(PID.TID 0000.0001)  ploadbar=  1.01046307432796E+05
 cg2d: Sum(rhs),rhsMax =  -7.47270491331245E+01  1.95162637534958E+00
(PID.TID 0000.0001)  ploadbar=  1.01046644671718E+05
 cg2d: Sum(rhs),rhsMax =  -7.57584394593255E+01  1.92507763946519E+00
(PID.TID 0000.0001)  ploadbar=  1.01047837092339E+05
 cg2d: Sum(rhs),rhsMax =  -7.70247608625502E+01  1.89339546119803E+00
(PID.TID 0000.0001)  ploadbar=  1.01049029512959E+05
 cg2d: Sum(rhs),rhsMax =  -7.85425723446748E+01  1.85672261104448E+00
(PID.TID 0000.0001)  ploadbar=  1.01050221933580E+05
 cg2d: Sum(rhs),rhsMax =  -7.84852114587433E+01  1.85794373117624E+00
(PID.TID 0000.0001)  ploadbar=  1.01051414354200E+05
 cg2d: Sum(rhs),rhsMax =  -7.84698586098017E+01  1.85811300644934E+00
(PID.TID 0000.0001)  ploadbar=  1.01052606774821E+05
 cg2d: Sum(rhs),rhsMax =  -7.84850071190987E+01  1.85749129414326E+00
(PID.TID 0000.0001)  ploadbar=  1.01053799195441E+05
 cg2d: Sum(rhs),rhsMax =  -7.85518879599628E+01  1.85566515628580E+00
(PID.TID 0000.0001)  ploadbar=  1.01054367768320E+05
 cg2d: Sum(rhs),rhsMax =  -7.86378387455853E+01  1.85340365596587E+00
(PID.TID 0000.0001)  ploadbar=  1.01054936341199E+05
 cg2d: Sum(rhs),rhsMax =  -7.87340319592910E+01  1.85091157574148E+00
(PID.TID 0000.0001)  ploadbar=  1.01055504914078E+05
 cg2d: Sum(rhs),rhsMax =  -7.88286252125747E+01  1.84846105373493E+00
(PID.TID 0000.0001)  ploadbar=  1.01056073486957E+05
 cg2d: Sum(rhs),rhsMax =  -7.89123478831631E+01  1.84626113242570E+00
(PID.TID 0000.0001)  ploadbar=  1.01056642059836E+05
 cg2d: Sum(rhs),rhsMax =  -7.89977205599342E+01  1.84400353031634E+00
(PID.TID 0000.0001)  ploadbar=  1.01057210632715E+05
 cg2d: Sum(rhs),rhsMax =  -7.90403673531602E+01  1.84275315902286E+00
(PID.TID 0000.0001)  ploadbar=  1.01057925722987E+05
 cg2d: Sum(rhs),rhsMax =  -7.90717037366820E+01  1.84176217690544E+00
(PID.TID 0000.0001)  ploadbar=  1.01058640813258E+05
 cg2d: Sum(rhs),rhsMax =  -7.91039890223016E+01  1.84073595418171E+00
(PID.TID 0000.0001)  ploadbar=  1.01059355903529E+05
 cg2d: Sum(rhs),rhsMax =  -7.91371737227346E+01  1.83967124128973E+00
(PID.TID 0000.0001)  ploadbar=  1.01060070993800E+05
 cg2d: Sum(rhs),rhsMax =  -7.91722243166892E+01  1.83854205426842E+00
(PID.TID 0000.0001)  ploadbar=  1.01060786084071E+05
 cg2d: Sum(rhs),rhsMax =  -7.92057465529085E+01  1.83742478943882E+00
(PID.TID 0000.0001)  ploadbar=  1.01061501174342E+05
 cg2d: Sum(rhs),rhsMax =  -7.92516305978804E+01  1.83612407530815E+00
(PID.TID 0000.0001)  ploadbar=  1.01062763897719E+05
 cg2d: Sum(rhs),rhsMax =  -7.93065169765080E+01  1.83468995271123E+00
(PID.TID 0000.0001)  ploadbar=  1.01064026621096E+05
 cg2d: Sum(rhs),rhsMax =  -7.93710752773344E+01  1.83309546070231E+00
(PID.TID 0000.0001)  ploadbar=  1.01065289344474E+05
 cg2d: Sum(rhs),rhsMax =  -7.94382294458171E+01  1.83149860230977E+00
(PID.TID 0000.0001)  ploadbar=  1.01066552067851E+05
 cg2d: Sum(rhs),rhsMax =  -7.94931171522053E+01  1.83023570636668E+00
(PID.TID 0000.0001)  ploadbar=  1.01067814791228E+05
 cg2d: Sum(rhs),rhsMax =  -7.95357368168663E+01  1.82930617123597E+00
(PID.TID 0000.0001)  ploadbar=  1.01069077514605E+05
 cg2d: Sum(rhs),rhsMax =  -7.95687735261511E+01  1.82857300586175E+00
(PID.TID 0000.0001)  ploadbar=  1.01069568281169E+05
 cg2d: Sum(rhs),rhsMax =  -7.96027257513074E+01  1.82778371867623E+00
(PID.TID 0000.0001)  ploadbar=  1.01070059047733E+05
 cg2d: Sum(rhs),rhsMax =  -7.96284658092620E+01  1.82714729384545E+00
(PID.TID 0000.0001)  ploadbar=  1.01070549814297E+05
 cg2d: Sum(rhs),rhsMax =  -7.96519022751235E+01  1.82652384082036E+00
(PID.TID 0000.0001)  ploadbar=  1.01071040580861E+05
 cg2d: Sum(rhs),rhsMax =  -7.96771237219400E+01  1.82581498106581E+00
(PID.TID 0000.0001)  ploadbar=  1.01071531347425E+05
 cg2d: Sum(rhs),rhsMax =  -7.97045716262690E+01  1.82499472697816E+00
(PID.TID 0000.0001)  ploadbar=  1.01072022113989E+05
 cg2d: Sum(rhs),rhsMax =  -7.97451837434719E+01  1.82388237088192E+00
(PID.TID 0000.0001)  ploadbar=  1.01071307574005E+05
 cg2d: Sum(rhs),rhsMax =  -7.97956440623463E+01  1.82254350577248E+00
(PID.TID 0000.0001)  ploadbar=  1.01070593034022E+05
 cg2d: Sum(rhs),rhsMax =  -7.98391402875949E+01  1.82135147164159E+00
(PID.TID 0000.0001)  ploadbar=  1.01069878494039E+05
 cg2d: Sum(rhs),rhsMax =  -7.98786139835902E+01  1.82023127615283E+00
(PID.TID 0000.0001)  ploadbar=  1.01069163954056E+05
 cg2d: Sum(rhs),rhsMax =  -7.99144047380320E+01  1.81916284499500E+00
(PID.TID 0000.0001)  ploadbar=  1.01068449414072E+05
 cg2d: Sum(rhs),rhsMax =  -7.99420115362679E+01  1.81823921418499E+00
(PID.TID 0000.0001)  ploadbar=  1.01067734874089E+05
 cg2d: Sum(rhs),rhsMax =  -7.99649764040303E+01  1.81740567808047E+00
(PID.TID 0000.0001)  ploadbar=  1.01067195335303E+05
 cg2d: Sum(rhs),rhsMax =  -7.99717703711132E+01  1.81691382877218E+00
(PID.TID 0000.0001)  ploadbar=  1.01066655796518E+05
 cg2d: Sum(rhs),rhsMax =  -7.99664769038157E+01  1.81666123664840E+00
(PID.TID 0000.0001)  ploadbar=  1.01066116257732E+05
 cg2d: Sum(rhs),rhsMax =  -7.99535606687597E+01  1.81654116476866E+00
(PID.TID 0000.0001)  ploadbar=  1.01065576718946E+05
 cg2d: Sum(rhs),rhsMax =  -7.99383590468067E+01  1.81642867345429E+00
(PID.TID 0000.0001)  ploadbar=  1.01065037180161E+05
 cg2d: Sum(rhs),rhsMax =  -7.99245570197865E+01  1.81623647389217E+00
(PID.TID 0000.0001)  ploadbar=  1.01064497641375E+05
 cg2d: Sum(rhs),rhsMax =  -7.99371439752797E+01  1.81554802942462E+00
(PID.TID 0000.0001)  ploadbar=  1.01063545672679E+05
 cg2d: Sum(rhs),rhsMax =  -7.99517246728444E+01  1.81489803860016E+00
(PID.TID 0000.0001)  ploadbar=  1.01062593703983E+05
 cg2d: Sum(rhs),rhsMax =  -7.99650963808784E+01  1.81433668120967E+00
(PID.TID 0000.0001)  ploadbar=  1.01061641735286E+05
 cg2d: Sum(rhs),rhsMax =  -7.99801939105342E+01  1.81378615829167E+00
(PID.TID 0000.0001)  ploadbar=  1.01060689766590E+05
 cg2d: Sum(rhs),rhsMax =  -7.99890940711870E+01  1.81342522238373E+00
(PID.TID 0000.0001)  ploadbar=  1.01059737797894E+05
 cg2d: Sum(rhs),rhsMax =  -7.99962229250564E+01  1.81314904426612E+00
(PID.TID 0000.0001)  ploadbar=  1.01058785829197E+05
 cg2d: Sum(rhs),rhsMax =  -7.99804694454112E+01  1.81339279966580E+00
(PID.TID 0000.0001)  ploadbar=  1.01057181167340E+05
 cg2d: Sum(rhs),rhsMax =  -7.99493493824771E+01  1.81397636837061E+00
(PID.TID 0000.0001)  ploadbar=  1.01055576505482E+05
 cg2d: Sum(rhs),rhsMax =  -7.99096186453223E+01  1.81474743222996E+00
(PID.TID 0000.0001)  ploadbar=  1.01053971843624E+05
 cg2d: Sum(rhs),rhsMax =  -7.98650103363971E+01  1.81562386050964E+00
(PID.TID 0000.0001)  ploadbar=  1.01052367181766E+05
 cg2d: Sum(rhs),rhsMax =  -7.98315878443894E+01  1.81623775288299E+00
(PID.TID 0000.0001)  ploadbar=  1.01050762519908E+05
 cg2d: Sum(rhs),rhsMax =  -7.98160792985401E+01  1.81642354838644E+00
(PID.TID 0000.0001)  ploadbar=  1.01049157858051E+05
 cg2d: Sum(rhs),rhsMax =  -7.97958112650932E+01  1.81674669109120E+00
(PID.TID 0000.0001)  ploadbar=  1.01046704035204E+05
 cg2d: Sum(rhs),rhsMax =  -7.97839158950976E+01  1.81689448093203E+00
(PID.TID 0000.0001)  ploadbar=  1.01044250212357E+05
 cg2d: Sum(rhs),rhsMax =  -7.97849768173668E+01  1.81675513104648E+00
(PID.TID 0000.0001)  ploadbar=  1.01041796389510E+05
 cg2d: Sum(rhs),rhsMax =  -7.97837243153124E+01  1.81666545373057E+00
(PID.TID 0000.0001)  ploadbar=  1.01039342566663E+05
 cg2d: Sum(rhs),rhsMax =  -7.97746087188472E+01  1.81673906413103E+00
(PID.TID 0000.0001)  ploadbar=  1.01036888743816E+05
 cg2d: Sum(rhs),rhsMax =  -7.97600125180113E+01  1.81690822172149E+00
(PID.TID 0000.0001)  ploadbar=  1.01034434920969E+05
 cg2d: Sum(rhs),rhsMax =  -7.97181466562738E+01  1.81768113977743E+00
(PID.TID 0000.0001)  ploadbar=  1.01033036701948E+05
 cg2d: Sum(rhs),rhsMax =  -7.96604164077046E+01  1.81878941366121E+00
(PID.TID 0000.0001)  ploadbar=  1.01031638482926E+05
 cg2d: Sum(rhs),rhsMax =  -7.95908073204789E+01  1.82013226022571E+00
(PID.TID 0000.0001)  ploadbar=  1.01030240263905E+05
 cg2d: Sum(rhs),rhsMax =  -7.95066707355294E+01  1.82175958989756E+00
(PID.TID 0000.0001)  ploadbar=  1.01028842044884E+05
 cg2d: Sum(rhs),rhsMax =  -7.94028123525716E+01  1.82378840939925E+00
(PID.TID 0000.0001)  ploadbar=  1.01027443825863E+05
 cg2d: Sum(rhs),rhsMax =  -7.92810555435705E+01  1.82617811452142E+00
(PID.TID 0000.0001)  ploadbar=  1.01026045606842E+05
 cg2d: Sum(rhs),rhsMax =  -7.91712397424055E+01  1.82838005572505E+00
(PID.TID 0000.0001)  ploadbar=  1.01025639326636E+05
 cg2d: Sum(rhs),rhsMax =  -7.90631241767530E+01  1.83061338893301E+00
(PID.TID 0000.0001)  ploadbar=  1.01025233046430E+05
 cg2d: Sum(rhs),rhsMax =  -7.89573291616404E+01  1.83284969568852E+00
(PID.TID 0000.0001)  ploadbar=  1.01024826766224E+05
 cg2d: Sum(rhs),rhsMax =  -7.88616767690274E+01  1.83489336835527E+00
(PID.TID 0000.0001)  ploadbar=  1.01024420486018E+05
 cg2d: Sum(rhs),rhsMax =  -7.87739161782323E+01  1.83678246167417E+00
(PID.TID 0000.0001)  ploadbar=  1.01024014205811E+05
 cg2d: Sum(rhs),rhsMax =  -7.86927860170088E+01  1.83853920048526E+00
(PID.TID 0000.0001)  ploadbar=  1.01023607925605E+05
 cg2d: Sum(rhs),rhsMax =  -7.86801668678252E+01  1.83866938256284E+00
(PID.TID 0000.0001)  ploadbar=  1.01024084654608E+05
 cg2d: Sum(rhs),rhsMax =  -7.86923801663386E+01  1.83818333205862E+00
(PID.TID 0000.0001)  ploadbar=  1.01024561383611E+05
 cg2d: Sum(rhs),rhsMax =  -7.87131129215303E+01  1.83745932588176E+00
(PID.TID 0000.0001)  ploadbar=  1.01025038112614E+05
 cg2d: Sum(rhs),rhsMax =  -7.87366133603330E+01  1.83662867027338E+00
(PID.TID 0000.0001)  ploadbar=  1.01025514841617E+05
 cg2d: Sum(rhs),rhsMax =  -7.87575850175718E+01  1.83580543889061E+00
(PID.TID 0000.0001)  ploadbar=  1.01025991570620E+05
 cg2d: Sum(rhs),rhsMax =  -7.87675078225447E+01  1.83517639442161E+00
(PID.TID 0000.0001)  ploadbar=  1.01026468299623E+05
 cg2d: Sum(rhs),rhsMax =  -7.88145078907296E+01  1.83372786419649E+00
(PID.TID 0000.0001)  ploadbar=  1.01026349296720E+05
 cg2d: Sum(rhs),rhsMax =  -7.89207870447585E+01  1.83093878281551E+00
(PID.TID 0000.0001)  ploadbar=  1.01026230293816E+05
 cg2d: Sum(rhs),rhsMax =  -7.90654600452994E+01  1.82729613974562E+00
(PID.TID 0000.0001)  ploadbar=  1.01026111290913E+05
 cg2d: Sum(rhs),rhsMax =  -7.92401425052081E+01  1.82299273609630E+00
(PID.TID 0000.0001)  ploadbar=  1.01025992288010E+05
 cg2d: Sum(rhs),rhsMax =  -7.94361064942910E+01  1.81821965468729E+00
(PID.TID 0000.0001)  ploadbar=  1.01025873285106E+05
 cg2d: Sum(rhs),rhsMax =  -7.96505980782996E+01  1.81302919584736E+00
(PID.TID 0000.0001)  ploadbar=  1.01025754282203E+05
 cg2d: Sum(rhs),rhsMax =  -7.98668335605885E+01  1.80780811214041E+00
(PID.TID 0000.0001)  ploadbar=  1.01024567189430E+05
 cg2d: Sum(rhs),rhsMax =  -8.01080097511334E+01  1.80202012736118E+00
(PID.TID 0000.0001)  ploadbar=  1.01023380096656E+05
 cg2d: Sum(rhs),rhsMax =  -8.03527888821820E+01  1.79614517554586E+00
(PID.TID 0000.0001)  ploadbar=  1.01022193003883E+05
 cg2d: Sum(rhs),rhsMax =  -8.06091170843494E+01  1.79000174685782E+00
(PID.TID 0000.0001)  ploadbar=  1.01021005911110E+05
 cg2d: Sum(rhs),rhsMax =  -8.08676557675774E+01  1.78379666014110E+00
(PID.TID 0000.0001)  ploadbar=  1.01019818818337E+05
 cg2d: Sum(rhs),rhsMax =  -8.11223977757396E+01  1.77765913773316E+00
(PID.TID 0000.0001)  ploadbar=  1.01018631725563E+05
 cg2d: Sum(rhs),rhsMax =  -8.13105584612830E+01  1.77311426314911E+00
(PID.TID 0000.0001)  ploadbar=  1.01017490181641E+05
 cg2d: Sum(rhs),rhsMax =  -8.14958763169921E+01  1.76873814768556E+00
(PID.TID 0000.0001)  ploadbar=  1.01016348637719E+05
 cg2d: Sum(rhs),rhsMax =  -8.16693241580459E+01  1.76471007008336E+00
(PID.TID 0000.0001)  ploadbar=  1.01015207093797E+05
 cg2d: Sum(rhs),rhsMax =  -8.18221031014798E+01  1.76120060773082E+00
(PID.TID 0000.0001)  ploadbar=  1.01014065549875E+05
 cg2d: Sum(rhs),rhsMax =  -8.19564761664345E+01  1.75814872188482E+00
(PID.TID 0000.0001)  ploadbar=  1.01012924005953E+05
 cg2d: Sum(rhs),rhsMax =  -8.20888000047295E+01  1.75519771998205E+00
(PID.TID 0000.0001)  ploadbar=  1.01011782462030E+05
 cg2d: Sum(rhs),rhsMax =  -8.20908438738022E+01  1.75506120620148E+00
(PID.TID 0000.0001)  ploadbar=  1.01010438487729E+05
 cg2d: Sum(rhs),rhsMax =  -8.20159827213476E+01  1.75658391101362E+00
(PID.TID 0000.0001)  ploadbar=  1.01009094513427E+05
 cg2d: Sum(rhs),rhsMax =  -8.19507698268771E+01  1.75791339819109E+00
(PID.TID 0000.0001)  ploadbar=  1.01007750539125E+05
 cg2d: Sum(rhs),rhsMax =  -8.20034882101415E+01  1.75672463709903E+00
(PID.TID 0000.0001)  ploadbar=  1.01006406564824E+05
 cg2d: Sum(rhs),rhsMax =  -8.22737292966309E+01  1.75090093541642E+00
(PID.TID 0000.0001)  ploadbar=  1.01005062590522E+05
 cg2d: Sum(rhs),rhsMax =  -8.27623908654796E+01  1.74050338479268E+00
(PID.TID 0000.0001)  ploadbar=  1.01003718616220E+05
 cg2d: Sum(rhs),rhsMax =  -8.33103074326168E+01  1.72903580250074E+00
(PID.TID 0000.0001)  ploadbar=  1.01002344153537E+05
 cg2d: Sum(rhs),rhsMax =  -8.38511190744572E+01  1.71789121743264E+00
(PID.TID 0000.0001)  ploadbar=  1.01000969690853E+05
 cg2d: Sum(rhs),rhsMax =  -8.43167458233808E+01  1.70842761003899E+00
(PID.TID 0000.0001)  ploadbar=  1.00999595228169E+05
 cg2d: Sum(rhs),rhsMax =  -8.47107857256645E+01  1.70050635482769E+00
(PID.TID 0000.0001)  ploadbar=  1.00998220765486E+05
 cg2d: Sum(rhs),rhsMax =  -8.51174419570557E+01  1.69239708660668E+00
(PID.TID 0000.0001)  ploadbar=  1.00996846302802E+05
 cg2d: Sum(rhs),rhsMax =  -8.53319254353854E+01  1.68813437489288E+00
(PID.TID 0000.0001)  ploadbar=  1.00995471840118E+05
 cg2d: Sum(rhs),rhsMax =  -8.52733748478403E+01  1.68926362076857E+00
(PID.TID 0000.0001)  ploadbar=  1.00994495286885E+05
 cg2d: Sum(rhs),rhsMax =  -8.52636963615984E+01  1.68939697298116E+00
(PID.TID 0000.0001)  ploadbar=  1.00993518733651E+05
 cg2d: Sum(rhs),rhsMax =  -8.52440069811459E+01  1.68969357596031E+00
(PID.TID 0000.0001)  ploadbar=  1.00992542180417E+05
 cg2d: Sum(rhs),rhsMax =  -8.51686069356106E+01  1.69105524576933E+00
(PID.TID 0000.0001)  ploadbar=  1.00991565627183E+05
 cg2d: Sum(rhs),rhsMax =  -8.50538894342591E+01  1.69315480569146E+00
(PID.TID 0000.0001)  ploadbar=  1.00990589073949E+05
 cg2d: Sum(rhs),rhsMax =  -8.49132089223093E+01  1.69572736642302E+00
(PID.TID 0000.0001)  ploadbar=  1.00989612520715E+05
 cg2d: Sum(rhs),rhsMax =  -8.48797529189300E+01  1.69626870601290E+00
(PID.TID 0000.0001)  ploadbar=  1.00989429139621E+05
 cg2d: Sum(rhs),rhsMax =  -8.48671110153553E+01  1.69648403458978E+00
(PID.TID 0000.0001)  ploadbar=  1.00989245758527E+05
 cg2d: Sum(rhs),rhsMax =  -8.48631727464996E+01  1.69659884923751E+00
(PID.TID 0000.0001)  ploadbar=  1.00989062377432E+05
 cg2d: Sum(rhs),rhsMax =  -8.48518356126040E+01  1.69692215934931E+00
(PID.TID 0000.0001)  ploadbar=  1.00988878996338E+05
 cg2d: Sum(rhs),rhsMax =  -8.48174464019028E+01  1.69774928135089E+00
(PID.TID 0000.0001)  ploadbar=  1.00988695615244E+05
 cg2d: Sum(rhs),rhsMax =  -8.47529525607480E+01  1.69921703991766E+00
(PID.TID 0000.0001)  ploadbar=  1.00988512234149E+05
 cg2d: Sum(rhs),rhsMax =  -8.44808145576893E+01  1.70485716726493E+00
(PID.TID 0000.0001)  ploadbar=  1.00989081207214E+05
 cg2d: Sum(rhs),rhsMax =  -8.41155524249798E+01  1.71240994608619E+00
(PID.TID 0000.0001)  ploadbar=  1.00989650180279E+05
 cg2d: Sum(rhs),rhsMax =  -8.36411716757194E+01  1.72225178237785E+00
(PID.TID 0000.0001)  ploadbar=  1.00990219153343E+05
 cg2d: Sum(rhs),rhsMax =  -8.30979037281334E+01  1.73361866046092E+00
(PID.TID 0000.0001)  ploadbar=  1.00990788126408E+05
 cg2d: Sum(rhs),rhsMax =  -8.25083100713474E+01  1.74608772511027E+00
(PID.TID 0000.0001)  ploadbar=  1.00991357099472E+05
 cg2d: Sum(rhs),rhsMax =  -8.18892127158175E+01  1.75933444329350E+00
(PID.TID 0000.0001)  ploadbar=  1.00991926072537E+05
 cg2d: Sum(rhs),rhsMax =  -8.10745417041823E+01  1.77705668141355E+00
(PID.TID 0000.0001)  ploadbar=  1.00993028721019E+05
 cg2d: Sum(rhs),rhsMax =  -8.01224521936288E+01  1.79820196337613E+00
(PID.TID 0000.0001)  ploadbar=  1.00994131369501E+05
 cg2d: Sum(rhs),rhsMax =  -7.90733944347987E+01  1.82205642650896E+00
(PID.TID 0000.0001)  ploadbar=  1.00995234017984E+05
 cg2d: Sum(rhs),rhsMax =  -7.80434977645387E+01  1.84605606721732E+00
(PID.TID 0000.0001)  ploadbar=  1.00996336666466E+05
 cg2d: Sum(rhs),rhsMax =  -7.70461102448959E+01  1.86985053658976E+00
(PID.TID 0000.0001)  ploadbar=  1.00997439314948E+05
 cg2d: Sum(rhs),rhsMax =  -7.60903285983898E+01  1.89316455774591E+00
(PID.TID 0000.0001)  ploadbar=  1.00998541963430E+05
 cg2d: Sum(rhs),rhsMax =  -7.52812294278950E+01  1.91330779938474E+00
(PID.TID 0000.0001)  ploadbar=  1.01001164703723E+05
 cg2d: Sum(rhs),rhsMax =  -7.46174917231694E+01  1.93008380180679E+00
(PID.TID 0000.0001)  ploadbar=  1.01003787444017E+05
 cg2d: Sum(rhs),rhsMax =  -7.40794677149540E+01  1.94380942432752E+00
(PID.TID 0000.0001)  ploadbar=  1.01006410184310E+05
 cg2d: Sum(rhs),rhsMax =  -7.36183351178324E+01  1.95563401270752E+00
(PID.TID 0000.0001)  ploadbar=  1.01009032924603E+05
 cg2d: Sum(rhs),rhsMax =  -7.32837219420174E+01  1.96414036769652E+00
(PID.TID 0000.0001)  ploadbar=  1.01011655664896E+05
 cg2d: Sum(rhs),rhsMax =  -6.85922491250793E+01  2.09794779652310E+00
(PID.TID 0000.0001)  ploadbar=  1.01014278405190E+05
 cg2d: Sum(rhs),rhsMax =  -6.45861552176509E+01  2.22764676309590E+00
(PID.TID 0000.0001)  ploadbar=  1.01016545521486E+05
 cg2d: Sum(rhs),rhsMax =  -6.07470669721717E+01  2.36809216285653E+00
(PID.TID 0000.0001)  ploadbar=  1.01018812637782E+05
 cg2d: Sum(rhs),rhsMax =  -5.69792413199321E+01  2.52440620086772E+00
(PID.TID 0000.0001)  ploadbar=  1.01021079754078E+05
 cg2d: Sum(rhs),rhsMax =  -5.34111702557535E+01  2.69279948424701E+00
(PID.TID 0000.0001)  ploadbar=  1.01023346870374E+05
 cg2d: Sum(rhs),rhsMax =  -5.00917937524986E+01  2.87103206150347E+00
(PID.TID 0000.0001)  ploadbar=  1.01025613986670E+05
 cg2d: Sum(rhs),rhsMax =  -4.70489102153811E+01  3.05655326320389E+00
(PID.TID 0000.0001)  ploadbar=  1.01027881102966E+05
 cg2d: Sum(rhs),rhsMax =  -4.43315068455469E+01  3.24377424203942E+00
(PID.TID 0000.0001)  ploadbar=  1.01030789601109E+05
 cg2d: Sum(rhs),rhsMax =  -4.19298049512742E+01  3.42943581619190E+00
(PID.TID 0000.0001)  ploadbar=  1.01033698099253E+05
 cg2d: Sum(rhs),rhsMax =  -3.98376376943932E+01  3.60936666755884E+00
(PID.TID 0000.0001)  ploadbar=  1.01036606597397E+05
 cg2d: Sum(rhs),rhsMax =  -3.80122897266800E+01  3.78246569121430E+00
(PID.TID 0000.0001)  ploadbar=  1.01039515095541E+05
 cg2d: Sum(rhs),rhsMax =  -3.64025359348660E+01  3.94944230045239E+00
(PID.TID 0000.0001)  ploadbar=  1.01042423593685E+05
 cg2d: Sum(rhs),rhsMax =  -3.49753888338611E+01  4.11022291594344E+00
(PID.TID 0000.0001)  ploadbar=  1.01045332091829E+05
 cg2d: Sum(rhs),rhsMax =  -3.37816412392068E+01  4.25509160699072E+00
(PID.TID 0000.0001)  ploadbar=  1.01047107492887E+05
 cg2d: Sum(rhs),rhsMax =  -3.28155504547097E+01  4.37995898319588E+00
(PID.TID 0000.0001)  ploadbar=  1.01048882893945E+05
 cg2d: Sum(rhs),rhsMax =  -3.20796420725585E+01  4.47997254795416E+00
(PID.TID 0000.0001)  ploadbar=  1.01050658295004E+05
 cg2d: Sum(rhs),rhsMax =  -3.15433401477084E+01  4.55557620564937E+00
(PID.TID 0000.0001)  ploadbar=  1.01052433696062E+05
 cg2d: Sum(rhs),rhsMax =  -3.11625994704382E+01  4.61053199401993E+00
(PID.TID 0000.0001)  ploadbar=  1.01054209097120E+05
 cg2d: Sum(rhs),rhsMax =  -3.08898636134562E+01  4.65036488861473E+00
(PID.TID 0000.0001)  ploadbar=  1.01055984498178E+05
 cg2d: Sum(rhs),rhsMax =  -3.06659124156730E+01  4.68341274536675E+00
(PID.TID 0000.0001)  ploadbar=  1.01058338061934E+05
 cg2d: Sum(rhs),rhsMax =  -3.04883141353278E+01  4.70971095583337E+00
(PID.TID 0000.0001)  ploadbar=  1.01060691625691E+05
 cg2d: Sum(rhs),rhsMax =  -3.03488084790087E+01  4.73028643949160E+00
(PID.TID 0000.0001)  ploadbar=  1.01063045189447E+05
 cg2d: Sum(rhs),rhsMax =  -3.02447069335211E+01  4.74538939723603E+00
(PID.TID 0000.0001)  ploadbar=  1.01065398753203E+05
 cg2d: Sum(rhs),rhsMax =  -3.01825803833126E+01  4.75386007869858E+00
(PID.TID 0000.0001)  ploadbar=  1.01067752316959E+05
 cg2d: Sum(rhs),rhsMax =  -3.01904470305584E+01  4.75120558613187E+00
(PID.TID 0000.0001)  ploadbar=  1.01070105880715E+05
 cg2d: Sum(rhs),rhsMax =  -3.04017203710370E+01  4.71704176379561E+00
(PID.TID 0000.0001)  ploadbar=  1.01071310237694E+05
 cg2d: Sum(rhs),rhsMax =  -3.07081205247467E+01  4.66904940105038E+00
(PID.TID 0000.0001)  ploadbar=  1.01072514594673E+05
 cg2d: Sum(rhs),rhsMax =  -3.10944327064968E+01  4.61028648927577E+00
(PID.TID 0000.0001)  ploadbar=  1.01073718951651E+05
 cg2d: Sum(rhs),rhsMax =  -3.15581352619616E+01  4.54191623245696E+00
(PID.TID 0000.0001)  ploadbar=  1.01074923308630E+05
 cg2d: Sum(rhs),rhsMax =  -3.21020501864479E+01  4.46443944348999E+00
(PID.TID 0000.0001)  ploadbar=  1.01076127665609E+05
 cg2d: Sum(rhs),rhsMax =  -3.27061620460136E+01  4.38153889671381E+00
(PID.TID 0000.0001)  ploadbar=  1.01077332022588E+05
 cg2d: Sum(rhs),rhsMax =  -3.28704067216347E+01  4.35924763308525E+00
(PID.TID 0000.0001)  ploadbar=  1.01077887013803E+05
 cg2d: Sum(rhs),rhsMax =  -3.30142672089813E+01  4.33987412281109E+00
(PID.TID 0000.0001)  ploadbar=  1.01078442005018E+05
 cg2d: Sum(rhs),rhsMax =  -3.31227851774112E+01  4.32527166563187E+00
(PID.TID 0000.0001)  ploadbar=  1.01078996996234E+05
 cg2d: Sum(rhs),rhsMax =  -3.31764616271917E+01  4.31786563154903E+00
(PID.TID 0000.0001)  ploadbar=  1.01079551987449E+05
 cg2d: Sum(rhs),rhsMax =  -3.31406854259544E+01  4.32207080955743E+00
(PID.TID 0000.0001)  ploadbar=  1.01080106978665E+05
 cg2d: Sum(rhs),rhsMax =  -3.30935258317978E+01  4.32769286728123E+00
(PID.TID 0000.0001)  ploadbar=  1.01080661969880E+05
 cg2d: Sum(rhs),rhsMax =  -3.32616916702959E+01  4.30525687126150E+00
(PID.TID 0000.0001)  ploadbar=  1.01080982710045E+05
 cg2d: Sum(rhs),rhsMax =  -3.35167999252906E+01  4.27189135752462E+00
(PID.TID 0000.0001)  ploadbar=  1.01081303450210E+05
 cg2d: Sum(rhs),rhsMax =  -3.37889237308379E+01  4.23681316323674E+00
(PID.TID 0000.0001)  ploadbar=  1.01081624190374E+05
 cg2d: Sum(rhs),rhsMax =  -3.40514717576106E+01  4.20336958081616E+00
(PID.TID 0000.0001)  ploadbar=  1.01081944930539E+05
 cg2d: Sum(rhs),rhsMax =  -3.43056966617173E+01  4.17132645265817E+00
(PID.TID 0000.0001)  ploadbar=  1.01082265670704E+05
 cg2d: Sum(rhs),rhsMax =  -3.45552028765334E+01  4.14018861131118E+00
(PID.TID 0000.0001)  ploadbar=  1.01082586410869E+05
 cg2d: Sum(rhs),rhsMax =  -3.48372399378743E+01  4.10567779659976E+00
(PID.TID 0000.0001)  ploadbar=  1.01082160799389E+05
 cg2d: Sum(rhs),rhsMax =  -3.51378639480149E+01  4.06955942914223E+00
(PID.TID 0000.0001)  ploadbar=  1.01081735187909E+05
 cg2d: Sum(rhs),rhsMax =  -3.54025185719283E+01  4.03813127030429E+00
(PID.TID 0000.0001)  ploadbar=  1.01081309576430E+05
 cg2d: Sum(rhs),rhsMax =  -3.56345267997022E+01  4.01081509419546E+00
(PID.TID 0000.0001)  ploadbar=  1.01080883964950E+05
 cg2d: Sum(rhs),rhsMax =  -3.60202285962145E+01  3.96682691667730E+00
(PID.TID 0000.0001)  ploadbar=  1.01080458353470E+05
 cg2d: Sum(rhs),rhsMax =  -3.63854661647568E+01  3.92593162684730E+00
(PID.TID 0000.0001)  ploadbar=  1.01080032741991E+05
 cg2d: Sum(rhs),rhsMax =  -3.68113672036453E+01  3.87964061682630E+00
(PID.TID 0000.0001)  ploadbar=  1.01079199508022E+05
 cg2d: Sum(rhs),rhsMax =  -3.72097945877678E+01  3.83740741030146E+00
(PID.TID 0000.0001)  ploadbar=  1.01078366274053E+05
 cg2d: Sum(rhs),rhsMax =  -3.75109668812946E+01  3.80605690064545E+00
(PID.TID 0000.0001)  ploadbar=  1.01077533040084E+05
 cg2d: Sum(rhs),rhsMax =  -3.77165139955931E+01  3.78489535581054E+00
(PID.TID 0000.0001)  ploadbar=  1.01076699806115E+05
 cg2d: Sum(rhs),rhsMax =  -3.78484253365584E+01  3.77137980574039E+00
(PID.TID 0000.0001)  ploadbar=  1.01075866572146E+05
 cg2d: Sum(rhs),rhsMax =  -3.79138206907841E+01  3.76462757159966E+00
(PID.TID 0000.0001)  ploadbar=  1.01075033338177E+05
 cg2d: Sum(rhs),rhsMax =  -3.80154144253105E+01  3.75434744273624E+00
(PID.TID 0000.0001)  ploadbar=  1.01074550733611E+05
 cg2d: Sum(rhs),rhsMax =  -3.82094869305777E+01  3.73506578821401E+00
(PID.TID 0000.0001)  ploadbar=  1.01074068129044E+05
 cg2d: Sum(rhs),rhsMax =  -3.85721955941118E+01  3.69972141864860E+00
(PID.TID 0000.0001)  ploadbar=  1.01073585524477E+05
 cg2d: Sum(rhs),rhsMax =  -3.91249480855703E+01  3.64720266573025E+00
(PID.TID 0000.0001)  ploadbar=  1.01073102919911E+05
 cg2d: Sum(rhs),rhsMax =  -3.97726384659154E+01  3.58751634028600E+00
(PID.TID 0000.0001)  ploadbar=  1.01072620315344E+05
 cg2d: Sum(rhs),rhsMax =  -4.05039477561670E+01  3.52239263215761E+00
(PID.TID 0000.0001)  ploadbar=  1.01072137710777E+05
 cg2d: Sum(rhs),rhsMax =  -4.13292659739601E+01  3.45175680219119E+00
(PID.TID 0000.0001)  ploadbar=  1.01072105149548E+05
 cg2d: Sum(rhs),rhsMax =  -4.22328619763448E+01  3.37764598494492E+00
(PID.TID 0000.0001)  ploadbar=  1.01072072588319E+05
 cg2d: Sum(rhs),rhsMax =  -4.32042503237327E+01  3.30145507761194E+00
(PID.TID 0000.0001)  ploadbar=  1.01072040027090E+05
 cg2d: Sum(rhs),rhsMax =  -4.42388128604558E+01  3.22397322574469E+00
(PID.TID 0000.0001)  ploadbar=  1.01072007465860E+05
 cg2d: Sum(rhs),rhsMax =  -4.53342511873733E+01  3.14575559050109E+00
(PID.TID 0000.0001)  ploadbar=  1.01071974904631E+05
 cg2d: Sum(rhs),rhsMax =  -4.64964388828786E+01  3.06676027170913E+00
(PID.TID 0000.0001)  ploadbar=  1.01071942343402E+05
 cg2d: Sum(rhs),rhsMax =  -4.76606445530528E+01  2.99146257528024E+00
(PID.TID 0000.0001)  ploadbar=  1.01071327913834E+05
 cg2d: Sum(rhs),rhsMax =  -4.87936297588460E+01  2.92157709369702E+00
(PID.TID 0000.0001)  ploadbar=  1.01070713484266E+05
 cg2d: Sum(rhs),rhsMax =  -4.98463284656369E+01  2.85940655777182E+00
(PID.TID 0000.0001)  ploadbar=  1.01070099054698E+05
 cg2d: Sum(rhs),rhsMax =  -5.07859193174973E+01  2.80596971056296E+00
(PID.TID 0000.0001)  ploadbar=  1.01069484625130E+05
 cg2d: Sum(rhs),rhsMax =  -5.15902978205861E+01  2.76161581270681E+00
(PID.TID 0000.0001)  ploadbar=  1.01068870195562E+05
 cg2d: Sum(rhs),rhsMax =  -5.22259584589030E+01  2.72732179698531E+00
(PID.TID 0000.0001)  ploadbar=  1.01068255765994E+05
 cg2d: Sum(rhs),rhsMax =  -5.27403177537663E+01  2.70020601409997E+00
(PID.TID 0000.0001)  ploadbar=  1.01068073246127E+05
 cg2d: Sum(rhs),rhsMax =  -5.31736034095660E+01  2.67782143860406E+00
(PID.TID 0000.0001)  ploadbar=  1.01067890726261E+05
 cg2d: Sum(rhs),rhsMax =  -5.35542421388827E+01  2.65851411061238E+00
(PID.TID 0000.0001)  ploadbar=  1.01067708206394E+05
 cg2d: Sum(rhs),rhsMax =  -5.38707041695754E+01  2.64269148331104E+00
(PID.TID 0000.0001)  ploadbar=  1.01067525686527E+05
 cg2d: Sum(rhs),rhsMax =  -5.41217168020946E+01  2.63028302601359E+00
(PID.TID 0000.0001)  ploadbar=  1.01067343166661E+05
 cg2d: Sum(rhs),rhsMax =  -5.43004273388219E+01  2.62152623691312E+00
(PID.TID 0000.0001)  ploadbar=  1.01067160646794E+05
 cg2d: Sum(rhs),rhsMax =  -5.44047902051962E+01  2.61641014055949E+00
(PID.TID 0000.0001)  ploadbar=  1.01067361060294E+05
 cg2d: Sum(rhs),rhsMax =  -5.44601332185682E+01  2.61365639710508E+00
(PID.TID 0000.0001)  ploadbar=  1.01067561473795E+05
 cg2d: Sum(rhs),rhsMax =  -5.44700211146919E+01  2.61307520478989E+00
(PID.TID 0000.0001)  ploadbar=  1.01067761887296E+05
 cg2d: Sum(rhs),rhsMax =  -5.44407021123186E+01  2.61436069141739E+00
(PID.TID 0000.0001)  ploadbar=  1.01067962300796E+05
 cg2d: Sum(rhs),rhsMax =  -5.43803135368402E+01  2.61711965665532E+00
(PID.TID 0000.0001)  ploadbar=  1.01068162714297E+05
 cg2d: Sum(rhs),rhsMax =  -5.42830635174089E+01  2.62163289942871E+00
(PID.TID 0000.0001)  ploadbar=  1.01068363127797E+05
 cg2d: Sum(rhs),rhsMax =  -5.42050242709966E+01  2.62527353685198E+00
(PID.TID 0000.0001)  ploadbar=  1.01069265232358E+05
 cg2d: Sum(rhs),rhsMax =  -5.41504752250567E+01  2.62780610378955E+00
(PID.TID 0000.0001)  ploadbar=  1.01070167336919E+05
 cg2d: Sum(rhs),rhsMax =  -5.41228063943640E+01  2.62903472825019E+00
(PID.TID 0000.0001)  ploadbar=  1.01071069441480E+05
 cg2d: Sum(rhs),rhsMax =  -5.41126456757315E+01  2.62938793940816E+00
(PID.TID 0000.0001)  ploadbar=  1.01071971546040E+05
 cg2d: Sum(rhs),rhsMax =  -5.41143449127837E+01  2.62911350699843E+00
(PID.TID 0000.0001)  ploadbar=  1.01072873650601E+05
 cg2d: Sum(rhs),rhsMax =  -5.41199692847627E+01  2.62857669727182E+00
(PID.TID 0000.0001)  ploadbar=  1.01073775755162E+05
 cg2d: Sum(rhs),rhsMax =  -5.41281773495659E+01  2.62789141788699E+00
(PID.TID 0000.0001)  ploadbar=  1.01074422790850E+05
 cg2d: Sum(rhs),rhsMax =  -5.41396169921234E+01  2.62701519164200E+00
(PID.TID 0000.0001)  ploadbar=  1.01075069826538E+05
 cg2d: Sum(rhs),rhsMax =  -5.41668936992247E+01  2.62532722443213E+00
(PID.TID 0000.0001)  ploadbar=  1.01075716862226E+05
 cg2d: Sum(rhs),rhsMax =  -5.42073306980747E+01  2.62295019272029E+00
(PID.TID 0000.0001)  ploadbar=  1.01076363897914E+05
 cg2d: Sum(rhs),rhsMax =  -5.42582969219139E+01  2.62000943490368E+00
(PID.TID 0000.0001)  ploadbar=  1.01077010933602E+05
 cg2d: Sum(rhs),rhsMax =  -5.43211951667074E+01  2.61643152176678E+00
(PID.TID 0000.0001)  ploadbar=  1.01077657969290E+05
 cg2d: Sum(rhs),rhsMax =  -5.44229855310179E+01  2.61114028221939E+00
(PID.TID 0000.0001)  ploadbar=  1.01077651943103E+05
 cg2d: Sum(rhs),rhsMax =  -5.45663700815777E+01  2.60399392479821E+00
(PID.TID 0000.0001)  ploadbar=  1.01077645916916E+05
 cg2d: Sum(rhs),rhsMax =  -5.47610835134085E+01  2.59452759564874E+00
(PID.TID 0000.0001)  ploadbar=  1.01077639890730E+05
 cg2d: Sum(rhs),rhsMax =  -5.50059008096251E+01  2.58284311307065E+00
(PID.TID 0000.0001)  ploadbar=  1.01077633864543E+05
 cg2d: Sum(rhs),rhsMax =  -5.52957956012040E+01  2.56923198658010E+00
(PID.TID 0000.0001)  ploadbar=  1.01077627838356E+05
 cg2d: Sum(rhs),rhsMax =  -5.56465132323218E+01  2.55303613423518E+00
(PID.TID 0000.0001)  ploadbar=  1.01077621812170E+05
 cg2d: Sum(rhs),rhsMax =  -5.60785622298213E+01  2.53334129904192E+00
(PID.TID 0000.0001)  ploadbar=  1.01079009584848E+05
 cg2d: Sum(rhs),rhsMax =  -5.66036714809376E+01  2.50977334235488E+00
(PID.TID 0000.0001)  ploadbar=  1.01080397357527E+05
 cg2d: Sum(rhs),rhsMax =  -5.72461013238542E+01  2.48149974474812E+00
(PID.TID 0000.0001)  ploadbar=  1.01081785130205E+05
 cg2d: Sum(rhs),rhsMax =  -5.80212234611694E+01  2.44819745088776E+00
(PID.TID 0000.0001)  ploadbar=  1.01083172902884E+05
 cg2d: Sum(rhs),rhsMax =  -5.89412050334778E+01  2.40978560460451E+00
(PID.TID 0000.0001)  ploadbar=  1.01084560675562E+05
 cg2d: Sum(rhs),rhsMax =  -6.00168298953287E+01  2.36633872953763E+00
(PID.TID 0000.0001)  ploadbar=  1.01085948448241E+05
 cg2d: Sum(rhs),rhsMax =  -6.11778106714342E+01  2.32120716736418E+00
(PID.TID 0000.0001)  ploadbar=  1.01086925408154E+05
 cg2d: Sum(rhs),rhsMax =  -6.23960944993234E+01  2.27567861965022E+00
(PID.TID 0000.0001)  ploadbar=  1.01087902368067E+05
 cg2d: Sum(rhs),rhsMax =  -6.36578434738102E+01  2.23037159219945E+00
(PID.TID 0000.0001)  ploadbar=  1.01088879327979E+05
 cg2d: Sum(rhs),rhsMax =  -6.49590804653806E+01  2.18547557856580E+00
(PID.TID 0000.0001)  ploadbar=  1.01089856287892E+05
 cg2d: Sum(rhs),rhsMax =  -6.62933039492185E+01  2.14122598017968E+00
(PID.TID 0000.0001)  ploadbar=  1.01090833247805E+05
 cg2d: Sum(rhs),rhsMax =  -6.76473420520854E+01  2.09804682131311E+00
(PID.TID 0000.0001)  ploadbar=  1.01091810207718E+05
 cg2d: Sum(rhs),rhsMax =  -6.90035209493343E+01  2.05651968733043E+00
(PID.TID 0000.0001)  ploadbar=  1.01091670770936E+05
 cg2d: Sum(rhs),rhsMax =  -7.03653485138435E+01  2.01643343094979E+00
(PID.TID 0000.0001)  ploadbar=  1.01091531334153E+05
 cg2d: Sum(rhs),rhsMax =  -7.17241154186476E+01  1.97794311517399E+00
(PID.TID 0000.0001)  ploadbar=  1.01091391897371E+05
 cg2d: Sum(rhs),rhsMax =  -7.30793362503976E+01  1.94095447340348E+00
(PID.TID 0000.0001)  ploadbar=  1.01091252460589E+05
 cg2d: Sum(rhs),rhsMax =  -7.44327935896094E+01  1.90532676579366E+00
(PID.TID 0000.0001)  ploadbar=  1.01091113023807E+05
 cg2d: Sum(rhs),rhsMax =  -7.57855526501745E+01  1.87094965738074E+00
(PID.TID 0000.0001)  ploadbar=  1.01090973587025E+05
 cg2d: Sum(rhs),rhsMax =  -7.72857352455876E+01  1.83437860127964E+00
(PID.TID 0000.0001)  ploadbar=  1.01090315171361E+05
 cg2d: Sum(rhs),rhsMax =  -7.89957724169140E+01  1.79450437494234E+00
(PID.TID 0000.0001)  ploadbar=  1.01089656755698E+05
 cg2d: Sum(rhs),rhsMax =  -8.09706847689483E+01  1.75063239052756E+00
(PID.TID 0000.0001)  ploadbar=  1.01088998340034E+05
 cg2d: Sum(rhs),rhsMax =  -8.33252480204587E+01  1.70111017753421E+00
(PID.TID 0000.0001)  ploadbar=  1.01088339924371E+05
 cg2d: Sum(rhs),rhsMax =  -8.60553115820216E+01  1.64713291035546E+00
(PID.TID 0000.0001)  ploadbar=  1.01087681508708E+05
 cg2d: Sum(rhs),rhsMax =  -8.82418722952815E+01  1.60633983143441E+00
(PID.TID 0000.0001)  ploadbar=  1.01087023093044E+05
 cg2d: Sum(rhs),rhsMax =  -8.60613986944589E+01  1.64707031328707E+00
(PID.TID 0000.0001)  ploadbar=  1.01087268087877E+05
 cg2d: Sum(rhs),rhsMax =  -8.40183963619424E+01  1.68715694944153E+00
(PID.TID 0000.0001)  ploadbar=  1.01087513082710E+05
 cg2d: Sum(rhs),rhsMax =  -8.22154953894702E+01  1.72419239492751E+00
(PID.TID 0000.0001)  ploadbar=  1.01087758077542E+05
 cg2d: Sum(rhs),rhsMax =  -8.06154083101436E+01  1.75845341881514E+00
(PID.TID 0000.0001)  ploadbar=  1.01088003072375E+05
 cg2d: Sum(rhs),rhsMax =  -7.91403657840352E+01  1.79125412293247E+00
(PID.TID 0000.0001)  ploadbar=  1.01088248067208E+05
 cg2d: Sum(rhs),rhsMax =  -7.77392318545114E+01  1.82354267472684E+00
(PID.TID 0000.0001)  ploadbar=  1.01088493062040E+05
 cg2d: Sum(rhs),rhsMax =  -7.64968788773060E+01  1.85319251553836E+00
(PID.TID 0000.0001)  ploadbar=  1.01088111225146E+05
 cg2d: Sum(rhs),rhsMax =  -7.54274003792025E+01  1.87951601404508E+00
(PID.TID 0000.0001)  ploadbar=  1.01087729388251E+05
 cg2d: Sum(rhs),rhsMax =  -7.45398374530661E+01  1.90194132869791E+00
(PID.TID 0000.0001)  ploadbar=  1.01087347551357E+05
 cg2d: Sum(rhs),rhsMax =  -7.38322195335019E+01  1.92019699418787E+00
(PID.TID 0000.0001)  ploadbar=  1.01086965714462E+05
 cg2d: Sum(rhs),rhsMax =  -7.32996208194428E+01  1.93414038581755E+00
(PID.TID 0000.0001)  ploadbar=  1.01086583877568E+05
 cg2d: Sum(rhs),rhsMax =  -7.29283322892947E+01  1.94393207516241E+00
(PID.TID 0000.0001)  ploadbar=  1.01086202040674E+05
 cg2d: Sum(rhs),rhsMax =  -7.26676195173617E+01  1.95086711928352E+00
(PID.TID 0000.0001)  ploadbar=  1.01086535921007E+05
 cg2d: Sum(rhs),rhsMax =  -7.24781752608890E+01  1.95593102603867E+00
(PID.TID 0000.0001)  ploadbar=  1.01086869801341E+05
 cg2d: Sum(rhs),rhsMax =  -7.23348642845433E+01  1.95976801756548E+00
(PID.TID 0000.0001)  ploadbar=  1.01087203681674E+05
 cg2d: Sum(rhs),rhsMax =  -7.22138585838498E+01  1.96300083999319E+00
(PID.TID 0000.0001)  ploadbar=  1.01087537562008E+05
 cg2d: Sum(rhs),rhsMax =  -7.20962390128585E+01  1.96612517036160E+00
(PID.TID 0000.0001)  ploadbar=  1.01087871442341E+05
 cg2d: Sum(rhs),rhsMax =  -7.19725439168496E+01  1.96939168596289E+00
(PID.TID 0000.0001)  ploadbar=  1.01088205322675E+05
 cg2d: Sum(rhs),rhsMax =  -7.17677831261806E+01  1.97497656496418E+00
(PID.TID 0000.0001)  ploadbar=  1.01087725972228E+05
 cg2d: Sum(rhs),rhsMax =  -7.14052814039368E+01  1.98502569430850E+00
(PID.TID 0000.0001)  ploadbar=  1.01087246621782E+05
 cg2d: Sum(rhs),rhsMax =  -7.08812784405448E+01  1.99974781063241E+00
(PID.TID 0000.0001)  ploadbar=  1.01086767271335E+05
 cg2d: Sum(rhs),rhsMax =  -7.02928269722220E+01  2.01654623544908E+00
(PID.TID 0000.0001)  ploadbar=  1.01086287920889E+05
 cg2d: Sum(rhs),rhsMax =  -7.00525731903972E+01  2.02351147681988E+00
(PID.TID 0000.0001)  ploadbar=  1.01085808570442E+05
 cg2d: Sum(rhs),rhsMax =  -7.00844592510014E+01  2.02261917957428E+00
(PID.TID 0000.0001)  ploadbar=  1.01085329219996E+05
 cg2d: Sum(rhs),rhsMax =  -7.01919930458210E+01  2.01953614450780E+00
(PID.TID 0000.0001)  ploadbar=  1.01085317849964E+05
 cg2d: Sum(rhs),rhsMax =  -7.03076902706069E+01  2.01620332017403E+00
(PID.TID 0000.0001)  ploadbar=  1.01085306479932E+05
 cg2d: Sum(rhs),rhsMax =  -7.03741472327975E+01  2.01425894428171E+00
(PID.TID 0000.0001)  ploadbar=  1.01085295109901E+05
 cg2d: Sum(rhs),rhsMax =  -7.03510680757934E+01  2.01484361213530E+00
(PID.TID 0000.0001)  ploadbar=  1.01085283739869E+05
 cg2d: Sum(rhs),rhsMax =  -7.02150414739893E+01  2.01862377570132E+00
(PID.TID 0000.0001)  ploadbar=  1.01085272369837E+05
 cg2d: Sum(rhs),rhsMax =  -6.99513732374752E+01  2.02604805266468E+00
(PID.TID 0000.0001)  ploadbar=  1.01085260999805E+05
 cg2d: Sum(rhs),rhsMax =  -6.95970149726973E+01  2.03619816134856E+00
(PID.TID 0000.0001)  ploadbar=  1.01083852654049E+05
 cg2d: Sum(rhs),rhsMax =  -6.91778982328957E+01  2.04837316364925E+00
(PID.TID 0000.0001)  ploadbar=  1.01082444308292E+05
 cg2d: Sum(rhs),rhsMax =  -6.87395392642593E+01  2.06126854977511E+00
(PID.TID 0000.0001)  ploadbar=  1.01081035962535E+05
 cg2d: Sum(rhs),rhsMax =  -6.83200603526476E+01  2.07373618629825E+00
(PID.TID 0000.0001)  ploadbar=  1.01079627616778E+05
 cg2d: Sum(rhs),rhsMax =  -6.79363144952489E+01  2.08522126343845E+00
(PID.TID 0000.0001)  ploadbar=  1.01078219271022E+05
 cg2d: Sum(rhs),rhsMax =  -6.75986957915207E+01  2.09535358815755E+00
(PID.TID 0000.0001)  ploadbar=  1.01076810925265E+05
 cg2d: Sum(rhs),rhsMax =  -6.73261324067893E+01  2.10357905082891E+00
(PID.TID 0000.0001)  ploadbar=  1.01076020861471E+05
 cg2d: Sum(rhs),rhsMax =  -6.71301882631004E+01  2.10947864021694E+00
(PID.TID 0000.0001)  ploadbar=  1.01075230797678E+05
 cg2d: Sum(rhs),rhsMax =  -6.70040617181295E+01  2.11321997955482E+00
(PID.TID 0000.0001)  ploadbar=  1.01074440733885E+05
 cg2d: Sum(rhs),rhsMax =  -6.69382083974182E+01  2.11507067572556E+00
(PID.TID 0000.0001)  ploadbar=  1.01073650670091E+05
 cg2d: Sum(rhs),rhsMax =  -6.69255841642628E+01  2.11523551914509E+00
(PID.TID 0000.0001)  ploadbar=  1.01072860606298E+05
 cg2d: Sum(rhs),rhsMax =  -6.69599747164869E+01  2.11389756932417E+00
(PID.TID 0000.0001)  ploadbar=  1.01072070542504E+05
 cg2d: Sum(rhs),rhsMax =  -6.70333787322055E+01  2.11142454438440E+00
(PID.TID 0000.0001)  ploadbar=  1.01072644046058E+05
 cg2d: Sum(rhs),rhsMax =  -6.71402408680997E+01  2.10796734811892E+00
(PID.TID 0000.0001)  ploadbar=  1.01073217549613E+05
 cg2d: Sum(rhs),rhsMax =  -6.72784258925693E+01  2.10357106895275E+00
(PID.TID 0000.0001)  ploadbar=  1.01073791053167E+05
 cg2d: Sum(rhs),rhsMax =  -6.74479476981257E+01  2.09823235588674E+00
(PID.TID 0000.0001)  ploadbar=  1.01074364556721E+05
 cg2d: Sum(rhs),rhsMax =  -6.76513692482088E+01  2.09187895781248E+00
(PID.TID 0000.0001)  ploadbar=  1.01074938060275E+05
 cg2d: Sum(rhs),rhsMax =  -6.78882476798400E+01  2.08454039495748E+00
(PID.TID 0000.0001)  ploadbar=  1.01075511563829E+05
 cg2d: Sum(rhs),rhsMax =  -6.81309912448147E+01  2.07708001175567E+00
(PID.TID 0000.0001)  ploadbar=  1.01075732430884E+05
 cg2d: Sum(rhs),rhsMax =  -6.83648748279235E+01  2.06994683165826E+00
(PID.TID 0000.0001)  ploadbar=  1.01075953297939E+05
 cg2d: Sum(rhs),rhsMax =  -6.85794157897314E+01  2.06345134742391E+00
(PID.TID 0000.0001)  ploadbar=  1.01076174164994E+05
 cg2d: Sum(rhs),rhsMax =  -6.87766825854979E+01  2.05751767459182E+00
(PID.TID 0000.0001)  ploadbar=  1.01076395032049E+05
 cg2d: Sum(rhs),rhsMax =  -6.89592165859304E+01  2.05204068936025E+00
(PID.TID 0000.0001)  ploadbar=  1.01076615899104E+05
 cg2d: Sum(rhs),rhsMax =  -6.91230069575929E+01  2.04711491826944E+00
(PID.TID 0000.0001)  ploadbar=  1.01076836766159E+05
 cg2d: Sum(rhs),rhsMax =  -6.92850124952286E+01  2.04227755864570E+00
(PID.TID 0000.0001)  ploadbar=  1.01077295934017E+05
 cg2d: Sum(rhs),rhsMax =  -6.94581429844368E+01  2.03713009837633E+00
(PID.TID 0000.0001)  ploadbar=  1.01077755101876E+05
 cg2d: Sum(rhs),rhsMax =  -6.96671913381192E+01  2.03094368929323E+00
(PID.TID 0000.0001)  ploadbar=  1.01078214269735E+05
 cg2d: Sum(rhs),rhsMax =  -6.99433159542558E+01  2.02282439956933E+00
(PID.TID 0000.0001)  ploadbar=  1.01078673437593E+05
 cg2d: Sum(rhs),rhsMax =  -7.03208891585848E+01  2.01182079136046E+00
(PID.TID 0000.0001)  ploadbar=  1.01079132605452E+05
 cg2d: Sum(rhs),rhsMax =  -7.08162257824047E+01  1.99754689147344E+00
(PID.TID 0000.0001)  ploadbar=  1.01079591773311E+05
 cg2d: Sum(rhs),rhsMax =  -7.15505537951125E+01  1.97687838976240E+00
(PID.TID 0000.0001)  ploadbar=  1.01080115811629E+05
 cg2d: Sum(rhs),rhsMax =  -7.25067554775305E+01  1.95066312650477E+00
(PID.TID 0000.0001)  ploadbar=  1.01080639849948E+05
 cg2d: Sum(rhs),rhsMax =  -7.36574030449884E+01  1.92005218736528E+00
(PID.TID 0000.0001)  ploadbar=  1.01081163888266E+05
 cg2d: Sum(rhs),rhsMax =  -7.49681819028486E+01  1.88633877772515E+00
(PID.TID 0000.0001)  ploadbar=  1.01081687926585E+05
 cg2d: Sum(rhs),rhsMax =  -7.64028805652750E+01  1.85076996284923E+00
(PID.TID 0000.0001)  ploadbar=  1.01082211964903E+05
 cg2d: Sum(rhs),rhsMax =  -7.79260621312929E+01  1.81443767673973E+00
(PID.TID 0000.0001)  ploadbar=  1.01082736003221E+05
 cg2d: Sum(rhs),rhsMax =  -7.95655110558312E+01  1.77697122657328E+00
(PID.TID 0000.0001)  ploadbar=  1.01083171392902E+05
 cg2d: Sum(rhs),rhsMax =  -8.13286076593558E+01  1.73840351207096E+00
(PID.TID 0000.0001)  ploadbar=  1.01083606782583E+05
 cg2d: Sum(rhs),rhsMax =  -8.32554420326649E+01  1.69814797065718E+00
(PID.TID 0000.0001)  ploadbar=  1.01084042172264E+05
 cg2d: Sum(rhs),rhsMax =  -8.53968713850656E+01  1.65556346237328E+00
(PID.TID 0000.0001)  ploadbar=  1.01084477561946E+05
 cg2d: Sum(rhs),rhsMax =  -8.78010269514612E+01  1.61024537975490E+00
(PID.TID 0000.0001)  ploadbar=  1.01084912951627E+05
 cg2d: Sum(rhs),rhsMax =  -9.05076751955025E+01  1.56211852350580E+00
(PID.TID 0000.0001)  ploadbar=  1.01085348341308E+05
 cg2d: Sum(rhs),rhsMax =  -9.33804235949726E+01  1.51410841765913E+00
(PID.TID 0000.0001)  ploadbar=  1.01086110034529E+05
 cg2d: Sum(rhs),rhsMax =  -9.63293992342053E+01  1.46781894466560E+00
(PID.TID 0000.0001)  ploadbar=  1.01086871727751E+05
 cg2d: Sum(rhs),rhsMax =  -9.92513841252270E+01  1.42468713739133E+00
(PID.TID 0000.0001)  ploadbar=  1.01087633420972E+05
 cg2d: Sum(rhs),rhsMax =  -1.01972020327232E+02  1.38676368863976E+00
(PID.TID 0000.0001)  ploadbar=  1.01088395114194E+05
 cg2d: Sum(rhs),rhsMax =  -1.04687983992492E+02  1.35086464294288E+00
(PID.TID 0000.0001)  ploadbar=  1.01089156807416E+05
 cg2d: Sum(rhs),rhsMax =  -1.06962057918885E+02  1.32220227483242E+00
(PID.TID 0000.0001)  ploadbar=  1.01089918500637E+05
 cg2d: Sum(rhs),rhsMax =  -1.09085922814953E+02  1.29652341777976E+00
(PID.TID 0000.0001)  ploadbar=  1.01089747346356E+05
 cg2d: Sum(rhs),rhsMax =  -1.11192282504690E+02  1.27202215025897E+00
(PID.TID 0000.0001)  ploadbar=  1.01089576192075E+05
 cg2d: Sum(rhs),rhsMax =  -1.13426643577135E+02  1.24700816023304E+00
(PID.TID 0000.0001)  ploadbar=  1.01089405037794E+05
 cg2d: Sum(rhs),rhsMax =  -1.15925957674740E+02  1.22014266297153E+00
(PID.TID 0000.0001)  ploadbar=  1.01089233883513E+05
 cg2d: Sum(rhs),rhsMax =  -1.18797830324633E+02  1.19063772711155E+00
(PID.TID 0000.0001)  ploadbar=  1.01089062729232E+05
 cg2d: Sum(rhs),rhsMax =  -1.22144690479981E+02  1.15797781909534E+00
(PID.TID 0000.0001)  ploadbar=  1.01088891574951E+05
 cg2d: Sum(rhs),rhsMax =  -1.24647351084039E+02  1.13470213662997E+00
(PID.TID 0000.0001)  ploadbar=  1.01087897234371E+05
 cg2d: Sum(rhs),rhsMax =  -1.25252366511366E+02  1.12919499746926E+00
(PID.TID 0000.0001)  ploadbar=  1.01086902893790E+05
 cg2d: Sum(rhs),rhsMax =  -1.25993620195303E+02  1.12252364809675E+00
(PID.TID 0000.0001)  ploadbar=  1.01085908553209E+05
 cg2d: Sum(rhs),rhsMax =  -1.26790742963830E+02  1.11542706913041E+00
(PID.TID 0000.0001)  ploadbar=  1.01084914212628E+05
 cg2d: Sum(rhs),rhsMax =  -1.27514717597841E+02  1.10903339219381E+00
(PID.TID 0000.0001)  ploadbar=  1.01083919872048E+05
 cg2d: Sum(rhs),rhsMax =  -1.27948140817305E+02  1.10518947584026E+00
(PID.TID 0000.0001)  ploadbar=  1.01082925531467E+05
 cg2d: Sum(rhs),rhsMax =  -1.28674551269880E+02  1.09889758521790E+00
(PID.TID 0000.0001)  ploadbar=  1.01082320228132E+05
 cg2d: Sum(rhs),rhsMax =  -1.29035092507449E+02  1.09578900350088E+00
(PID.TID 0000.0001)  ploadbar=  1.01081714924797E+05
 cg2d: Sum(rhs),rhsMax =  -1.29435904881465E+02  1.09236809295928E+00
(PID.TID 0000.0001)  ploadbar=  1.01081109621463E+05
 cg2d: Sum(rhs),rhsMax =  -1.29965368484931E+02  1.08790073504802E+00
(PID.TID 0000.0001)  ploadbar=  1.01080504318128E+05
 cg2d: Sum(rhs),rhsMax =  -1.30829924597092E+02  1.08070480955399E+00
(PID.TID 0000.0001)  ploadbar=  1.01079899014793E+05
 cg2d: Sum(rhs),rhsMax =  -1.32281328263949E+02  1.06885042049999E+00
(PID.TID 0000.0001)  ploadbar=  1.01079293711459E+05
 cg2d: Sum(rhs),rhsMax =  -1.32384470374138E+02  1.06803659029330E+00
(PID.TID 0000.0001)  ploadbar=  1.01078429904125E+05
 cg2d: Sum(rhs),rhsMax =  -1.32444172523801E+02  1.06758297042148E+00
(PID.TID 0000.0001)  ploadbar=  1.01077566096792E+05
 cg2d: Sum(rhs),rhsMax =  -1.32474220960941E+02  1.06737510787654E+00
(PID.TID 0000.0001)  ploadbar=  1.01076702289458E+05
 cg2d: Sum(rhs),rhsMax =  -1.32484641564912E+02  1.06732845671751E+00
(PID.TID 0000.0001)  ploadbar=  1.01075838482125E+05
 cg2d: Sum(rhs),rhsMax =  -1.30435596223761E+02  1.08413388564304E+00
(PID.TID 0000.0001)  ploadbar=  1.01074974674791E+05
 cg2d: Sum(rhs),rhsMax =  -1.27901162674043E+02  1.10565215191634E+00
(PID.TID 0000.0001)  ploadbar=  1.01074110867458E+05
 cg2d: Sum(rhs),rhsMax =  -1.25148368867334E+02  1.12999923523885E+00
(PID.TID 0000.0001)  ploadbar=  1.01073057279495E+05
 cg2d: Sum(rhs),rhsMax =  -1.22516521967995E+02  1.15427866482717E+00
(PID.TID 0000.0001)  ploadbar=  1.01072003691532E+05
 cg2d: Sum(rhs),rhsMax =  -1.21166976475978E+02  1.16710784140532E+00
(PID.TID 0000.0001)  ploadbar=  1.01070950103569E+05
 cg2d: Sum(rhs),rhsMax =  -1.20577773977602E+02  1.17274713856604E+00
(PID.TID 0000.0001)  ploadbar=  1.01069896515607E+05
 cg2d: Sum(rhs),rhsMax =  -1.19840654943482E+02  1.17985762862905E+00
(PID.TID 0000.0001)  ploadbar=  1.01068842927644E+05
 cg2d: Sum(rhs),rhsMax =  -1.19057205042696E+02  1.18747502836982E+00
(PID.TID 0000.0001)  ploadbar=  1.01067789339681E+05
 cg2d: Sum(rhs),rhsMax =  -1.19004179059611E+02  1.18784882212405E+00
(PID.TID 0000.0001)  ploadbar=  1.01067341780322E+05
 cg2d: Sum(rhs),rhsMax =  -1.19300432827964E+02  1.18473242832989E+00
(PID.TID 0000.0001)  ploadbar=  1.01066894220962E+05
 cg2d: Sum(rhs),rhsMax =  -1.17604280117132E+02  1.20163163242224E+00
(PID.TID 0000.0001)  ploadbar=  1.01066446661603E+05
 cg2d: Sum(rhs),rhsMax =  -1.14926179737121E+02  1.22941819684308E+00
(PID.TID 0000.0001)  ploadbar=  1.01065999102244E+05
 cg2d: Sum(rhs),rhsMax =  -1.12676584473202E+02  1.25371710556673E+00
(PID.TID 0000.0001)  ploadbar=  1.01065551542884E+05
 cg2d: Sum(rhs),rhsMax =  -1.10776136575036E+02  1.27494456307903E+00
(PID.TID 0000.0001)  ploadbar=  1.01065103983525E+05
 cg2d: Sum(rhs),rhsMax =  -1.09080259003346E+02  1.29452560815331E+00
(PID.TID 0000.0001)  ploadbar=  1.01064135629359E+05
 cg2d: Sum(rhs),rhsMax =  -1.07646835103482E+02  1.31154771428865E+00
(PID.TID 0000.0001)  ploadbar=  1.01063167275193E+05
 cg2d: Sum(rhs),rhsMax =  -1.06384478797555E+02  1.32691552170346E+00
(PID.TID 0000.0001)  ploadbar=  1.01062198921027E+05
 cg2d: Sum(rhs),rhsMax =  -1.05274649801544E+02  1.34072553917624E+00
(PID.TID 0000.0001)  ploadbar=  1.01061230566860E+05
 cg2d: Sum(rhs),rhsMax =  -1.04304633769498E+02  1.35302922078276E+00
(PID.TID 0000.0001)  ploadbar=  1.01060262212694E+05
 cg2d: Sum(rhs),rhsMax =  -1.03471104245254E+02  1.36378185704510E+00
(PID.TID 0000.0001)  ploadbar=  1.01059293858528E+05
 cg2d: Sum(rhs),rhsMax =  -1.02790067149137E+02  1.37269132848704E+00
(PID.TID 0000.0001)  ploadbar=  1.01058827564707E+05
 cg2d: Sum(rhs),rhsMax =  -1.02251888304025E+02  1.37980511505531E+00
(PID.TID 0000.0001)  ploadbar=  1.01058361270887E+05
 cg2d: Sum(rhs),rhsMax =  -1.01825377845572E+02  1.38548688815250E+00
(PID.TID 0000.0001)  ploadbar=  1.01057894977066E+05
 cg2d: Sum(rhs),rhsMax =  -1.01487261789084E+02  1.39001262851352E+00
(PID.TID 0000.0001)  ploadbar=  1.01057428683246E+05
 cg2d: Sum(rhs),rhsMax =  -1.01254910324834E+02  1.39311538929812E+00
(PID.TID 0000.0001)  ploadbar=  1.01056962389425E+05
 cg2d: Sum(rhs),rhsMax =  -1.01146109738854E+02  1.39452809516966E+00
(PID.TID 0000.0001)  ploadbar=  1.01056496095605E+05
 cg2d: Sum(rhs),rhsMax =  -1.01209425258877E+02  1.39358578258032E+00
(PID.TID 0000.0001)  ploadbar=  1.01055692146475E+05
 cg2d: Sum(rhs),rhsMax =  -1.01432466608866E+02  1.39045719727237E+00
(PID.TID 0000.0001)  ploadbar=  1.01054888197346E+05
 cg2d: Sum(rhs),rhsMax =  -1.00692113749651E+02  1.40061764278414E+00
(PID.TID 0000.0001)  ploadbar=  1.01054084248216E+05
 cg2d: Sum(rhs),rhsMax =  -9.87081247334843E+01  1.42870841716448E+00
(PID.TID 0000.0001)  ploadbar=  1.01053280299087E+05
 cg2d: Sum(rhs),rhsMax =  -9.67703860425994E+01  1.45725676465290E+00
(PID.TID 0000.0001)  ploadbar=  1.01052476349957E+05
 cg2d: Sum(rhs),rhsMax =  -9.48685030090035E+01  1.48640006276537E+00
(PID.TID 0000.0001)  ploadbar=  1.01051672400828E+05
 cg2d: Sum(rhs),rhsMax =  -9.29981341523540E+01  1.51621623729836E+00
(PID.TID 0000.0001)  ploadbar=  1.01050797868151E+05
 cg2d: Sum(rhs),rhsMax =  -9.12147878899833E+01  1.54576725032722E+00
(PID.TID 0000.0001)  ploadbar=  1.01049923335473E+05
 cg2d: Sum(rhs),rhsMax =  -8.95570005044999E+01  1.57426681410025E+00
(PID.TID 0000.0001)  ploadbar=  1.01049048802796E+05
 cg2d: Sum(rhs),rhsMax =  -8.78387809821734E+01  1.60492487762002E+00
(PID.TID 0000.0001)  ploadbar=  1.01048174270119E+05
 cg2d: Sum(rhs),rhsMax =  -8.62271207881354E+01  1.63476404067537E+00
(PID.TID 0000.0001)  ploadbar=  1.01047299737441E+05
 cg2d: Sum(rhs),rhsMax =  -8.47451059195591E+01  1.66317011492963E+00
(PID.TID 0000.0001)  ploadbar=  1.01046425204764E+05
 cg2d: Sum(rhs),rhsMax =  -8.33449334570998E+01  1.69099438956307E+00
(PID.TID 0000.0001)  ploadbar=  1.01044666812121E+05
 cg2d: Sum(rhs),rhsMax =  -8.20325970903133E+01  1.71797150452535E+00
(PID.TID 0000.0001)  ploadbar=  1.01042908419478E+05
 cg2d: Sum(rhs),rhsMax =  -8.07882818654782E+01  1.74438577821162E+00
(PID.TID 0000.0001)  ploadbar=  1.01041150026835E+05
 cg2d: Sum(rhs),rhsMax =  -7.96081920908975E+01  1.77022044060574E+00
(PID.TID 0000.0001)  ploadbar=  1.01039391634191E+05
 cg2d: Sum(rhs),rhsMax =  -7.85207080361904E+01  1.79473001101183E+00
(PID.TID 0000.0001)  ploadbar=  1.01037633241548E+05
 cg2d: Sum(rhs),rhsMax =  -7.75691625437753E+01  1.81675446009213E+00
(PID.TID 0000.0001)  ploadbar=  1.01035874848905E+05
 cg2d: Sum(rhs),rhsMax =  -7.67868427675278E+01  1.83528805765481E+00
(PID.TID 0000.0001)  ploadbar=  1.01035761598783E+05
 cg2d: Sum(rhs),rhsMax =  -7.62197740172057E+01  1.84897314944638E+00
(PID.TID 0000.0001)  ploadbar=  1.01035648348661E+05
 cg2d: Sum(rhs),rhsMax =  -7.59141635252455E+01  1.85645233755457E+00
(PID.TID 0000.0001)  ploadbar=  1.01035535098539E+05
 cg2d: Sum(rhs),rhsMax =  -7.43276148498621E+01  1.89611359010112E+00
(PID.TID 0000.0001)  ploadbar=  1.01035421848418E+05
 cg2d: Sum(rhs),rhsMax =  -7.20391911373869E+01  1.95638191441918E+00
(PID.TID 0000.0001)  ploadbar=  1.01035308598296E+05
 cg2d: Sum(rhs),rhsMax =  -7.00949252686789E+01  2.01068177287132E+00
(PID.TID 0000.0001)  ploadbar=  1.01035195348174E+05
 cg2d: Sum(rhs),rhsMax =  -6.84556910049643E+01  2.05888756218634E+00
(PID.TID 0000.0001)  ploadbar=  1.01034248035384E+05
 cg2d: Sum(rhs),rhsMax =  -6.70220266237416E+01  2.10299868018718E+00
(PID.TID 0000.0001)  ploadbar=  1.01033300722593E+05
 cg2d: Sum(rhs),rhsMax =  -6.57841526548144E+01  2.14263793725130E+00
(PID.TID 0000.0001)  ploadbar=  1.01032353409803E+05
 cg2d: Sum(rhs),rhsMax =  -6.47106225846130E+01  2.17822852547642E+00
(PID.TID 0000.0001)  ploadbar=  1.01031406097013E+05
 cg2d: Sum(rhs),rhsMax =  -6.37796202586383E+01  2.21003019339229E+00
(PID.TID 0000.0001)  ploadbar=  1.01030458784222E+05
 cg2d: Sum(rhs),rhsMax =  -6.29688118154514E+01  2.23843706242011E+00
(PID.TID 0000.0001)  ploadbar=  1.01029511471432E+05
 cg2d: Sum(rhs),rhsMax =  -6.22205208502368E+01  2.26528258964367E+00
(PID.TID 0000.0001)  ploadbar=  1.01030461059375E+05
 cg2d: Sum(rhs),rhsMax =  -6.15317453234244E+01  2.29053017423738E+00
(PID.TID 0000.0001)  ploadbar=  1.01031410647319E+05
 cg2d: Sum(rhs),rhsMax =  -6.08868277428725E+01  2.31464518746510E+00
(PID.TID 0000.0001)  ploadbar=  1.01032360235262E+05
 cg2d: Sum(rhs),rhsMax =  -6.02826513982913E+01  2.33765271230982E+00
(PID.TID 0000.0001)  ploadbar=  1.01033309823206E+05
 cg2d: Sum(rhs),rhsMax =  -5.98202607625368E+01  2.35548565811573E+00
(PID.TID 0000.0001)  ploadbar=  1.01034259411149E+05
 cg2d: Sum(rhs),rhsMax =  -5.95590759988965E+01  2.36553099051785E+00
(PID.TID 0000.0001)  ploadbar=  1.01035208999093E+05
 cg2d: Sum(rhs),rhsMax =  -5.94409929030101E+01  2.37002677730103E+00
(PID.TID 0000.0001)  ploadbar=  1.01037263178513E+05
 cg2d: Sum(rhs),rhsMax =  -5.94867176256385E+01  2.36805858489193E+00
(PID.TID 0000.0001)  ploadbar=  1.01039317357933E+05
 cg2d: Sum(rhs),rhsMax =  -5.96745391739252E+01  2.36049791284665E+00
(PID.TID 0000.0001)  ploadbar=  1.01041371537353E+05
 cg2d: Sum(rhs),rhsMax =  -6.00054420141550E+01  2.34739848235057E+00
(PID.TID 0000.0001)  ploadbar=  1.01043425716773E+05
 cg2d: Sum(rhs),rhsMax =  -6.04666642908257E+01  2.32942910260948E+00
(PID.TID 0000.0001)  ploadbar=  1.01045479896193E+05
 cg2d: Sum(rhs),rhsMax =  -6.09842160181326E+01  2.30961850549154E+00
(PID.TID 0000.0001)  ploadbar=  1.01047534075613E+05
 cg2d: Sum(rhs),rhsMax =  -6.14550424834009E+01  2.29189676743263E+00
(PID.TID 0000.0001)  ploadbar=  1.01049022910155E+05
 cg2d: Sum(rhs),rhsMax =  -6.18882576301683E+01  2.27582252111614E+00
(PID.TID 0000.0001)  ploadbar=  1.01050511744697E+05
 cg2d: Sum(rhs),rhsMax =  -6.22829104230468E+01  2.26136520607128E+00
(PID.TID 0000.0001)  ploadbar=  1.01052000579239E+05
 cg2d: Sum(rhs),rhsMax =  -6.26538602654615E+01  2.24793885156594E+00
(PID.TID 0000.0001)  ploadbar=  1.01053489413780E+05
 cg2d: Sum(rhs),rhsMax =  -6.30122923512219E+01  2.23511714112471E+00
(PID.TID 0000.0001)  ploadbar=  1.01054978248322E+05
 cg2d: Sum(rhs),rhsMax =  -6.33514725782824E+01  2.22311456482305E+00
(PID.TID 0000.0001)  ploadbar=  1.01056467082864E+05
 cg2d: Sum(rhs),rhsMax =  -6.35176368434673E+01  2.21732409949672E+00
(PID.TID 0000.0001)  ploadbar=  1.01057784765472E+05
 cg2d: Sum(rhs),rhsMax =  -6.34488078614514E+01  2.21978114022435E+00
(PID.TID 0000.0001)  ploadbar=  1.01059102448081E+05
 cg2d: Sum(rhs),rhsMax =  -6.31168412772684E+01  2.23152086755043E+00
(PID.TID 0000.0001)  ploadbar=  1.01060420130689E+05
 cg2d: Sum(rhs),rhsMax =  -6.25346377644081E+01  2.25236896219780E+00
(PID.TID 0000.0001)  ploadbar=  1.01061737813297E+05
 cg2d: Sum(rhs),rhsMax =  -6.19034396082771E+01  2.27540464376182E+00
(PID.TID 0000.0001)  ploadbar=  1.01063055495906E+05
 cg2d: Sum(rhs),rhsMax =  -6.12417808031801E+01  2.30006375236751E+00
(PID.TID 0000.0001)  ploadbar=  1.01064373178514E+05
 cg2d: Sum(rhs),rhsMax =  -6.05757528786797E+01  2.32543337985020E+00
(PID.TID 0000.0001)  ploadbar=  1.01065924456343E+05
 cg2d: Sum(rhs),rhsMax =  -6.00901779473325E+01  2.34428780207472E+00
(PID.TID 0000.0001)  ploadbar=  1.01067475734173E+05
 cg2d: Sum(rhs),rhsMax =  -5.97836429319039E+01  2.35634351811924E+00
(PID.TID 0000.0001)  ploadbar=  1.01069027012002E+05
 cg2d: Sum(rhs),rhsMax =  -5.96054096948926E+01  2.36339719627934E+00
(PID.TID 0000.0001)  ploadbar=  1.01070578289831E+05
 cg2d: Sum(rhs),rhsMax =  -5.93713811150129E+01  2.37268905912843E+00
(PID.TID 0000.0001)  ploadbar=  1.01072129567661E+05
 cg2d: Sum(rhs),rhsMax =  -5.91971491823637E+01  2.37960698927002E+00
(PID.TID 0000.0001)  ploadbar=  1.01073680845490E+05
 cg2d: Sum(rhs),rhsMax =  -5.90731606926551E+01  2.38464875986709E+00
(PID.TID 0000.0001)  ploadbar=  1.01075478000331E+05
 cg2d: Sum(rhs),rhsMax =  -5.89744897298484E+01  2.38877048403302E+00
(PID.TID 0000.0001)  ploadbar=  1.01077275155173E+05
 cg2d: Sum(rhs),rhsMax =  -5.89177542716246E+01  2.39126857306645E+00
(PID.TID 0000.0001)  ploadbar=  1.01079072310015E+05
 cg2d: Sum(rhs),rhsMax =  -5.89001954777405E+01  2.39223394381244E+00
(PID.TID 0000.0001)  ploadbar=  1.01080869464856E+05
 cg2d: Sum(rhs),rhsMax =  -5.89269802440770E+01  2.39144323344930E+00
(PID.TID 0000.0001)  ploadbar=  1.01082666619698E+05
 cg2d: Sum(rhs),rhsMax =  -5.90124092305739E+01  2.38831199340418E+00
(PID.TID 0000.0001)  ploadbar=  1.01084463774540E+05
 cg2d: Sum(rhs),rhsMax =  -5.91872399725385E+01  2.38157120892345E+00
(PID.TID 0000.0001)  ploadbar=  1.01085328530702E+05
 cg2d: Sum(rhs),rhsMax =  -5.94277095742536E+01  2.37222350447031E+00
(PID.TID 0000.0001)  ploadbar=  1.01086193286865E+05
 cg2d: Sum(rhs),rhsMax =  -5.97357946276771E+01  2.36025843285996E+00
(PID.TID 0000.0001)  ploadbar=  1.01087058043027E+05
 cg2d: Sum(rhs),rhsMax =  -6.00988576680146E+01  2.34624654405872E+00
(PID.TID 0000.0001)  ploadbar=  1.01087922799190E+05
 cg2d: Sum(rhs),rhsMax =  -6.05362753996256E+01  2.32951469603027E+00
(PID.TID 0000.0001)  ploadbar=  1.01088787555352E+05
 cg2d: Sum(rhs),rhsMax =  -6.10379247037607E+01  2.31056428883636E+00
(PID.TID 0000.0001)  ploadbar=  1.01089652311515E+05
 cg2d: Sum(rhs),rhsMax =  -6.16198849757658E+01  2.28898866196026E+00
(PID.TID 0000.0001)  ploadbar=  1.01089881012785E+05
 cg2d: Sum(rhs),rhsMax =  -6.21538781370957E+01  2.26959296763872E+00
(PID.TID 0000.0001)  ploadbar=  1.01090109714055E+05
 cg2d: Sum(rhs),rhsMax =  -6.26085682595664E+01  2.25338516855837E+00
(PID.TID 0000.0001)  ploadbar=  1.01090338415325E+05
 cg2d: Sum(rhs),rhsMax =  -6.29727781366083E+01  2.24062105801022E+00
(PID.TID 0000.0001)  ploadbar=  1.01090567116595E+05
 cg2d: Sum(rhs),rhsMax =  -6.32026262764669E+01  2.23272567413087E+00
(PID.TID 0000.0001)  ploadbar=  1.01090795817864E+05
 cg2d: Sum(rhs),rhsMax =  -6.33131155072744E+01  2.22906622732219E+00
(PID.TID 0000.0001)  ploadbar=  1.01091024519134E+05
 cg2d: Sum(rhs),rhsMax =  -6.33263460345430E+01  2.22880301194807E+00
(PID.TID 0000.0001)  ploadbar=  1.01091407586066E+05
 cg2d: Sum(rhs),rhsMax =  -6.32504447258850E+01  2.23163699107501E+00
(PID.TID 0000.0001)  ploadbar=  1.01091790652997E+05
 cg2d: Sum(rhs),rhsMax =  -6.30754729487090E+01  2.23794006811580E+00
(PID.TID 0000.0001)  ploadbar=  1.01092173719929E+05
 cg2d: Sum(rhs),rhsMax =  -6.28820104287055E+01  2.24488704667908E+00
(PID.TID 0000.0001)  ploadbar=  1.01092556786860E+05
 cg2d: Sum(rhs),rhsMax =  -6.26929623309286E+01  2.25165986607755E+00
(PID.TID 0000.0001)  ploadbar=  1.01092939853791E+05
 cg2d: Sum(rhs),rhsMax =  -6.25330289478190E+01  2.25735582291934E+00
(PID.TID 0000.0001)  ploadbar=  1.01093322920723E+05
 cg2d: Sum(rhs),rhsMax =  -6.23385496030536E+01  2.26442015779721E+00
(PID.TID 0000.0001)  ploadbar=  1.01093234217025E+05
 cg2d: Sum(rhs),rhsMax =  -6.21635702795326E+01  2.27087504002221E+00
(PID.TID 0000.0001)  ploadbar=  1.01093145513328E+05
 cg2d: Sum(rhs),rhsMax =  -6.20078124111558E+01  2.27670060161355E+00
(PID.TID 0000.0001)  ploadbar=  1.01093056809630E+05
 cg2d: Sum(rhs),rhsMax =  -6.18458641304682E+01  2.28281003421275E+00
(PID.TID 0000.0001)  ploadbar=  1.01092968105932E+05
 cg2d: Sum(rhs),rhsMax =  -6.16726693376060E+01  2.28938571342358E+00
(PID.TID 0000.0001)  ploadbar=  1.01092879402235E+05
 cg2d: Sum(rhs),rhsMax =  -6.14683450902626E+01  2.29717871866399E+00
(PID.TID 0000.0001)  ploadbar=  1.01092790698537E+05
 cg2d: Sum(rhs),rhsMax =  -6.12676138057134E+01  2.30484311844609E+00
(PID.TID 0000.0001)  ploadbar=  1.01092998235478E+05
 cg2d: Sum(rhs),rhsMax =  -6.10629758854305E+01  2.31265473189769E+00
(PID.TID 0000.0001)  ploadbar=  1.01093205772418E+05
 cg2d: Sum(rhs),rhsMax =  -6.08324881552897E+01  2.32145677486095E+00
(PID.TID 0000.0001)  ploadbar=  1.01093413309358E+05
 cg2d: Sum(rhs),rhsMax =  -6.05852333789417E+01  2.33091369172597E+00
(PID.TID 0000.0001)  ploadbar=  1.01093620846299E+05
 cg2d: Sum(rhs),rhsMax =  -6.03443222461458E+01  2.34013567170878E+00
(PID.TID 0000.0001)  ploadbar=  1.01093828383239E+05
 cg2d: Sum(rhs),rhsMax =  -6.01315725511372E+01  2.34825744766296E+00
(PID.TID 0000.0001)  ploadbar=  1.01094035920180E+05
 cg2d: Sum(rhs),rhsMax =  -5.98952685954796E+01  2.35735346262454E+00
(PID.TID 0000.0001)  ploadbar=  1.01094666386219E+05
 cg2d: Sum(rhs),rhsMax =  -5.97178787705580E+01  2.36415379852561E+00
(PID.TID 0000.0001)  ploadbar=  1.01095296852258E+05
 cg2d: Sum(rhs),rhsMax =  -5.96124467063860E+01  2.36808718945960E+00
(PID.TID 0000.0001)  ploadbar=  1.01095927318296E+05
 cg2d: Sum(rhs),rhsMax =  -5.95700530597702E+01  2.36947219620244E+00
(PID.TID 0000.0001)  ploadbar=  1.01096557784335E+05
 cg2d: Sum(rhs),rhsMax =  -5.95995541152217E+01  2.36794539886997E+00
(PID.TID 0000.0001)  ploadbar=  1.01097188250374E+05
 cg2d: Sum(rhs),rhsMax =  -5.96958759002582E+01  2.36370766515977E+00
(PID.TID 0000.0001)  ploadbar=  1.01097818716413E+05
 cg2d: Sum(rhs),rhsMax =  -5.98403624536434E+01  2.35758173473586E+00
(PID.TID 0000.0001)  ploadbar=  1.01097639274686E+05
 cg2d: Sum(rhs),rhsMax =  -6.00189338006067E+01  2.35013392472055E+00
(PID.TID 0000.0001)  ploadbar=  1.01097459832959E+05
 cg2d: Sum(rhs),rhsMax =  -6.02556208857539E+01  2.34044567131215E+00
(PID.TID 0000.0001)  ploadbar=  1.01097280391232E+05
 cg2d: Sum(rhs),rhsMax =  -6.05487803026364E+01  2.32862567140922E+00
(PID.TID 0000.0001)  ploadbar=  1.01097100949505E+05
 cg2d: Sum(rhs),rhsMax =  -6.08983302570180E+01  2.31473619832642E+00
(PID.TID 0000.0001)  ploadbar=  1.01096921507778E+05
 cg2d: Sum(rhs),rhsMax =  -6.13021684494922E+01  2.29892761191351E+00
(PID.TID 0000.0001)  ploadbar=  1.01096742066051E+05
 cg2d: Sum(rhs),rhsMax =  -6.17775694215549E+01  2.28078072007241E+00
(PID.TID 0000.0001)  ploadbar=  1.01096834011377E+05
 cg2d: Sum(rhs),rhsMax =  -6.22952706785620E+01  2.26142853213482E+00
(PID.TID 0000.0001)  ploadbar=  1.01096925956702E+05
 cg2d: Sum(rhs),rhsMax =  -6.28688119274813E+01  2.24044520398608E+00
(PID.TID 0000.0001)  ploadbar=  1.01097017902028E+05
 cg2d: Sum(rhs),rhsMax =  -6.34952321467585E+01  2.21802554586965E+00
(PID.TID 0000.0001)  ploadbar=  1.01097109847353E+05
 cg2d: Sum(rhs),rhsMax =  -6.41651005111313E+01  2.19458825648753E+00
(PID.TID 0000.0001)  ploadbar=  1.01097201792679E+05
 cg2d: Sum(rhs),rhsMax =  -6.48768088459838E+01  2.17026978577433E+00
(PID.TID 0000.0001)  ploadbar=  1.01097293738004E+05
 cg2d: Sum(rhs),rhsMax =  -6.56398181402744E+01  2.14481870636831E+00
(PID.TID 0000.0001)  ploadbar=  1.01096573663068E+05
 cg2d: Sum(rhs),rhsMax =  -6.64373733330705E+01  2.11885014352018E+00
(PID.TID 0000.0001)  ploadbar=  1.01095853588132E+05
 cg2d: Sum(rhs),rhsMax =  -6.72662284279513E+01  2.09252808766497E+00
(PID.TID 0000.0001)  ploadbar=  1.01095133513196E+05
 cg2d: Sum(rhs),rhsMax =  -6.81438071397824E+01  2.06536705910534E+00
(PID.TID 0000.0001)  ploadbar=  1.01094413438260E+05
 cg2d: Sum(rhs),rhsMax =  -6.90772105794537E+01  2.03723818225013E+00
(PID.TID 0000.0001)  ploadbar=  1.01093693363324E+05
 cg2d: Sum(rhs),rhsMax =  -7.00764596216862E+01  2.00795440988981E+00
(PID.TID 0000.0001)  ploadbar=  1.01092973288388E+05
 cg2d: Sum(rhs),rhsMax =  -7.11774840421101E+01  1.97666722060070E+00
(PID.TID 0000.0001)  ploadbar=  1.01091358429383E+05
 cg2d: Sum(rhs),rhsMax =  -7.23327686053083E+01  1.94486172681786E+00
(PID.TID 0000.0001)  ploadbar=  1.01089743570377E+05
 cg2d: Sum(rhs),rhsMax =  -7.35200684426261E+01  1.91320950639411E+00
(PID.TID 0000.0001)  ploadbar=  1.01088128711372E+05
 cg2d: Sum(rhs),rhsMax =  -7.47122696512550E+01  1.88242374484810E+00
(PID.TID 0000.0001)  ploadbar=  1.01086513852367E+05
 cg2d: Sum(rhs),rhsMax =  -7.58805948485923E+01  1.85316273373769E+00
(PID.TID 0000.0001)  ploadbar=  1.01084898993362E+05
 cg2d: Sum(rhs),rhsMax =  -7.69979080494787E+01  1.82595830210493E+00
(PID.TID 0000.0001)  ploadbar=  1.01083284134357E+05
 cg2d: Sum(rhs),rhsMax =  -7.80205628681445E+01  1.80171991859767E+00
(PID.TID 0000.0001)  ploadbar=  1.01081496680891E+05
 cg2d: Sum(rhs),rhsMax =  -7.89074197399832E+01  1.78116696599045E+00
(PID.TID 0000.0001)  ploadbar=  1.01079709227424E+05
 cg2d: Sum(rhs),rhsMax =  -7.96726083902956E+01  1.76374919012450E+00
(PID.TID 0000.0001)  ploadbar=  1.01077921773958E+05
 cg2d: Sum(rhs),rhsMax =  -8.03099517819473E+01  1.74942426648948E+00
(PID.TID 0000.0001)  ploadbar=  1.01076134320492E+05
 cg2d: Sum(rhs),rhsMax =  -8.03677393834623E+01  1.74781079959304E+00
(PID.TID 0000.0001)  ploadbar=  1.01074346867026E+05
 cg2d: Sum(rhs),rhsMax =  -7.97203592583348E+01  1.76161112846275E+00
(PID.TID 0000.0001)  ploadbar=  1.01072559413560E+05
 cg2d: Sum(rhs),rhsMax =  -7.92372678488689E+01  1.77202308855864E+00
(PID.TID 0000.0001)  ploadbar=  1.01069915658318E+05
 cg2d: Sum(rhs),rhsMax =  -7.89497847124947E+01  1.77819091408074E+00
(PID.TID 0000.0001)  ploadbar=  1.01067271903075E+05
 cg2d: Sum(rhs),rhsMax =  -7.88595223751529E+01  1.77997699724102E+00
(PID.TID 0000.0001)  ploadbar=  1.01064628147833E+05
 cg2d: Sum(rhs),rhsMax =  -7.89337695334716E+01  1.77808414382777E+00
(PID.TID 0000.0001)  ploadbar=  1.01061984392591E+05
 cg2d: Sum(rhs),rhsMax =  -7.91331200343991E+01  1.77341328858466E+00
(PID.TID 0000.0001)  ploadbar=  1.01059340637348E+05
 cg2d: Sum(rhs),rhsMax =  -7.95848930690947E+01  1.76318629680644E+00
(PID.TID 0000.0001)  ploadbar=  1.01056696882106E+05
 cg2d: Sum(rhs),rhsMax =  -8.01293836607690E+01  1.75109160964355E+00
(PID.TID 0000.0001)  ploadbar=  1.01055037477589E+05
 cg2d: Sum(rhs),rhsMax =  -8.07874624627186E+01  1.73673658352320E+00
(PID.TID 0000.0001)  ploadbar=  1.01053378073072E+05
 cg2d: Sum(rhs),rhsMax =  -8.15572812843587E+01  1.72027063338761E+00
(PID.TID 0000.0001)  ploadbar=  1.01051718668554E+05
 cg2d: Sum(rhs),rhsMax =  -8.24718963811163E+01  1.70113069223786E+00
(PID.TID 0000.0001)  ploadbar=  1.01050059264037E+05
 cg2d: Sum(rhs),rhsMax =  -8.35031473310646E+01  1.68006566272822E+00
(PID.TID 0000.0001)  ploadbar=  1.01048399859520E+05
 cg2d: Sum(rhs),rhsMax =  -8.46438227871487E+01  1.65737017559203E+00
(PID.TID 0000.0001)  ploadbar=  1.01046740455003E+05
 cg2d: Sum(rhs),rhsMax =  -8.58446274111293E+01  1.63415769344792E+00
(PID.TID 0000.0001)  ploadbar=  1.01044243121800E+05
 cg2d: Sum(rhs),rhsMax =  -8.70251030104138E+01  1.61197172112443E+00
(PID.TID 0000.0001)  ploadbar=  1.01041745788598E+05
 cg2d: Sum(rhs),rhsMax =  -8.81416734059875E+01  1.59153019489262E+00
(PID.TID 0000.0001)  ploadbar=  1.01039248455395E+05
 cg2d: Sum(rhs),rhsMax =  -8.91776003751621E+01  1.57301175391786E+00
(PID.TID 0000.0001)  ploadbar=  1.01036751122193E+05
 cg2d: Sum(rhs),rhsMax =  -9.01366813192937E+01  1.55622805943456E+00
(PID.TID 0000.0001)  ploadbar=  1.01034253788990E+05
 cg2d: Sum(rhs),rhsMax =  -9.10328836536848E+01  1.54083927288068E+00
(PID.TID 0000.0001)  ploadbar=  1.01031756455788E+05
 cg2d: Sum(rhs),rhsMax =  -9.19454952531473E+01  1.52546465779584E+00
(PID.TID 0000.0001)  ploadbar=  1.01029637118681E+05
 cg2d: Sum(rhs),rhsMax =  -9.28846402247574E+01  1.50994108612743E+00
(PID.TID 0000.0001)  ploadbar=  1.01027517781575E+05
 cg2d: Sum(rhs),rhsMax =  -9.38590543554040E+01  1.49414101912791E+00
(PID.TID 0000.0001)  ploadbar=  1.01025398444468E+05
 cg2d: Sum(rhs),rhsMax =  -9.48719251434741E+01  1.47803659284544E+00
(PID.TID 0000.0001)  ploadbar=  1.01023279107361E+05
 cg2d: Sum(rhs),rhsMax =  -9.60164662226733E+01  1.46023463166196E+00
(PID.TID 0000.0001)  ploadbar=  1.01021159770255E+05
 cg2d: Sum(rhs),rhsMax =  -9.72566220551449E+01  1.44140096277907E+00
(PID.TID 0000.0001)  ploadbar=  1.01019040433148E+05
 cg2d: Sum(rhs),rhsMax =  -9.72596293025035E+01  1.44119408394210E+00
(PID.TID 0000.0001)  ploadbar=  1.01018256923231E+05
 cg2d: Sum(rhs),rhsMax =  -9.71871526976988E+01  1.44213318554204E+00
(PID.TID 0000.0001)  ploadbar=  1.01017473413314E+05
 cg2d: Sum(rhs),rhsMax =  -9.72466597532004E+01  1.44112599863553E+00
(PID.TID 0000.0001)  ploadbar=  1.01016689903397E+05
 cg2d: Sum(rhs),rhsMax =  -9.73987739372211E+01  1.43875952935251E+00
(PID.TID 0000.0001)  ploadbar=  1.01015906393480E+05
 cg2d: Sum(rhs),rhsMax =  -9.76383150235369E+01  1.43512361643146E+00
(PID.TID 0000.0001)  ploadbar=  1.01015122883563E+05
 cg2d: Sum(rhs),rhsMax =  -9.79932210810121E+01  1.42983009370325E+00
(PID.TID 0000.0001)  ploadbar=  1.01014339373646E+05
 cg2d: Sum(rhs),rhsMax =  -9.83474291447294E+01  1.42460076738820E+00
(PID.TID 0000.0001)  ploadbar=  1.01013563305015E+05
 cg2d: Sum(rhs),rhsMax =  -9.87652378318377E+01  1.41850738632359E+00
(PID.TID 0000.0001)  ploadbar=  1.01012787236384E+05
 cg2d: Sum(rhs),rhsMax =  -9.92399220255011E+01  1.41166836855326E+00
(PID.TID 0000.0001)  ploadbar=  1.01012011167753E+05
 cg2d: Sum(rhs),rhsMax =  -9.97785878210057E+01  1.40400243537280E+00
(PID.TID 0000.0001)  ploadbar=  1.01011235099122E+05
 cg2d: Sum(rhs),rhsMax =  -1.00391656716670E+02  1.39538602694360E+00
(PID.TID 0000.0001)  ploadbar=  1.01010459030490E+05
 cg2d: Sum(rhs),rhsMax =  -1.01077498135996E+02  1.38586979174011E+00
(PID.TID 0000.0001)  ploadbar=  1.01009682961859E+05
 cg2d: Sum(rhs),rhsMax =  -1.01914767528186E+02  1.37445305427117E+00
(PID.TID 0000.0001)  ploadbar=  1.01009900955962E+05
 cg2d: Sum(rhs),rhsMax =  -1.02899807176544E+02  1.36126755059368E+00
(PID.TID 0000.0001)  ploadbar=  1.01010118950065E+05
 cg2d: Sum(rhs),rhsMax =  -1.03939176527157E+02  1.34762713060568E+00
(PID.TID 0000.0001)  ploadbar=  1.01010336944168E+05
 cg2d: Sum(rhs),rhsMax =  -1.04960849868134E+02  1.33447798606560E+00
(PID.TID 0000.0001)  ploadbar=  1.01010554938271E+05
 cg2d: Sum(rhs),rhsMax =  -1.05966940163574E+02  1.32176574251090E+00
(PID.TID 0000.0001)  ploadbar=  1.01010772932374E+05
 cg2d: Sum(rhs),rhsMax =  -1.06949562410716E+02  1.30956511486557E+00
(PID.TID 0000.0001)  ploadbar=  1.01010990926477E+05
 cg2d: Sum(rhs),rhsMax =  -1.07734232348879E+02  1.29998725285446E+00
(PID.TID 0000.0001)  ploadbar=  1.01010086997080E+05
 cg2d: Sum(rhs),rhsMax =  -1.08304545754611E+02  1.29310941785127E+00
(PID.TID 0000.0001)  ploadbar=  1.01009183067684E+05
 cg2d: Sum(rhs),rhsMax =  -1.08743238028063E+02  1.28786376462484E+00
(PID.TID 0000.0001)  ploadbar=  1.01008279138287E+05
 cg2d: Sum(rhs),rhsMax =  -1.09135091032374E+02  1.28321189692472E+00
(PID.TID 0000.0001)  ploadbar=  1.01007375208891E+05
 cg2d: Sum(rhs),rhsMax =  -1.09525464195312E+02  1.27861006628227E+00
(PID.TID 0000.0001)  ploadbar=  1.01006471279494E+05
 cg2d: Sum(rhs),rhsMax =  -1.09937204180253E+02  1.27378973135497E+00
(PID.TID 0000.0001)  ploadbar=  1.01005567350098E+05
 cg2d: Sum(rhs),rhsMax =  -1.10497850782596E+02  1.26733766999937E+00
(PID.TID 0000.0001)  ploadbar=  1.01004998860418E+05
 cg2d: Sum(rhs),rhsMax =  -1.11249614468211E+02  1.25880442911205E+00
(PID.TID 0000.0001)  ploadbar=  1.01004430370738E+05
 cg2d: Sum(rhs),rhsMax =  -1.12214241352906E+02  1.24802810946847E+00
(PID.TID 0000.0001)  ploadbar=  1.01003861881058E+05
 cg2d: Sum(rhs),rhsMax =  -1.13333339843101E+02  1.23575979648081E+00
(PID.TID 0000.0001)  ploadbar=  1.01003293391378E+05
 cg2d: Sum(rhs),rhsMax =  -1.12369919086233E+02  1.24642351619231E+00
(PID.TID 0000.0001)  ploadbar=  1.01002724901698E+05
 cg2d: Sum(rhs),rhsMax =  -1.10390496701544E+02  1.26886664880081E+00
(PID.TID 0000.0001)  ploadbar=  1.01002156412018E+05
 cg2d: Sum(rhs),rhsMax =  -1.08143396839365E+02  1.29533711506849E+00
(PID.TID 0000.0001)  ploadbar=  1.01001961978017E+05
 cg2d: Sum(rhs),rhsMax =  -1.05858274167814E+02  1.32340693153698E+00
(PID.TID 0000.0001)  ploadbar=  1.01001767544015E+05
 cg2d: Sum(rhs),rhsMax =  -1.04067646301651E+02  1.34628781844940E+00
(PID.TID 0000.0001)  ploadbar=  1.01001573110014E+05
 cg2d: Sum(rhs),rhsMax =  -1.02647860134350E+02  1.36501733302760E+00
(PID.TID 0000.0001)  ploadbar=  1.01001378676013E+05
 cg2d: Sum(rhs),rhsMax =  -1.01595690371395E+02  1.37925192497991E+00
(PID.TID 0000.0001)  ploadbar=  1.01001184242011E+05
 cg2d: Sum(rhs),rhsMax =  -1.00820574067798E+02  1.38993437117396E+00
(PID.TID 0000.0001)  ploadbar=  1.01000989808010E+05
 cg2d: Sum(rhs),rhsMax =  -1.00229462056501E+02  1.39822313204845E+00
(PID.TID 0000.0001)  ploadbar=  1.01002179554155E+05
 cg2d: Sum(rhs),rhsMax =  -9.97392068821379E+01  1.40519300828062E+00
(PID.TID 0000.0001)  ploadbar=  1.01003369300300E+05
 cg2d: Sum(rhs),rhsMax =  -9.93186222160570E+01  1.41124855552449E+00
(PID.TID 0000.0001)  ploadbar=  1.01004559046446E+05
 cg2d: Sum(rhs),rhsMax =  -9.89338761312124E+01  1.41685690758474E+00
(PID.TID 0000.0001)  ploadbar=  1.01005748792591E+05
 cg2d: Sum(rhs),rhsMax =  -9.85737487645752E+01  1.42217169103701E+00
(PID.TID 0000.0001)  ploadbar=  1.01006938538736E+05
 cg2d: Sum(rhs),rhsMax =  -9.82459641990569E+01  1.42706448252958E+00
(PID.TID 0000.0001)  ploadbar=  1.01008128284881E+05
 cg2d: Sum(rhs),rhsMax =  -9.78530844818821E+01  1.43292708107851E+00
(PID.TID 0000.0001)  ploadbar=  1.01008532541168E+05
 cg2d: Sum(rhs),rhsMax =  -9.74853469276306E+01  1.43843270395138E+00
(PID.TID 0000.0001)  ploadbar=  1.01008936797454E+05
 cg2d: Sum(rhs),rhsMax =  -9.71618874198573E+01  1.44328273384546E+00
(PID.TID 0000.0001)  ploadbar=  1.01009341053741E+05
 cg2d: Sum(rhs),rhsMax =  -9.68580958963679E+01  1.44782535910830E+00
(PID.TID 0000.0001)  ploadbar=  1.01009745310027E+05
 cg2d: Sum(rhs),rhsMax =  -9.65619245590999E+01  1.45223430444183E+00
(PID.TID 0000.0001)  ploadbar=  1.01010149566314E+05
 cg2d: Sum(rhs),rhsMax =  -9.62739264525195E+01  1.45649507997834E+00
(PID.TID 0000.0001)  ploadbar=  1.01010553822600E+05
 cg2d: Sum(rhs),rhsMax =  -9.59481690367458E+01  1.46138648304378E+00
(PID.TID 0000.0001)  ploadbar=  1.01011167914075E+05
 cg2d: Sum(rhs),rhsMax =  -9.55650315330076E+01  1.46720302427917E+00
(PID.TID 0000.0001)  ploadbar=  1.01011782005549E+05
 cg2d: Sum(rhs),rhsMax =  -9.51996596211391E+01  1.47279436658662E+00
(PID.TID 0000.0001)  ploadbar=  1.01012396097023E+05
 cg2d: Sum(rhs),rhsMax =  -9.48674463446144E+01  1.47791323312814E+00
(PID.TID 0000.0001)  ploadbar=  1.01013010188498E+05
 cg2d: Sum(rhs),rhsMax =  -9.45528627826341E+01  1.48279551772686E+00
(PID.TID 0000.0001)  ploadbar=  1.01013624279972E+05
 cg2d: Sum(rhs),rhsMax =  -9.42811361404822E+01  1.48704530378120E+00
(PID.TID 0000.0001)  ploadbar=  1.01014238371447E+05
 cg2d: Sum(rhs),rhsMax =  -9.40480399823877E+01  1.49071813405692E+00
(PID.TID 0000.0001)  ploadbar=  1.01015712500994E+05
 cg2d: Sum(rhs),rhsMax =  -9.38770595884750E+01  1.49342571638882E+00
(PID.TID 0000.0001)  ploadbar=  1.01017186630542E+05
 cg2d: Sum(rhs),rhsMax =  -9.37577474607368E+01  1.49532543040793E+00
(PID.TID 0000.0001)  ploadbar=  1.01018660760089E+05
 cg2d: Sum(rhs),rhsMax =  -9.36813582532783E+01  1.49655101667275E+00
(PID.TID 0000.0001)  ploadbar=  1.01020134889637E+05
 cg2d: Sum(rhs),rhsMax =  -9.36543428748416E+01  1.49699024376123E+00
(PID.TID 0000.0001)  ploadbar=  1.01021609019184E+05
 cg2d: Sum(rhs),rhsMax =  -9.37049540375212E+01  1.49618233003088E+00
(PID.TID 0000.0001)  ploadbar=  1.01023083148732E+05
 cg2d: Sum(rhs),rhsMax =  -9.37620630385431E+01  1.49527393771159E+00
(PID.TID 0000.0001)  ploadbar=  1.01024949051396E+05
 cg2d: Sum(rhs),rhsMax =  -9.37741500788223E+01  1.49507639792543E+00
(PID.TID 0000.0001)  ploadbar=  1.01026814954059E+05
 cg2d: Sum(rhs),rhsMax =  -9.37599334053064E+01  1.49528975623218E+00
(PID.TID 0000.0001)  ploadbar=  1.01028680856723E+05
 cg2d: Sum(rhs),rhsMax =  -9.37715401438442E+01  1.49508408081146E+00
(PID.TID 0000.0001)  ploadbar=  1.01030546759387E+05
 cg2d: Sum(rhs),rhsMax =  -9.38443105792524E+01  1.49389327165319E+00
(PID.TID 0000.0001)  ploadbar=  1.01032412662050E+05
 cg2d: Sum(rhs),rhsMax =  -9.40465988067847E+01  1.49063277623636E+00
(PID.TID 0000.0001)  ploadbar=  1.01034278564714E+05
 cg2d: Sum(rhs),rhsMax =  -9.43589106025554E+01  1.48562876443936E+00
(PID.TID 0000.0001)  ploadbar=  1.01034960584166E+05
 cg2d: Sum(rhs),rhsMax =  -9.47786568592272E+01  1.47893723257826E+00
(PID.TID 0000.0001)  ploadbar=  1.01035642603617E+05
 cg2d: Sum(rhs),rhsMax =  -9.52855647762576E+01  1.47091035738528E+00
(PID.TID 0000.0001)  ploadbar=  1.01036324623069E+05
 cg2d: Sum(rhs),rhsMax =  -9.58295909813597E+01  1.46235098359922E+00
(PID.TID 0000.0001)  ploadbar=  1.01037006642520E+05
 cg2d: Sum(rhs),rhsMax =  -9.63657901404441E+01  1.45395418590295E+00
(PID.TID 0000.0001)  ploadbar=  1.01037688661972E+05
 cg2d: Sum(rhs),rhsMax =  -9.68528118476662E+01  1.44633325387160E+00
(PID.TID 0000.0001)  ploadbar=  1.01038370681424E+05
 cg2d: Sum(rhs),rhsMax =  -9.74275994345327E+01  1.43755448494366E+00
(PID.TID 0000.0001)  ploadbar=  1.01037815520526E+05
 cg2d: Sum(rhs),rhsMax =  -9.81326463554992E+01  1.42702689537569E+00
(PID.TID 0000.0001)  ploadbar=  1.01037260359627E+05
 cg2d: Sum(rhs),rhsMax =  -9.90150595493204E+01  1.41414722809558E+00
(PID.TID 0000.0001)  ploadbar=  1.01036705198729E+05
 cg2d: Sum(rhs),rhsMax =  -1.00104872842169E+02  1.39862786244250E+00
(PID.TID 0000.0001)  ploadbar=  1.01036150037831E+05
 cg2d: Sum(rhs),rhsMax =  -1.01413077196426E+02  1.38050446472635E+00
(PID.TID 0000.0001)  ploadbar=  1.01035594876933E+05
 cg2d: Sum(rhs),rhsMax =  -1.02987541910143E+02  1.35937262552247E+00
(PID.TID 0000.0001)  ploadbar=  1.01035039716035E+05
 cg2d: Sum(rhs),rhsMax =  -1.04770356004187E+02  1.33624008328671E+00
(PID.TID 0000.0001)  ploadbar=  1.01035274606822E+05
 cg2d: Sum(rhs),rhsMax =  -1.06688215301229E+02  1.31222877150974E+00
(PID.TID 0000.0001)  ploadbar=  1.01035509497610E+05
 cg2d: Sum(rhs),rhsMax =  -1.08721842220868E+02  1.28770326992047E+00
(PID.TID 0000.0001)  ploadbar=  1.01035744388397E+05
 cg2d: Sum(rhs),rhsMax =  -1.10842858276765E+02  1.26308843189658E+00
(PID.TID 0000.0001)  ploadbar=  1.01035979279184E+05
 cg2d: Sum(rhs),rhsMax =  -1.12847809852188E+02  1.24067538801471E+00
(PID.TID 0000.0001)  ploadbar=  1.01036214169971E+05
 cg2d: Sum(rhs),rhsMax =  -1.13839974082187E+02  1.22989360198008E+00
(PID.TID 0000.0001)  ploadbar=  1.01036449060759E+05
 cg2d: Sum(rhs),rhsMax =  -1.13775356081817E+02  1.23064608540086E+00
(PID.TID 0000.0001)  ploadbar=  1.01034725440858E+05
 cg2d: Sum(rhs),rhsMax =  -1.13714723245477E+02  1.23136796666928E+00
(PID.TID 0000.0001)  ploadbar=  1.01033001820957E+05
 cg2d: Sum(rhs),rhsMax =  -1.13686384988619E+02  1.23174957093969E+00
(PID.TID 0000.0001)  ploadbar=  1.01031278201056E+05
 cg2d: Sum(rhs),rhsMax =  -1.13704266549495E+02  1.23163731111566E+00
(PID.TID 0000.0001)  ploadbar=  1.01029554581155E+05
 cg2d: Sum(rhs),rhsMax =  -1.13776801054157E+02  1.23093907616302E+00
(PID.TID 0000.0001)  ploadbar=  1.01027830961254E+05
 cg2d: Sum(rhs),rhsMax =  -1.13902525632688E+02  1.22966156177127E+00
(PID.TID 0000.0001)  ploadbar=  1.01026107341353E+05
 cg2d: Sum(rhs),rhsMax =  -1.13281996894315E+02  1.23646507689851E+00
(PID.TID 0000.0001)  ploadbar=  1.01024373580336E+05
 cg2d: Sum(rhs),rhsMax =  -1.12306903605650E+02  1.24724755623181E+00
(PID.TID 0000.0001)  ploadbar=  1.01022639819319E+05
 cg2d: Sum(rhs),rhsMax =  -1.11368387560047E+02  1.25778388437377E+00
(PID.TID 0000.0001)  ploadbar=  1.01020906058302E+05
 cg2d: Sum(rhs),rhsMax =  -1.10471487438745E+02  1.26800046027023E+00
(PID.TID 0000.0001)  ploadbar=  1.01019172297285E+05
 cg2d: Sum(rhs),rhsMax =  -1.09617419301315E+02  1.27786143855890E+00
(PID.TID 0000.0001)  ploadbar=  1.01017438536267E+05
 cg2d: Sum(rhs),rhsMax =  -1.08803038906189E+02  1.28738236108874E+00
(PID.TID 0000.0001)  ploadbar=  1.01015704775250E+05
 cg2d: Sum(rhs),rhsMax =  -1.07966971990366E+02  1.29736103644286E+00
(PID.TID 0000.0001)  ploadbar=  1.01013556491227E+05
 cg2d: Sum(rhs),rhsMax =  -1.07179821604143E+02  1.30692709845583E+00
(PID.TID 0000.0001)  ploadbar=  1.01011408207204E+05
 cg2d: Sum(rhs),rhsMax =  -1.06385955191584E+02  1.31674031023754E+00
(PID.TID 0000.0001)  ploadbar=  1.01009259923181E+05
 cg2d: Sum(rhs),rhsMax =  -1.05617341583709E+02  1.32640628454860E+00
(PID.TID 0000.0001)  ploadbar=  1.01007111639157E+05
 cg2d: Sum(rhs),rhsMax =  -1.04894917591506E+02  1.33565286043093E+00
(PID.TID 0000.0001)  ploadbar=  1.01004963355134E+05
 cg2d: Sum(rhs),rhsMax =  -1.04231330503608E+02  1.34430350542782E+00
(PID.TID 0000.0001)  ploadbar=  1.01002815071111E+05
 cg2d: Sum(rhs),rhsMax =  -1.03652874944323E+02  1.35194946293782E+00
(PID.TID 0000.0001)  ploadbar=  1.01002100758710E+05
 cg2d: Sum(rhs),rhsMax =  -1.03135597108293E+02  1.35885509142816E+00
(PID.TID 0000.0001)  ploadbar=  1.01001386446310E+05
 cg2d: Sum(rhs),rhsMax =  -1.02690189907058E+02  1.36484888028523E+00
(PID.TID 0000.0001)  ploadbar=  1.01000672133909E+05
 cg2d: Sum(rhs),rhsMax =  -1.02343838164159E+02  1.36953948948117E+00
(PID.TID 0000.0001)  ploadbar=  1.00999957821509E+05
 cg2d: Sum(rhs),rhsMax =  -1.02116535850489E+02  1.37263046174225E+00
(PID.TID 0000.0001)  ploadbar=  1.00999243509108E+05
 cg2d: Sum(rhs),rhsMax =  -1.02022660548280E+02  1.37390550037231E+00
(PID.TID 0000.0001)  ploadbar=  1.00998529196708E+05
 cg2d: Sum(rhs),rhsMax =  -1.02034152867958E+02  1.37378823486746E+00
(PID.TID 0000.0001)  ploadbar=  1.00996871790978E+05
 cg2d: Sum(rhs),rhsMax =  -1.02196663170063E+02  1.37165933415164E+00
(PID.TID 0000.0001)  ploadbar=  1.00995214385247E+05
 cg2d: Sum(rhs),rhsMax =  -1.02472329818964E+02  1.36803837994562E+00
(PID.TID 0000.0001)  ploadbar=  1.00993556979517E+05
 cg2d: Sum(rhs),rhsMax =  -1.02846320848062E+02  1.36313844647050E+00
(PID.TID 0000.0001)  ploadbar=  1.00991899573787E+05
 cg2d: Sum(rhs),rhsMax =  -1.03296186643026E+02  1.35727523312294E+00
(PID.TID 0000.0001)  ploadbar=  1.00990242168057E+05
 cg2d: Sum(rhs),rhsMax =  -1.03841763471167E+02  1.35021013528036E+00
(PID.TID 0000.0001)  ploadbar=  1.00988584762327E+05
 cg2d: Sum(rhs),rhsMax =  -1.04441105630431E+02  1.34252115002926E+00
(PID.TID 0000.0001)  ploadbar=  1.00986630479484E+05
 cg2d: Sum(rhs),rhsMax =  -1.05111240429311E+02  1.33400465033198E+00
(PID.TID 0000.0001)  ploadbar=  1.00984676196641E+05
 cg2d: Sum(rhs),rhsMax =  -1.05831818536073E+02  1.32494718652543E+00
(PID.TID 0000.0001)  ploadbar=  1.00982721913799E+05
 cg2d: Sum(rhs),rhsMax =  -1.06584146434107E+02  1.31559862682318E+00
(PID.TID 0000.0001)  ploadbar=  1.00980767630956E+05
 cg2d: Sum(rhs),rhsMax =  -1.07365723894427E+02  1.30599834800197E+00
(PID.TID 0000.0001)  ploadbar=  1.00978813348113E+05
 cg2d: Sum(rhs),rhsMax =  -1.08174834720019E+02  1.29617308122485E+00
(PID.TID 0000.0001)  ploadbar=  1.00976859065270E+05
 cg2d: Sum(rhs),rhsMax =  -1.09042859477632E+02  1.28584786252783E+00
(PID.TID 0000.0001)  ploadbar=  1.00975125326769E+05
 cg2d: Sum(rhs),rhsMax =  -1.09949358198835E+02  1.27527339539115E+00
(PID.TID 0000.0001)  ploadbar=  1.00973391588268E+05
 cg2d: Sum(rhs),rhsMax =  -1.10933339479968E+02  1.26401867862826E+00
(PID.TID 0000.0001)  ploadbar=  1.00971657849768E+05
 cg2d: Sum(rhs),rhsMax =  -1.11916254092455E+02  1.25300304203347E+00
(PID.TID 0000.0001)  ploadbar=  1.00969924111267E+05
 cg2d: Sum(rhs),rhsMax =  -1.11924993007158E+02  1.25302356564961E+00
(PID.TID 0000.0001)  ploadbar=  1.00968190372766E+05
 cg2d: Sum(rhs),rhsMax =  -1.12044625520023E+02  1.25184227935242E+00
(PID.TID 0000.0001)  ploadbar=  1.00966456634265E+05
 cg2d: Sum(rhs),rhsMax =  -1.11390664664112E+02  1.25934760520597E+00
(PID.TID 0000.0001)  ploadbar=  1.00965739105134E+05
 cg2d: Sum(rhs),rhsMax =  -1.10266953121481E+02  1.27232816284751E+00
(PID.TID 0000.0001)  ploadbar=  1.00965021576004E+05
 cg2d: Sum(rhs),rhsMax =  -1.09160072422277E+02  1.28536427303513E+00
(PID.TID 0000.0001)  ploadbar=  1.00964304046873E+05
 cg2d: Sum(rhs),rhsMax =  -1.08069843157537E+02  1.29845054555024E+00
(PID.TID 0000.0001)  ploadbar=  1.00963586517742E+05
 cg2d: Sum(rhs),rhsMax =  -1.06993446307266E+02  1.31161282719486E+00
(PID.TID 0000.0001)  ploadbar=  1.00962868988611E+05
 cg2d: Sum(rhs),rhsMax =  -1.05933645545692E+02  1.32480829875393E+00
(PID.TID 0000.0001)  ploadbar=  1.00962151459481E+05
 cg2d: Sum(rhs),rhsMax =  -1.04971201823242E+02  1.33703901533735E+00
(PID.TID 0000.0001)  ploadbar=  1.00962245858398E+05
 cg2d: Sum(rhs),rhsMax =  -1.04138438580991E+02  1.34781668959015E+00
(PID.TID 0000.0001)  ploadbar=  1.00962340257315E+05
 cg2d: Sum(rhs),rhsMax =  -1.03444669555917E+02  1.35693969485840E+00
(PID.TID 0000.0001)  ploadbar=  1.00962434656231E+05
 cg2d: Sum(rhs),rhsMax =  -1.02883187086447E+02  1.36442421673921E+00
(PID.TID 0000.0001)  ploadbar=  1.00962529055148E+05
 cg2d: Sum(rhs),rhsMax =  -1.02443415595621E+02  1.37035739462873E+00
(PID.TID 0000.0001)  ploadbar=  1.00962623454065E+05
 cg2d: Sum(rhs),rhsMax =  -1.02114859285139E+02  1.37483720206423E+00
(PID.TID 0000.0001)  ploadbar=  1.00962717852982E+05
 cg2d: Sum(rhs),rhsMax =  -1.01817540277733E+02  1.37891755534815E+00
(PID.TID 0000.0001)  ploadbar=  1.00962100775949E+05
 cg2d: Sum(rhs),rhsMax =  -1.01510097388241E+02  1.38314396894522E+00
(PID.TID 0000.0001)  ploadbar=  1.00961483698916E+05
 cg2d: Sum(rhs),rhsMax =  -1.01200278477924E+02  1.38740310879762E+00
(PID.TID 0000.0001)  ploadbar=  1.00960866621883E+05
 cg2d: Sum(rhs),rhsMax =  -1.01038375218430E+02  1.38962163481953E+00
(PID.TID 0000.0001)  ploadbar=  1.00960249544850E+05
 cg2d: Sum(rhs),rhsMax =  -1.01141803050515E+02  1.38816300525803E+00
(PID.TID 0000.0001)  ploadbar=  1.00959632467817E+05
 cg2d: Sum(rhs),rhsMax =  -1.01485117825958E+02  1.38339477959919E+00
(PID.TID 0000.0001)  ploadbar=  1.00959015390784E+05
 cg2d: Sum(rhs),rhsMax =  -1.02027630392566E+02  1.37601618227624E+00
(PID.TID 0000.0001)  ploadbar=  1.00958758632445E+05
 cg2d: Sum(rhs),rhsMax =  -1.02751472150884E+02  1.36633429489383E+00
(PID.TID 0000.0001)  ploadbar=  1.00958501874106E+05
 cg2d: Sum(rhs),rhsMax =  -1.03531497082785E+02  1.35607985659944E+00
(PID.TID 0000.0001)  ploadbar=  1.00958245115767E+05
 cg2d: Sum(rhs),rhsMax =  -1.04481918676953E+02  1.34380906052958E+00
(PID.TID 0000.0001)  ploadbar=  1.00957988357429E+05
 cg2d: Sum(rhs),rhsMax =  -1.05573432202621E+02  1.33000923209697E+00
(PID.TID 0000.0001)  ploadbar=  1.00957731599090E+05
 cg2d: Sum(rhs),rhsMax =  -1.06789018969022E+02  1.31499578122546E+00
(PID.TID 0000.0001)  ploadbar=  1.00957474840751E+05
 cg2d: Sum(rhs),rhsMax =  -1.08073995191351E+02  1.29948043522293E+00
(PID.TID 0000.0001)  ploadbar=  1.00958372071887E+05
 cg2d: Sum(rhs),rhsMax =  -1.09434368606131E+02  1.28341965728074E+00
(PID.TID 0000.0001)  ploadbar=  1.00959269303024E+05
 cg2d: Sum(rhs),rhsMax =  -1.10896969406506E+02  1.26656078604885E+00
(PID.TID 0000.0001)  ploadbar=  1.00960166534160E+05
 cg2d: Sum(rhs),rhsMax =  -1.12534958113652E+02  1.24816831028492E+00
(PID.TID 0000.0001)  ploadbar=  1.00961063765297E+05
 cg2d: Sum(rhs),rhsMax =  -1.13341872260233E+02  1.23929729394815E+00
(PID.TID 0000.0001)  ploadbar=  1.00961960996433E+05
 cg2d: Sum(rhs),rhsMax =  -1.13099059975637E+02  1.24194350965121E+00
(PID.TID 0000.0001)  ploadbar=  1.00962858227570E+05
 cg2d: Sum(rhs),rhsMax =  -1.12826139223052E+02  1.24494313023245E+00
(PID.TID 0000.0001)  ploadbar=  1.00963504467155E+05
 cg2d: Sum(rhs),rhsMax =  -1.12517346644102E+02  1.24835602098212E+00
(PID.TID 0000.0001)  ploadbar=  1.00964150706740E+05
 cg2d: Sum(rhs),rhsMax =  -1.12192483937315E+02  1.25196922225066E+00
(PID.TID 0000.0001)  ploadbar=  1.00964796946326E+05
 cg2d: Sum(rhs),rhsMax =  -1.11879087133008E+02  1.25548086710688E+00
(PID.TID 0000.0001)  ploadbar=  1.00965443185911E+05
 cg2d: Sum(rhs),rhsMax =  -1.11603635605550E+02  1.25858871079146E+00
(PID.TID 0000.0001)  ploadbar=  1.00966089425497E+05
 cg2d: Sum(rhs),rhsMax =  -1.11433119395105E+02  1.26051914572969E+00
(PID.TID 0000.0001)  ploadbar=  1.00966735665082E+05
 cg2d: Sum(rhs),rhsMax =  -1.11189045770208E+02  1.26328484523141E+00
(PID.TID 0000.0001)  ploadbar=  1.00967849196375E+05
 cg2d: Sum(rhs),rhsMax =  -1.10383452864933E+02  1.27248071499054E+00
(PID.TID 0000.0001)  ploadbar=  1.00968962727667E+05
 cg2d: Sum(rhs),rhsMax =  -1.09642456595728E+02  1.28102762007856E+00
(PID.TID 0000.0001)  ploadbar=  1.00970076258960E+05
 cg2d: Sum(rhs),rhsMax =  -1.08915232147693E+02  1.28949650346672E+00
(PID.TID 0000.0001)  ploadbar=  1.00971189790253E+05
 cg2d: Sum(rhs),rhsMax =  -1.08196422967402E+02  1.29794605099265E+00
(PID.TID 0000.0001)  ploadbar=  1.00972303321546E+05
 cg2d: Sum(rhs),rhsMax =  -1.07541324352777E+02  1.30570189105225E+00
(PID.TID 0000.0001)  ploadbar=  1.00973416852839E+05
 cg2d: Sum(rhs),rhsMax =  -1.06687259134881E+02  1.31606661389822E+00
(PID.TID 0000.0001)  ploadbar=  1.00974583684650E+05
 cg2d: Sum(rhs),rhsMax =  -1.05684549775429E+02  1.32851580268038E+00
(PID.TID 0000.0001)  ploadbar=  1.00975750516461E+05
 cg2d: Sum(rhs),rhsMax =  -1.04653771585284E+02  1.34161083021178E+00
(PID.TID 0000.0001)  ploadbar=  1.00976917348273E+05
 cg2d: Sum(rhs),rhsMax =  -1.03647320734694E+02  1.35469753524880E+00
(PID.TID 0000.0001)  ploadbar=  1.00978084180084E+05
 cg2d: Sum(rhs),rhsMax =  -1.02715435642228E+02  1.36709853471694E+00
(PID.TID 0000.0001)  ploadbar=  1.00979251011895E+05
 cg2d: Sum(rhs),rhsMax =  -1.01922101859930E+02  1.37790175799126E+00
(PID.TID 0000.0001)  ploadbar=  1.00980417843707E+05
 cg2d: Sum(rhs),rhsMax =  -1.00700778443058E+02  1.39476916072406E+00
(PID.TID 0000.0001)  ploadbar=  1.00981159009481E+05
 cg2d: Sum(rhs),rhsMax =  -9.92204224096372E+01  1.41571383590395E+00
(PID.TID 0000.0001)  ploadbar=  1.00981900175255E+05
 cg2d: Sum(rhs),rhsMax =  -9.78046766471495E+01  1.43631795205204E+00
(PID.TID 0000.0001)  ploadbar=  1.00982641341029E+05
 cg2d: Sum(rhs),rhsMax =  -9.63822341718425E+01  1.45760270812977E+00
(PID.TID 0000.0001)  ploadbar=  1.00983382506803E+05
 cg2d: Sum(rhs),rhsMax =  -9.49326320427092E+01  1.47992380036214E+00
(PID.TID 0000.0001)  ploadbar=  1.00984123672577E+05
 cg2d: Sum(rhs),rhsMax =  -9.35269538571494E+01  1.50220129528314E+00
(PID.TID 0000.0001)  ploadbar=  1.00984864838351E+05
 cg2d: Sum(rhs),rhsMax =  -9.22562328336118E+01  1.52294734047826E+00
(PID.TID 0000.0001)  ploadbar=  1.00985202528938E+05
 cg2d: Sum(rhs),rhsMax =  -9.11770550983941E+01  1.54103641957903E+00
(PID.TID 0000.0001)  ploadbar=  1.00985540219525E+05
 cg2d: Sum(rhs),rhsMax =  -9.02830033922678E+01  1.55636420617631E+00
(PID.TID 0000.0001)  ploadbar=  1.00985877910112E+05
 cg2d: Sum(rhs),rhsMax =  -8.95414967886997E+01  1.56932107122189E+00
(PID.TID 0000.0001)  ploadbar=  1.00986215600699E+05
 cg2d: Sum(rhs),rhsMax =  -8.89179495520991E+01  1.58038511927545E+00
(PID.TID 0000.0001)  ploadbar=  1.00986553291286E+05
 cg2d: Sum(rhs),rhsMax =  -8.84378784605029E+01  1.58899044480744E+00
(PID.TID 0000.0001)  ploadbar=  1.00986890981873E+05
 cg2d: Sum(rhs),rhsMax =  -8.80346774675961E+01  1.59627315606437E+00
(PID.TID 0000.0001)  ploadbar=  1.00987642909215E+05
 cg2d: Sum(rhs),rhsMax =  -8.77150708309216E+01  1.60205871727864E+00
(PID.TID 0000.0001)  ploadbar=  1.00988394836557E+05
 cg2d: Sum(rhs),rhsMax =  -8.74955121010202E+01  1.60600397060913E+00
(PID.TID 0000.0001)  ploadbar=  1.00989146763898E+05
 cg2d: Sum(rhs),rhsMax =  -8.73800459362629E+01  1.60800491387240E+00
(PID.TID 0000.0001)  ploadbar=  1.00989898691240E+05
 cg2d: Sum(rhs),rhsMax =  -8.73759368934506E+01  1.60791538450947E+00
(PID.TID 0000.0001)  ploadbar=  1.00990650618582E+05
 cg2d: Sum(rhs),rhsMax =  -8.74845384786778E+01  1.60571563927421E+00
(PID.TID 0000.0001)  ploadbar=  1.00991402545924E+05
 cg2d: Sum(rhs),rhsMax =  -8.76384600209064E+01  1.60275258836672E+00
(PID.TID 0000.0001)  ploadbar=  1.00992140637129E+05
 cg2d: Sum(rhs),rhsMax =  -8.78133194533619E+01  1.59945079213018E+00
(PID.TID 0000.0001)  ploadbar=  1.00992878728335E+05
 cg2d: Sum(rhs),rhsMax =  -8.80268839106156E+01  1.59547864904425E+00
(PID.TID 0000.0001)  ploadbar=  1.00993616819540E+05
 cg2d: Sum(rhs),rhsMax =  -8.82729387028969E+01  1.59095453813232E+00
(PID.TID 0000.0001)  ploadbar=  1.00994354910746E+05
 cg2d: Sum(rhs),rhsMax =  -8.85552830622115E+01  1.58581538143339E+00
(PID.TID 0000.0001)  ploadbar=  1.00995093001951E+05
 cg2d: Sum(rhs),rhsMax =  -8.88841995375197E+01  1.57988705105383E+00
(PID.TID 0000.0001)  ploadbar=  1.00995831093156E+05
 cg2d: Sum(rhs),rhsMax =  -8.91900849110660E+01  1.57440094143810E+00
(PID.TID 0000.0001)  ploadbar=  1.00997480277912E+05
 cg2d: Sum(rhs),rhsMax =  -8.95099313038366E+01  1.56869172107368E+00
(PID.TID 0000.0001)  ploadbar=  1.00999129462667E+05
 cg2d: Sum(rhs),rhsMax =  -8.99867627955425E+01  1.56028046199985E+00
(PID.TID 0000.0001)  ploadbar=  1.01000778647422E+05
 cg2d: Sum(rhs),rhsMax =  -9.06212823359619E+01  1.54924160515201E+00
(PID.TID 0000.0001)  ploadbar=  1.01002427832177E+05
 cg2d: Sum(rhs),rhsMax =  -9.14134767750208E+01  1.53568441490132E+00
(PID.TID 0000.0001)  ploadbar=  1.01004077016933E+05
 cg2d: Sum(rhs),rhsMax =  -9.23592391099612E+01  1.51980918949653E+00
(PID.TID 0000.0001)  ploadbar=  1.01005726201688E+05
 cg2d: Sum(rhs),rhsMax =  -9.33782506728676E+01  1.50310709421039E+00
(PID.TID 0000.0001)  ploadbar=  1.01006788109150E+05
 cg2d: Sum(rhs),rhsMax =  -9.44131760543822E+01  1.48653216084634E+00
(PID.TID 0000.0001)  ploadbar=  1.01007850016612E+05
 cg2d: Sum(rhs),rhsMax =  -9.54531718169078E+01  1.47025475365640E+00
(PID.TID 0000.0001)  ploadbar=  1.01008911924074E+05
 cg2d: Sum(rhs),rhsMax =  -9.65081856631166E+01  1.45411614927811E+00
(PID.TID 0000.0001)  ploadbar=  1.01009973831536E+05
 cg2d: Sum(rhs),rhsMax =  -9.75730576535198E+01  1.43818587493427E+00
(PID.TID 0000.0001)  ploadbar=  1.01011035738998E+05
 cg2d: Sum(rhs),rhsMax =  -9.86747506650876E+01  1.42205541524783E+00
(PID.TID 0000.0001)  ploadbar=  1.01012097646460E+05
 cg2d: Sum(rhs),rhsMax =  -9.98029507897370E+01  1.40590884130708E+00
(PID.TID 0000.0001)  ploadbar=  1.01013008242109E+05
 cg2d: Sum(rhs),rhsMax =  -1.00962660217801E+02  1.38967499831523E+00
(PID.TID 0000.0001)  ploadbar=  1.01013918837757E+05
 cg2d: Sum(rhs),rhsMax =  -1.02153267663029E+02  1.37337221431694E+00
(PID.TID 0000.0001)  ploadbar=  1.01014829433406E+05
 cg2d: Sum(rhs),rhsMax =  -1.03384077594232E+02  1.35689794928424E+00
(PID.TID 0000.0001)  ploadbar=  1.01015740029055E+05
 cg2d: Sum(rhs),rhsMax =  -1.04649675682355E+02  1.34034647806264E+00
(PID.TID 0000.0001)  ploadbar=  1.01016650624703E+05
 cg2d: Sum(rhs),rhsMax =  -1.05940252995108E+02  1.32386014640857E+00
(PID.TID 0000.0001)  ploadbar=  1.01017561220352E+05
 cg2d: Sum(rhs),rhsMax =  -1.07284838882599E+02  1.30716859229263E+00
(PID.TID 0000.0001)  ploadbar=  1.01018482032866E+05
 cg2d: Sum(rhs),rhsMax =  -1.08638731167334E+02  1.29081719911245E+00
(PID.TID 0000.0001)  ploadbar=  1.01019402845380E+05
 cg2d: Sum(rhs),rhsMax =  -1.10024218310435E+02  1.27452922641126E+00
(PID.TID 0000.0001)  ploadbar=  1.01020323657894E+05
 cg2d: Sum(rhs),rhsMax =  -1.11446737423509E+02  1.25825303799073E+00
(PID.TID 0000.0001)  ploadbar=  1.01021244470408E+05
 cg2d: Sum(rhs),rhsMax =  -1.12914634203659E+02  1.24191348448507E+00
(PID.TID 0000.0001)  ploadbar=  1.01022165282922E+05
 cg2d: Sum(rhs),rhsMax =  -1.13886847245919E+02  1.23135410383411E+00
(PID.TID 0000.0001)  ploadbar=  1.01023086095436E+05
 cg2d: Sum(rhs),rhsMax =  -1.13873391272996E+02  1.23154633615722E+00
(PID.TID 0000.0001)  ploadbar=  1.01023125635523E+05
 cg2d: Sum(rhs),rhsMax =  -1.14204908959901E+02  1.22801368306049E+00
(PID.TID 0000.0001)  ploadbar=  1.01023165175611E+05
 cg2d: Sum(rhs),rhsMax =  -1.14863958335665E+02  1.22101116633311E+00
(PID.TID 0000.0001)  ploadbar=  1.01023204715698E+05
 cg2d: Sum(rhs),rhsMax =  -1.15786823688821E+02  1.21132437903241E+00
(PID.TID 0000.0001)  ploadbar=  1.01023244255786E+05
 cg2d: Sum(rhs),rhsMax =  -1.16920396938915E+02  1.19962232411069E+00
(PID.TID 0000.0001)  ploadbar=  1.01023283795873E+05
 cg2d: Sum(rhs),rhsMax =  -1.18239290118254E+02  1.18627581899560E+00
(PID.TID 0000.0001)  ploadbar=  1.01023323335961E+05
 cg2d: Sum(rhs),rhsMax =  -1.18964609283943E+02  1.17908316877706E+00
(PID.TID 0000.0001)  ploadbar=  1.01023021048700E+05
 cg2d: Sum(rhs),rhsMax =  -1.19125616593528E+02  1.17752651183245E+00
(PID.TID 0000.0001)  ploadbar=  1.01022718761439E+05
 cg2d: Sum(rhs),rhsMax =  -1.19376243172636E+02  1.17508531406152E+00
(PID.TID 0000.0001)  ploadbar=  1.01022416474178E+05
 cg2d: Sum(rhs),rhsMax =  -1.19710693376341E+02  1.17182623946497E+00
(PID.TID 0000.0001)  ploadbar=  1.01022114186918E+05
 cg2d: Sum(rhs),rhsMax =  -1.18463828748302E+02  1.18417043395059E+00
(PID.TID 0000.0001)  ploadbar=  1.01021811899657E+05
 cg2d: Sum(rhs),rhsMax =  -1.17088465920267E+02  1.19808388024121E+00
(PID.TID 0000.0001)  ploadbar=  1.01021509612396E+05
 cg2d: Sum(rhs),rhsMax =  -1.15843367276006E+02  1.21095675560927E+00
(PID.TID 0000.0001)  ploadbar=  1.01021851840618E+05
 cg2d: Sum(rhs),rhsMax =  -1.14743050524002E+02  1.22252768699273E+00
(PID.TID 0000.0001)  ploadbar=  1.01022194068839E+05
 cg2d: Sum(rhs),rhsMax =  -1.13783152033498E+02  1.23275721368651E+00
(PID.TID 0000.0001)  ploadbar=  1.01022536297061E+05
 cg2d: Sum(rhs),rhsMax =  -1.12937944374283E+02  1.24185875295165E+00
(PID.TID 0000.0001)  ploadbar=  1.01022878525283E+05
 cg2d: Sum(rhs),rhsMax =  -1.12193843327115E+02  1.24993365418290E+00
(PID.TID 0000.0001)  ploadbar=  1.01023220753505E+05
 cg2d: Sum(rhs),rhsMax =  -1.11532392050914E+02  1.25714975199810E+00
(PID.TID 0000.0001)  ploadbar=  1.01023562981726E+05
 cg2d: Sum(rhs),rhsMax =  -1.10853553538197E+02  1.26469697145795E+00
(PID.TID 0000.0001)  ploadbar=  1.01023835710298E+05
 cg2d: Sum(rhs),rhsMax =  -1.10116020715563E+02  1.27304458337742E+00
(PID.TID 0000.0001)  ploadbar=  1.01024108438870E+05
 cg2d: Sum(rhs),rhsMax =  -1.09298836020692E+02  1.28246343027619E+00
(PID.TID 0000.0001)  ploadbar=  1.01024381167441E+05
 cg2d: Sum(rhs),rhsMax =  -1.08459465830037E+02  1.29231695519692E+00
(PID.TID 0000.0001)  ploadbar=  1.01024653896013E+05
 cg2d: Sum(rhs),rhsMax =  -1.07643402398839E+02  1.30207158518132E+00
(PID.TID 0000.0001)  ploadbar=  1.01024926624585E+05
 cg2d: Sum(rhs),rhsMax =  -1.06877800718733E+02  1.31138196739098E+00
(PID.TID 0000.0001)  ploadbar=  1.01025199353157E+05
 cg2d: Sum(rhs),rhsMax =  -1.06210418508699E+02  1.31962636816662E+00
(PID.TID 0000.0001)  ploadbar=  1.01026171224153E+05
 cg2d: Sum(rhs),rhsMax =  -1.05652436492697E+02  1.32661002442616E+00
(PID.TID 0000.0001)  ploadbar=  1.01027143095150E+05
 cg2d: Sum(rhs),rhsMax =  -1.05177243878453E+02  1.33262384045948E+00
(PID.TID 0000.0001)  ploadbar=  1.01028114966147E+05
 cg2d: Sum(rhs),rhsMax =  -1.04751905841989E+02  1.33806227307808E+00
(PID.TID 0000.0001)  ploadbar=  1.01029086837144E+05
 cg2d: Sum(rhs),rhsMax =  -1.04331313873064E+02  1.34349110446598E+00
(PID.TID 0000.0001)  ploadbar=  1.01030058708141E+05
 cg2d: Sum(rhs),rhsMax =  -1.03899403527298E+02  1.34911565207930E+00
(PID.TID 0000.0001)  ploadbar=  1.01031030579138E+05
 cg2d: Sum(rhs),rhsMax =  -1.03432806990315E+02  1.35523170312150E+00
(PID.TID 0000.0001)  ploadbar=  1.01031954661854E+05
 cg2d: Sum(rhs),rhsMax =  -1.02911448289932E+02  1.36210607944225E+00
(PID.TID 0000.0001)  ploadbar=  1.01032878744570E+05
 cg2d: Sum(rhs),rhsMax =  -1.02348757439970E+02  1.36957720586954E+00
(PID.TID 0000.0001)  ploadbar=  1.01033802827286E+05
 cg2d: Sum(rhs),rhsMax =  -1.01751859813798E+02  1.37756660355177E+00
(PID.TID 0000.0001)  ploadbar=  1.01034726910001E+05
 cg2d: Sum(rhs),rhsMax =  -1.01144430425386E+02  1.38575791198012E+00
(PID.TID 0000.0001)  ploadbar=  1.01035650992717E+05
 cg2d: Sum(rhs),rhsMax =  -1.00586220107173E+02  1.39332887150921E+00
(PID.TID 0000.0001)  ploadbar=  1.01036575075433E+05
 cg2d: Sum(rhs),rhsMax =  -1.00020634807614E+02  1.40107459154781E+00
(PID.TID 0000.0001)  ploadbar=  1.01037786881868E+05
 cg2d: Sum(rhs),rhsMax =  -9.95358102691728E+01  1.40772812662223E+00
(PID.TID 0000.0001)  ploadbar=  1.01038998688302E+05
 cg2d: Sum(rhs),rhsMax =  -9.91491536666431E+01  1.41300302052665E+00
(PID.TID 0000.0001)  ploadbar=  1.01040210494737E+05
 cg2d: Sum(rhs),rhsMax =  -9.88612419534327E+01  1.41685754141232E+00
(PID.TID 0000.0001)  ploadbar=  1.01041422301172E+05
 cg2d: Sum(rhs),rhsMax =  -9.86436209250479E+01  1.41967908053802E+00
(PID.TID 0000.0001)  ploadbar=  1.01042634107607E+05
 cg2d: Sum(rhs),rhsMax =  -9.84732710248747E+01  1.42179132785607E+00
(PID.TID 0000.0001)  ploadbar=  1.01043845914042E+05
 cg2d: Sum(rhs),rhsMax =  -9.83149598842418E+01  1.42379190319458E+00
(PID.TID 0000.0001)  ploadbar=  1.01044941467327E+05
 cg2d: Sum(rhs),rhsMax =  -9.81710536987563E+01  1.42562507901522E+00
(PID.TID 0000.0001)  ploadbar=  1.01046037020612E+05
 cg2d: Sum(rhs),rhsMax =  -9.80466391134060E+01  1.42721288201219E+00
(PID.TID 0000.0001)  ploadbar=  1.01047132573897E+05
 cg2d: Sum(rhs),rhsMax =  -9.79478863222846E+01  1.42846737299670E+00
(PID.TID 0000.0001)  ploadbar=  1.01048228127181E+05
 cg2d: Sum(rhs),rhsMax =  -9.78884768787804E+01  1.42919804352216E+00
(PID.TID 0000.0001)  ploadbar=  1.01049323680466E+05
 cg2d: Sum(rhs),rhsMax =  -9.78849167243452E+01  1.42917284079766E+00
(PID.TID 0000.0001)  ploadbar=  1.01050419233751E+05
 cg2d: Sum(rhs),rhsMax =  -9.80714902966140E+01  1.42641956450226E+00
(PID.TID 0000.0001)  ploadbar=  1.01050632295125E+05
 cg2d: Sum(rhs),rhsMax =  -9.82377712947341E+01  1.42399075478028E+00
(PID.TID 0000.0001)  ploadbar=  1.01050845356499E+05
 cg2d: Sum(rhs),rhsMax =  -9.84641323295748E+01  1.42071648144595E+00
(PID.TID 0000.0001)  ploadbar=  1.01051058417872E+05
 cg2d: Sum(rhs),rhsMax =  -9.87798993123860E+01  1.41618488946131E+00
(PID.TID 0000.0001)  ploadbar=  1.01051271479246E+05
 cg2d: Sum(rhs),rhsMax =  -9.91290978471139E+01  1.41121163383360E+00
(PID.TID 0000.0001)  ploadbar=  1.01051484540619E+05
 cg2d: Sum(rhs),rhsMax =  -9.94939864588723E+01  1.40605281889906E+00
(PID.TID 0000.0001)  ploadbar=  1.01051697601993E+05
 cg2d: Sum(rhs),rhsMax =  -9.98053485427725E+01  1.40168666925181E+00
(PID.TID 0000.0001)  ploadbar=  1.01052125351764E+05
 cg2d: Sum(rhs),rhsMax =  -1.00000675394738E+02  1.39896356827409E+00
(PID.TID 0000.0001)  ploadbar=  1.01052553101535E+05
 cg2d: Sum(rhs),rhsMax =  -1.00100313296986E+02  1.39758034782556E+00
(PID.TID 0000.0001)  ploadbar=  1.01052980851306E+05
 cg2d: Sum(rhs),rhsMax =  -1.00121091305777E+02  1.39729024878152E+00
(PID.TID 0000.0001)  ploadbar=  1.01053408601077E+05
 cg2d: Sum(rhs),rhsMax =  -1.00093651251216E+02  1.39766030995063E+00
(PID.TID 0000.0001)  ploadbar=  1.01053836350848E+05
 cg2d: Sum(rhs),rhsMax =  -1.00072084486721E+02  1.39793275259856E+00
(PID.TID 0000.0001)  ploadbar=  1.01054264100619E+05
 cg2d: Sum(rhs),rhsMax =  -1.00091167310534E+02  1.39762436962776E+00
(PID.TID 0000.0001)  ploadbar=  1.01054417503460E+05
 cg2d: Sum(rhs),rhsMax =  -1.00167566713706E+02  1.39648553796890E+00
(PID.TID 0000.0001)  ploadbar=  1.01054570906301E+05
 cg2d: Sum(rhs),rhsMax =  -1.00283229407803E+02  1.39476650653547E+00
(PID.TID 0000.0001)  ploadbar=  1.01054724309143E+05
 cg2d: Sum(rhs),rhsMax =  -1.00416323951761E+02  1.39277352673587E+00
(PID.TID 0000.0001)  ploadbar=  1.01054877711984E+05
 cg2d: Sum(rhs),rhsMax =  -1.00536970442355E+02  1.39091993922645E+00
(PID.TID 0000.0001)  ploadbar=  1.01055031114825E+05
 cg2d: Sum(rhs),rhsMax =  -1.00621622550553E+02  1.38952807472500E+00
(PID.TID 0000.0001)  ploadbar=  1.01055184517667E+05
 cg2d: Sum(rhs),rhsMax =  -1.00680295472943E+02  1.38854175943096E+00
(PID.TID 0000.0001)  ploadbar=  1.01055832862900E+05
 cg2d: Sum(rhs),rhsMax =  -1.00652701006756E+02  1.38877391364794E+00
(PID.TID 0000.0001)  ploadbar=  1.01056481208134E+05
 cg2d: Sum(rhs),rhsMax =  -1.00531916171260E+02  1.39032091972650E+00
(PID.TID 0000.0001)  ploadbar=  1.01057129553368E+05
 cg2d: Sum(rhs),rhsMax =  -1.00357314441528E+02  1.39264869793260E+00
(PID.TID 0000.0001)  ploadbar=  1.01057777898602E+05
 cg2d: Sum(rhs),rhsMax =  -1.00165280047153E+02  1.39527108763105E+00
(PID.TID 0000.0001)  ploadbar=  1.01058426243835E+05
 cg2d: Sum(rhs),rhsMax =  -1.00004749441176E+02  1.39751862199743E+00
(PID.TID 0000.0001)  ploadbar=  1.01059074589069E+05
 cg2d: Sum(rhs),rhsMax =  -9.99705534281581E+01  1.39804697545300E+00
(PID.TID 0000.0001)  ploadbar=  1.01060024701810E+05
 cg2d: Sum(rhs),rhsMax =  -1.00047069926651E+02  1.39703917850920E+00
(PID.TID 0000.0001)  ploadbar=  1.01060974814551E+05
 cg2d: Sum(rhs),rhsMax =  -1.00247317502960E+02  1.39432120969188E+00
(PID.TID 0000.0001)  ploadbar=  1.01061924927292E+05
 cg2d: Sum(rhs),rhsMax =  -1.00633623294761E+02  1.38905285739571E+00
(PID.TID 0000.0001)  ploadbar=  1.01062875040033E+05
 cg2d: Sum(rhs),rhsMax =  -1.01203435057673E+02  1.38132889248593E+00
(PID.TID 0000.0001)  ploadbar=  1.01063825152774E+05
 cg2d: Sum(rhs),rhsMax =  -1.01894581369095E+02  1.37205833965641E+00
(PID.TID 0000.0001)  ploadbar=  1.01064775265514E+05
 cg2d: Sum(rhs),rhsMax =  -1.02636801678481E+02  1.36221963000112E+00
(PID.TID 0000.0001)  ploadbar=  1.01065732532221E+05
 cg2d: Sum(rhs),rhsMax =  -1.02474129958219E+02  1.36444234612215E+00
(PID.TID 0000.0001)  ploadbar=  1.01066689798928E+05
 cg2d: Sum(rhs),rhsMax =  -1.01422952886414E+02  1.37862192769274E+00
(PID.TID 0000.0001)  ploadbar=  1.01067647065634E+05
 cg2d: Sum(rhs),rhsMax =  -1.00540860222829E+02  1.39073630557031E+00
(PID.TID 0000.0001)  ploadbar=  1.01068604332341E+05
 cg2d: Sum(rhs),rhsMax =  -9.98204851259268E+01  1.40076974749624E+00
(PID.TID 0000.0001)  ploadbar=  1.01069561599048E+05
 cg2d: Sum(rhs),rhsMax =  -9.92374268455252E+01  1.40896544356175E+00
(PID.TID 0000.0001)  ploadbar=  1.01070518865754E+05
 cg2d: Sum(rhs),rhsMax =  -9.90361012483046E+01  1.41177934353024E+00
(PID.TID 0000.0001)  ploadbar=  1.01071487658011E+05
 cg2d: Sum(rhs),rhsMax =  -9.91752500987809E+01  1.40972045803416E+00
(PID.TID 0000.0001)  ploadbar=  1.01072456450268E+05
 cg2d: Sum(rhs),rhsMax =  -9.96108765106421E+01  1.40344421162922E+00
(PID.TID 0000.0001)  ploadbar=  1.01073425242526E+05
 cg2d: Sum(rhs),rhsMax =  -1.00297480310516E+02  1.39369848852817E+00
(PID.TID 0000.0001)  ploadbar=  1.01074394034783E+05
 cg2d: Sum(rhs),rhsMax =  -1.01188248687236E+02  1.38126827143677E+00
(PID.TID 0000.0001)  ploadbar=  1.01075362827040E+05
 cg2d: Sum(rhs),rhsMax =  -1.02256293441753E+02  1.36665380356911E+00
(PID.TID 0000.0001)  ploadbar=  1.01076331619297E+05
 cg2d: Sum(rhs),rhsMax =  -1.03526470518231E+02  1.34975122052508E+00
(PID.TID 0000.0001)  ploadbar=  1.01077076329857E+05
 cg2d: Sum(rhs),rhsMax =  -1.05082582404620E+02  1.32965972735916E+00
(PID.TID 0000.0001)  ploadbar=  1.01077821040416E+05
 cg2d: Sum(rhs),rhsMax =  -1.06780986675978E+02  1.30843201092950E+00
(PID.TID 0000.0001)  ploadbar=  1.01078565750976E+05
 cg2d: Sum(rhs),rhsMax =  -1.06537100716802E+02  1.31137140186646E+00
(PID.TID 0000.0001)  ploadbar=  1.01079310461536E+05
 cg2d: Sum(rhs),rhsMax =  -1.06156840025585E+02  1.31605105371648E+00
(PID.TID 0000.0001)  ploadbar=  1.01080055172095E+05
 cg2d: Sum(rhs),rhsMax =  -1.05739636810393E+02  1.32128699073571E+00
(PID.TID 0000.0001)  ploadbar=  1.01080799882655E+05
 cg2d: Sum(rhs),rhsMax =  -1.05375908202720E+02  1.32591163179250E+00
(PID.TID 0000.0001)  ploadbar=  1.01081911663028E+05
 cg2d: Sum(rhs),rhsMax =  -1.05127274412340E+02  1.32911395350920E+00
(PID.TID 0000.0001)  ploadbar=  1.01083023443400E+05
 cg2d: Sum(rhs),rhsMax =  -1.05027942366007E+02  1.33044385821283E+00
(PID.TID 0000.0001)  ploadbar=  1.01084135223773E+05
 cg2d: Sum(rhs),rhsMax =  -1.05041248981262E+02  1.33036016008415E+00
(PID.TID 0000.0001)  ploadbar=  1.01085247004145E+05
 cg2d: Sum(rhs),rhsMax =  -1.05111079171232E+02  1.32957059320774E+00
(PID.TID 0000.0001)  ploadbar=  1.01086358784518E+05
 cg2d: Sum(rhs),rhsMax =  -1.05179697292539E+02  1.32879762392746E+00
(PID.TID 0000.0001)  ploadbar=  1.01087470564890E+05
 cg2d: Sum(rhs),rhsMax =  -1.05208536523572E+02  1.32854464850232E+00
(PID.TID 0000.0001)  ploadbar=  1.01088679107958E+05
 cg2d: Sum(rhs),rhsMax =  -1.05144845501123E+02  1.32947026016786E+00
(PID.TID 0000.0001)  ploadbar=  1.01089887651027E+05
 cg2d: Sum(rhs),rhsMax =  -1.04974077377210E+02  1.33176529086169E+00
(PID.TID 0000.0001)  ploadbar=  1.01091096194095E+05
 cg2d: Sum(rhs),rhsMax =  -1.04690571200236E+02  1.33551008254894E+00
(PID.TID 0000.0001)  ploadbar=  1.01092304737163E+05
 cg2d: Sum(rhs),rhsMax =  -1.04333248779344E+02  1.34022048189097E+00
(PID.TID 0000.0001)  ploadbar=  1.01093513280232E+05
 cg2d: Sum(rhs),rhsMax =  -1.03955317072929E+02  1.34521967555643E+00
(PID.TID 0000.0001)  ploadbar=  1.01094721823300E+05
 cg2d: Sum(rhs),rhsMax =  -1.03623285222374E+02  1.34963816673384E+00
(PID.TID 0000.0001)  ploadbar=  1.01095371102940E+05
 cg2d: Sum(rhs),rhsMax =  -1.03353234360935E+02  1.35324129517708E+00
(PID.TID 0000.0001)  ploadbar=  1.01096020382580E+05
 cg2d: Sum(rhs),rhsMax =  -1.03184696100754E+02  1.35549070644917E+00
(PID.TID 0000.0001)  ploadbar=  1.01096669662220E+05
 cg2d: Sum(rhs),rhsMax =  -1.03125124819837E+02  1.35627490277327E+00
(PID.TID 0000.0001)  ploadbar=  1.01097318941861E+05
 cg2d: Sum(rhs),rhsMax =  -1.03142774647047E+02  1.35600785491986E+00
(PID.TID 0000.0001)  ploadbar=  1.01097968221501E+05
 cg2d: Sum(rhs),rhsMax =  -1.03230905462154E+02  1.35478015766665E+00
(PID.TID 0000.0001)  ploadbar=  1.01098617501141E+05
 cg2d: Sum(rhs),rhsMax =  -1.03414700925255E+02  1.35235144654026E+00
(PID.TID 0000.0001)  ploadbar=  1.01099430925222E+05
 cg2d: Sum(rhs),rhsMax =  -1.03629431790649E+02  1.34955589726729E+00
(PID.TID 0000.0001)  ploadbar=  1.01100244349304E+05
 cg2d: Sum(rhs),rhsMax =  -1.03817791704095E+02  1.34714323455854E+00
(PID.TID 0000.0001)  ploadbar=  1.01101057773385E+05
 cg2d: Sum(rhs),rhsMax =  -1.03974395454911E+02  1.34518405240502E+00
(PID.TID 0000.0001)  ploadbar=  1.01101871197466E+05
 cg2d: Sum(rhs),rhsMax =  -1.04088524487288E+02  1.34381768452828E+00
(PID.TID 0000.0001)  ploadbar=  1.01102684621547E+05
 cg2d: Sum(rhs),rhsMax =  -1.04167453903065E+02  1.34294537078379E+00
(PID.TID 0000.0001)  ploadbar=  1.01103498045629E+05
 cg2d: Sum(rhs),rhsMax =  -1.04232775005523E+02  1.34226688979136E+00
(PID.TID 0000.0001)  ploadbar=  1.01103703119546E+05
 cg2d: Sum(rhs),rhsMax =  -1.04293254118163E+02  1.34165188740588E+00
(PID.TID 0000.0001)  ploadbar=  1.01103908193462E+05
 cg2d: Sum(rhs),rhsMax =  -1.04345669832879E+02  1.34114713704414E+00
(PID.TID 0000.0001)  ploadbar=  1.01104113267379E+05
 cg2d: Sum(rhs),rhsMax =  -1.04445386981411E+02  1.34004086563019E+00
(PID.TID 0000.0001)  ploadbar=  1.01104318341296E+05
 cg2d: Sum(rhs),rhsMax =  -1.04652495070159E+02  1.33756251253139E+00
(PID.TID 0000.0001)  ploadbar=  1.01104523415213E+05
 cg2d: Sum(rhs),rhsMax =  -1.04920747853999E+02  1.33431013777163E+00
(PID.TID 0000.0001)  ploadbar=  1.01104728489130E+05
 cg2d: Sum(rhs),rhsMax =  -1.05153279478207E+02  1.33151898302640E+00
(PID.TID 0000.0001)  ploadbar=  1.01105199167165E+05
 cg2d: Sum(rhs),rhsMax =  -1.05340321769333E+02  1.32929782077122E+00
(PID.TID 0000.0001)  ploadbar=  1.01105669845201E+05
 cg2d: Sum(rhs),rhsMax =  -1.05429458608868E+02  1.32830036383352E+00
(PID.TID 0000.0001)  ploadbar=  1.01106140523236E+05
 cg2d: Sum(rhs),rhsMax =  -1.05403687895705E+02  1.32873402553246E+00
(PID.TID 0000.0001)  ploadbar=  1.01106611201272E+05
 cg2d: Sum(rhs),rhsMax =  -1.05262637325312E+02  1.33060179778779E+00
(PID.TID 0000.0001)  ploadbar=  1.01107081879307E+05
 cg2d: Sum(rhs),rhsMax =  -1.04998654492583E+02  1.33400023743426E+00
(PID.TID 0000.0001)  ploadbar=  1.01107552557342E+05
 cg2d: Sum(rhs),rhsMax =  -1.04639583406446E+02  1.33862276838896E+00
(PID.TID 0000.0001)  ploadbar=  1.01107038172342E+05
 cg2d: Sum(rhs),rhsMax =  -1.04300162426662E+02  1.34300638337515E+00
(PID.TID 0000.0001)  ploadbar=  1.01106523787342E+05
 cg2d: Sum(rhs),rhsMax =  -1.03978818806485E+02  1.34716303263647E+00
(PID.TID 0000.0001)  ploadbar=  1.01106009402342E+05
 cg2d: Sum(rhs),rhsMax =  -1.03652483878366E+02  1.35138893975654E+00
(PID.TID 0000.0001)  ploadbar=  1.01105495017342E+05
 cg2d: Sum(rhs),rhsMax =  -1.03339570817982E+02  1.35544384438288E+00
(PID.TID 0000.0001)  ploadbar=  1.01104980632342E+05
 cg2d: Sum(rhs),rhsMax =  -1.03081411986196E+02  1.35877790460868E+00
(PID.TID 0000.0001)  ploadbar=  1.01104466247342E+05
 cg2d: Sum(rhs),rhsMax =  -1.02883529604040E+02  1.36139345949044E+00
(PID.TID 0000.0001)  ploadbar=  1.01104112476018E+05
 cg2d: Sum(rhs),rhsMax =  -1.02718113279309E+02  1.36362618142233E+00
(PID.TID 0000.0001)  ploadbar=  1.01103758704693E+05
 cg2d: Sum(rhs),rhsMax =  -1.02588534931818E+02  1.36542575168979E+00
(PID.TID 0000.0001)  ploadbar=  1.01103404933368E+05
 cg2d: Sum(rhs),rhsMax =  -1.02480405077664E+02  1.36698088499287E+00
(PID.TID 0000.0001)  ploadbar=  1.01103051162044E+05
 cg2d: Sum(rhs),rhsMax =  -1.02390258440584E+02  1.36833777726778E+00
(PID.TID 0000.0001)  ploadbar=  1.01102697390719E+05
 cg2d: Sum(rhs),rhsMax =  -1.02333848695025E+02  1.36930160580321E+00
(PID.TID 0000.0001)  ploadbar=  1.01102343619395E+05
 cg2d: Sum(rhs),rhsMax =  -1.02327054743194E+02  1.36962448835591E+00
(PID.TID 0000.0001)  ploadbar=  1.01101332667425E+05
 cg2d: Sum(rhs),rhsMax =  -1.02363995461450E+02  1.36936816806937E+00
(PID.TID 0000.0001)  ploadbar=  1.01100321715456E+05
 cg2d: Sum(rhs),rhsMax =  -1.02470827905968E+02  1.36818553542797E+00
(PID.TID 0000.0001)  ploadbar=  1.01099310763487E+05
 cg2d: Sum(rhs),rhsMax =  -1.02630505022957E+02  1.36630598609345E+00
(PID.TID 0000.0001)  ploadbar=  1.01098299811517E+05
 cg2d: Sum(rhs),rhsMax =  -1.02818170072885E+02  1.36405517408907E+00
(PID.TID 0000.0001)  ploadbar=  1.01097288859548E+05
 cg2d: Sum(rhs),rhsMax =  -1.03013902567913E+02  1.36169407078996E+00
(PID.TID 0000.0001)  ploadbar=  1.01096277907579E+05
 cg2d: Sum(rhs),rhsMax =  -1.03269524694678E+02  1.35854319873062E+00
(PID.TID 0000.0001)  ploadbar=  1.01094518388269E+05
 cg2d: Sum(rhs),rhsMax =  -1.03504398711597E+02  1.35566179500329E+00
(PID.TID 0000.0001)  ploadbar=  1.01092758868959E+05
 cg2d: Sum(rhs),rhsMax =  -1.03695185347018E+02  1.35335128039560E+00
(PID.TID 0000.0001)  ploadbar=  1.01090999349649E+05
 cg2d: Sum(rhs),rhsMax =  -1.03824975772963E+02  1.35182584134534E+00
(PID.TID 0000.0001)  ploadbar=  1.01089239830339E+05
 cg2d: Sum(rhs),rhsMax =  -1.03906878205930E+02  1.35090257200388E+00
(PID.TID 0000.0001)  ploadbar=  1.01087480311030E+05
 cg2d: Sum(rhs),rhsMax =  -1.04055541329559E+02  1.34908394576445E+00
(PID.TID 0000.0001)  ploadbar=  1.01085720791720E+05
 cg2d: Sum(rhs),rhsMax =  -1.04183212464043E+02  1.34754309706889E+00
(PID.TID 0000.0001)  ploadbar=  1.01084030024133E+05
 cg2d: Sum(rhs),rhsMax =  -1.04262537348063E+02  1.34662095751137E+00
(PID.TID 0000.0001)  ploadbar=  1.01082339256547E+05
 cg2d: Sum(rhs),rhsMax =  -1.04332820004238E+02  1.34580318583883E+00
(PID.TID 0000.0001)  ploadbar=  1.01080648488960E+05
 cg2d: Sum(rhs),rhsMax =  -1.04475959191372E+02  1.34403275535895E+00
(PID.TID 0000.0001)  ploadbar=  1.01078957721374E+05
 cg2d: Sum(rhs),rhsMax =  -1.04720047090701E+02  1.34095373080413E+00
(PID.TID 0000.0001)  ploadbar=  1.01077266953787E+05
 cg2d: Sum(rhs),rhsMax =  -1.05088958655010E+02  1.33627614520813E+00
(PID.TID 0000.0001)  ploadbar=  1.01075576186201E+05
 cg2d: Sum(rhs),rhsMax =  -1.05566563746373E+02  1.33030872306346E+00
(PID.TID 0000.0001)  ploadbar=  1.01074345200349E+05
 cg2d: Sum(rhs),rhsMax =  -1.06221556756616E+02  1.32220951878157E+00
(PID.TID 0000.0001)  ploadbar=  1.01073114214496E+05
 cg2d: Sum(rhs),rhsMax =  -1.05621200199805E+02  1.32985372283365E+00
(PID.TID 0000.0001)  ploadbar=  1.01071883228644E+05
 cg2d: Sum(rhs),rhsMax =  -1.04790805410078E+02  1.34054449715705E+00
(PID.TID 0000.0001)  ploadbar=  1.01070652242792E+05
 cg2d: Sum(rhs),rhsMax =  -1.04015409274344E+02  1.35071061884708E+00
(PID.TID 0000.0001)  ploadbar=  1.01069421256940E+05
 cg2d: Sum(rhs),rhsMax =  -1.03322313731433E+02  1.35996768449354E+00
(PID.TID 0000.0001)  ploadbar=  1.01068190271088E+05
 cg2d: Sum(rhs),rhsMax =  -1.02751670070085E+02  1.36774706697836E+00
(PID.TID 0000.0001)  ploadbar=  1.01068201800849E+05
 cg2d: Sum(rhs),rhsMax =  -1.02324208015573E+02  1.37370788165445E+00
(PID.TID 0000.0001)  ploadbar=  1.01068213330611E+05
 cg2d: Sum(rhs),rhsMax =  -1.02049096184254E+02  1.37767602876705E+00
(PID.TID 0000.0001)  ploadbar=  1.01068224860372E+05
 cg2d: Sum(rhs),rhsMax =  -1.01973803338763E+02  1.37897277396854E+00
(PID.TID 0000.0001)  ploadbar=  1.01068236390134E+05
 cg2d: Sum(rhs),rhsMax =  -1.02063076054231E+02  1.37805383688193E+00
(PID.TID 0000.0001)  ploadbar=  1.01068247919895E+05
 cg2d: Sum(rhs),rhsMax =  -1.02304662860675E+02  1.37508330374400E+00
(PID.TID 0000.0001)  ploadbar=  1.01068259449657E+05
 cg2d: Sum(rhs),rhsMax =  -1.02618093591524E+02  1.37115511460930E+00
(PID.TID 0000.0001)  ploadbar=  1.01067693816830E+05
 cg2d: Sum(rhs),rhsMax =  -1.02950972750555E+02  1.36697101190592E+00
(PID.TID 0000.0001)  ploadbar=  1.01067128184004E+05
 cg2d: Sum(rhs),rhsMax =  -1.03315675420274E+02  1.36236930723644E+00
(PID.TID 0000.0001)  ploadbar=  1.01066562551178E+05
 cg2d: Sum(rhs),rhsMax =  -1.03723533622624E+02  1.35721076769933E+00
(PID.TID 0000.0001)  ploadbar=  1.01065996918351E+05
 cg2d: Sum(rhs),rhsMax =  -1.04172993372100E+02  1.35152478316485E+00
(PID.TID 0000.0001)  ploadbar=  1.01065431285525E+05
 cg2d: Sum(rhs),rhsMax =  -1.04650998344938E+02  1.34548959048612E+00
(PID.TID 0000.0001)  ploadbar=  1.01064865652699E+05
 cg2d: Sum(rhs),rhsMax =  -1.05112211316229E+02  1.33971391668124E+00
(PID.TID 0000.0001)  ploadbar=  1.01065165672544E+05
 cg2d: Sum(rhs),rhsMax =  -1.05495565087649E+02  1.33494827841825E+00
(PID.TID 0000.0001)  ploadbar=  1.01065465692388E+05
 cg2d: Sum(rhs),rhsMax =  -1.05788790305501E+02  1.33132091546078E+00
(PID.TID 0000.0001)  ploadbar=  1.01065765712233E+05
 cg2d: Sum(rhs),rhsMax =  -1.06067803257359E+02  1.32786173249444E+00
(PID.TID 0000.0001)  ploadbar=  1.01066065732078E+05
 cg2d: Sum(rhs),rhsMax =  -1.06440649893994E+02  1.32321990704323E+00
(PID.TID 0000.0001)  ploadbar=  1.01066365751923E+05
 cg2d: Sum(rhs),rhsMax =  -1.06906752700269E+02  1.31742228484458E+00
(PID.TID 0000.0001)  ploadbar=  1.01066665771768E+05
 cg2d: Sum(rhs),rhsMax =  -1.07281863852289E+02  1.31282616587038E+00
(PID.TID 0000.0001)  ploadbar=  1.01067705448289E+05
 cg2d: Sum(rhs),rhsMax =  -1.07506049775342E+02  1.31011735150745E+00
(PID.TID 0000.0001)  ploadbar=  1.01068745124810E+05
 cg2d: Sum(rhs),rhsMax =  -1.07649272486948E+02  1.30842144678831E+00
(PID.TID 0000.0001)  ploadbar=  1.01069784801331E+05
 cg2d: Sum(rhs),rhsMax =  -1.07746519080526E+02  1.30730628994806E+00
(PID.TID 0000.0001)  ploadbar=  1.01070824477851E+05
 cg2d: Sum(rhs),rhsMax =  -1.07885094612590E+02  1.30570704285283E+00
(PID.TID 0000.0001)  ploadbar=  1.01071864154372E+05
 cg2d: Sum(rhs),rhsMax =  -1.08065147543018E+02  1.30362257266627E+00
(PID.TID 0000.0001)  ploadbar=  1.01072903830893E+05
 cg2d: Sum(rhs),rhsMax =  -1.08329848085582E+02  1.30053737269905E+00
(PID.TID 0000.0001)  ploadbar=  1.01073676514122E+05
 cg2d: Sum(rhs),rhsMax =  -1.08666633948949E+02  1.29660815920152E+00
(PID.TID 0000.0001)  ploadbar=  1.01074449197350E+05
 cg2d: Sum(rhs),rhsMax =  -1.09065329815073E+02  1.29196926543614E+00
(PID.TID 0000.0001)  ploadbar=  1.01075221880579E+05
 cg2d: Sum(rhs),rhsMax =  -1.09506828509834E+02  1.28685620412139E+00
(PID.TID 0000.0001)  ploadbar=  1.01075994563807E+05
 cg2d: Sum(rhs),rhsMax =  -1.09989716976941E+02  1.28128740844758E+00
(PID.TID 0000.0001)  ploadbar=  1.01076767247035E+05
 cg2d: Sum(rhs),rhsMax =  -1.10572325349832E+02  1.27459619306783E+00
(PID.TID 0000.0001)  ploadbar=  1.01077539930264E+05
 cg2d: Sum(rhs),rhsMax =  -1.11157391435040E+02  1.26794474616529E+00
(PID.TID 0000.0001)  ploadbar=  1.01077942405293E+05
 cg2d: Sum(rhs),rhsMax =  -1.11687141684811E+02  1.26197642866370E+00
(PID.TID 0000.0001)  ploadbar=  1.01078344880322E+05
 cg2d: Sum(rhs),rhsMax =  -1.12150343585751E+02  1.25679882638210E+00
(PID.TID 0000.0001)  ploadbar=  1.01078747355350E+05
 cg2d: Sum(rhs),rhsMax =  -1.12264888636934E+02  1.25553917946931E+00
(PID.TID 0000.0001)  ploadbar=  1.01079149830379E+05
 cg2d: Sum(rhs),rhsMax =  -1.12384437610284E+02  1.25421071303509E+00
(PID.TID 0000.0001)  ploadbar=  1.01079552305408E+05
 cg2d: Sum(rhs),rhsMax =  -1.12525324172378E+02  1.25262640782851E+00
(PID.TID 0000.0001)  ploadbar=  1.01079954780437E+05
 cg2d: Sum(rhs),rhsMax =  -1.12594897718921E+02  1.25182464936765E+00
(PID.TID 0000.0001)  ploadbar=  1.01080394725756E+05
 cg2d: Sum(rhs),rhsMax =  -1.12682035322897E+02  1.25080295735604E+00
(PID.TID 0000.0001)  ploadbar=  1.01080834671075E+05
 cg2d: Sum(rhs),rhsMax =  -1.12816631272935E+02  1.24922478949879E+00
(PID.TID 0000.0001)  ploadbar=  1.01081274616394E+05
 cg2d: Sum(rhs),rhsMax =  -1.13107017002412E+02  1.24589287636107E+00
(PID.TID 0000.0001)  ploadbar=  1.01081714561713E+05
 cg2d: Sum(rhs),rhsMax =  -1.13512429970782E+02  1.24127715273945E+00
(PID.TID 0000.0001)  ploadbar=  1.01082154507031E+05
 cg2d: Sum(rhs),rhsMax =  -1.14134054932201E+02  1.23430968818615E+00
(PID.TID 0000.0001)  ploadbar=  1.01082594452350E+05
 cg2d: Sum(rhs),rhsMax =  -1.14647580671965E+02  1.22863830214290E+00
(PID.TID 0000.0001)  ploadbar=  1.01082372582597E+05
 cg2d: Sum(rhs),rhsMax =  -1.15043562680942E+02  1.22431251878408E+00
(PID.TID 0000.0001)  ploadbar=  1.01082150712844E+05
 cg2d: Sum(rhs),rhsMax =  -1.15316269827611E+02  1.22136076698513E+00
(PID.TID 0000.0001)  ploadbar=  1.01081928843090E+05
 cg2d: Sum(rhs),rhsMax =  -1.15440739807924E+02  1.22002722137868E+00
(PID.TID 0000.0001)  ploadbar=  1.01081706973337E+05
 cg2d: Sum(rhs),rhsMax =  -1.15236745385237E+02  1.22220644725357E+00
(PID.TID 0000.0001)  ploadbar=  1.01081485103584E+05
 cg2d: Sum(rhs),rhsMax =  -1.15003896023414E+02  1.22473128771256E+00
(PID.TID 0000.0001)  ploadbar=  1.01081263233830E+05
 cg2d: Sum(rhs),rhsMax =  -1.14746355836302E+02  1.22752046100451E+00
(PID.TID 0000.0001)  ploadbar=  1.01081386952650E+05
 cg2d: Sum(rhs),rhsMax =  -1.14449082177776E+02  1.23072570221682E+00
(PID.TID 0000.0001)  ploadbar=  1.01081510671469E+05
 cg2d: Sum(rhs),rhsMax =  -1.14128326297552E+02  1.23417237719215E+00
(PID.TID 0000.0001)  ploadbar=  1.01081634390288E+05
 cg2d: Sum(rhs),rhsMax =  -1.13791520243951E+02  1.23777991001867E+00
(PID.TID 0000.0001)  ploadbar=  1.01081758109107E+05
 cg2d: Sum(rhs),rhsMax =  -1.13463762941775E+02  1.24127524387718E+00
(PID.TID 0000.0001)  ploadbar=  1.01081881827926E+05
 cg2d: Sum(rhs),rhsMax =  -1.13203399438835E+02  1.24402066028069E+00
(PID.TID 0000.0001)  ploadbar=  1.01082005546745E+05
 cg2d: Sum(rhs),rhsMax =  -1.12917262730045E+02  1.24708220707230E+00
(PID.TID 0000.0001)  ploadbar=  1.01082080134388E+05
 cg2d: Sum(rhs),rhsMax =  -1.12616724940565E+02  1.25032111562947E+00
(PID.TID 0000.0001)  ploadbar=  1.01082154722030E+05
 cg2d: Sum(rhs),rhsMax =  -1.12401218071321E+02  1.25263279771669E+00
(PID.TID 0000.0001)  ploadbar=  1.01082229309673E+05
 cg2d: Sum(rhs),rhsMax =  -1.12287067983197E+02  1.25382605972539E+00
(PID.TID 0000.0001)  ploadbar=  1.01082303897315E+05
 cg2d: Sum(rhs),rhsMax =  -1.12264279029255E+02  1.25400410049471E+00
(PID.TID 0000.0001)  ploadbar=  1.01082378484958E+05
 cg2d: Sum(rhs),rhsMax =  -1.12321315903268E+02  1.25329133130100E+00
(PID.TID 0000.0001)  ploadbar=  1.01082453072600E+05
 cg2d: Sum(rhs),rhsMax =  -1.12442972955535E+02  1.25185161392508E+00
(PID.TID 0000.0001)  ploadbar=  1.01081947699879E+05
 cg2d: Sum(rhs),rhsMax =  -1.12594937911244E+02  1.25004701760200E+00
(PID.TID 0000.0001)  ploadbar=  1.01081442327158E+05
 cg2d: Sum(rhs),rhsMax =  -1.12755834119788E+02  1.24811126235332E+00
(PID.TID 0000.0001)  ploadbar=  1.01080936954437E+05
 cg2d: Sum(rhs),rhsMax =  -1.12981211783367E+02  1.24542672974851E+00
(PID.TID 0000.0001)  ploadbar=  1.01080431581715E+05
 cg2d: Sum(rhs),rhsMax =  -1.13357121390033E+02  1.24105678707299E+00
(PID.TID 0000.0001)  ploadbar=  1.01079926208994E+05
 cg2d: Sum(rhs),rhsMax =  -1.13890976433641E+02  1.23495660027758E+00
(PID.TID 0000.0001)  ploadbar=  1.01079420836273E+05
 cg2d: Sum(rhs),rhsMax =  -1.14402086953555E+02  1.22921942003695E+00
(PID.TID 0000.0001)  ploadbar=  1.01077976153326E+05
 cg2d: Sum(rhs),rhsMax =  -1.14909216418853E+02  1.22362247615827E+00
(PID.TID 0000.0001)  ploadbar=  1.01076531470380E+05
 cg2d: Sum(rhs),rhsMax =  -1.15413244215469E+02  1.21814149347602E+00
(PID.TID 0000.0001)  ploadbar=  1.01075086787433E+05
 cg2d: Sum(rhs),rhsMax =  -1.15899046793591E+02  1.21292394641956E+00
(PID.TID 0000.0001)  ploadbar=  1.01073642104487E+05
 cg2d: Sum(rhs),rhsMax =  -1.16354333793230E+02  1.20808522057371E+00
(PID.TID 0000.0001)  ploadbar=  1.01072197421540E+05
 cg2d: Sum(rhs),rhsMax =  -1.16811981716237E+02  1.20326936821362E+00
(PID.TID 0000.0001)  ploadbar=  1.01070752738593E+05
 cg2d: Sum(rhs),rhsMax =  -1.17248134939659E+02  1.19870177639400E+00
(PID.TID 0000.0001)  ploadbar=  1.01069945020714E+05
 cg2d: Sum(rhs),rhsMax =  -1.17664101937586E+02  1.19435593680455E+00
(PID.TID 0000.0001)  ploadbar=  1.01069137302834E+05
 cg2d: Sum(rhs),rhsMax =  -1.18046407306878E+02  1.19036088648787E+00
(PID.TID 0000.0001)  ploadbar=  1.01068329584954E+05
 cg2d: Sum(rhs),rhsMax =  -1.18383640790323E+02  1.18682882401943E+00
(PID.TID 0000.0001)  ploadbar=  1.01067521867074E+05
 cg2d: Sum(rhs),rhsMax =  -1.18681275553264E+02  1.18369824487609E+00
(PID.TID 0000.0001)  ploadbar=  1.01066714149195E+05
 cg2d: Sum(rhs),rhsMax =  -1.18953521777176E+02  1.18081973092871E+00
(PID.TID 0000.0001)  ploadbar=  1.01065906431315E+05
 cg2d: Sum(rhs),rhsMax =  -1.19204726860670E+02  1.17818341928871E+00
(PID.TID 0000.0001)  ploadbar=  1.01066167916094E+05
 cg2d: Sum(rhs),rhsMax =  -1.19417086438589E+02  1.17594734308412E+00
(PID.TID 0000.0001)  ploadbar=  1.01066429400872E+05
 cg2d: Sum(rhs),rhsMax =  -1.19366410166968E+02  1.17631078741086E+00
(PID.TID 0000.0001)  ploadbar=  1.01066690885651E+05
 cg2d: Sum(rhs),rhsMax =  -1.18683763603906E+02  1.18294594583083E+00
(PID.TID 0000.0001)  ploadbar=  1.01066952370430E+05
 cg2d: Sum(rhs),rhsMax =  -1.18060815770825E+02  1.18906212723158E+00
(PID.TID 0000.0001)  ploadbar=  1.01067213855208E+05
 cg2d: Sum(rhs),rhsMax =  -1.17475461867436E+02  1.19485787608348E+00
(PID.TID 0000.0001)  ploadbar=  1.01067475339987E+05
 cg2d: Sum(rhs),rhsMax =  -1.17067443139781E+02  1.19887876500622E+00
(PID.TID 0000.0001)  ploadbar=  1.01067863952598E+05
 cg2d: Sum(rhs),rhsMax =  -1.16708983848688E+02  1.20238783239248E+00
(PID.TID 0000.0001)  ploadbar=  1.01068252565209E+05
 cg2d: Sum(rhs),rhsMax =  -1.16417313612769E+02  1.20519058042552E+00
(PID.TID 0000.0001)  ploadbar=  1.01068641177819E+05
 cg2d: Sum(rhs),rhsMax =  -1.16233119001664E+02  1.20685204805714E+00
(PID.TID 0000.0001)  ploadbar=  1.01069029790430E+05
 cg2d: Sum(rhs),rhsMax =  -1.16151450543996E+02  1.20741284665514E+00
(PID.TID 0000.0001)  ploadbar=  1.01069418403041E+05
 cg2d: Sum(rhs),rhsMax =  -1.16165317167172E+02  1.20694257003210E+00
(PID.TID 0000.0001)  ploadbar=  1.01069807015652E+05
 cg2d: Sum(rhs),rhsMax =  -1.16083912250733E+02  1.20752024264900E+00
(PID.TID 0000.0001)  ploadbar=  1.01069465936345E+05
 cg2d: Sum(rhs),rhsMax =  -1.16064368953114E+02  1.20749171950597E+00
(PID.TID 0000.0001)  ploadbar=  1.01069124857038E+05
 cg2d: Sum(rhs),rhsMax =  -1.16142679570462E+02  1.20646902613326E+00
(PID.TID 0000.0001)  ploadbar=  1.01068783777731E+05
 cg2d: Sum(rhs),rhsMax =  -1.16323562263589E+02  1.20440425953260E+00
(PID.TID 0000.0001)  ploadbar=  1.01068442698424E+05
 cg2d: Sum(rhs),rhsMax =  -1.16600651038438E+02  1.20137310781861E+00
(PID.TID 0000.0001)  ploadbar=  1.01068101619117E+05
 cg2d: Sum(rhs),rhsMax =  -1.16977657348673E+02  1.19734745630775E+00
(PID.TID 0000.0001)  ploadbar=  1.01067760539810E+05
 cg2d: Sum(rhs),rhsMax =  -1.17480174403598E+02  1.19209311397479E+00
(PID.TID 0000.0001)  ploadbar=  1.01067415606829E+05
 cg2d: Sum(rhs),rhsMax =  -1.18088856893808E+02  1.18582943298174E+00
(PID.TID 0000.0001)  ploadbar=  1.01067070673848E+05
 cg2d: Sum(rhs),rhsMax =  -1.18823460180827E+02  1.17839044186688E+00
(PID.TID 0000.0001)  ploadbar=  1.01066725740868E+05
 cg2d: Sum(rhs),rhsMax =  -1.19702378203765E+02  1.16964126197735E+00
(PID.TID 0000.0001)  ploadbar=  1.01066380807887E+05
 cg2d: Sum(rhs),rhsMax =  -1.20745867426142E+02  1.15944294792743E+00
(PID.TID 0000.0001)  ploadbar=  1.01066035874906E+05
 cg2d: Sum(rhs),rhsMax =  -1.21971810651057E+02  1.14770133338967E+00
(PID.TID 0000.0001)  ploadbar=  1.01065690941925E+05
 cg2d: Sum(rhs),rhsMax =  -1.19979241415903E+02  1.16668429079782E+00
(PID.TID 0000.0001)  ploadbar=  1.01065917913285E+05
 cg2d: Sum(rhs),rhsMax =  -1.17385603996050E+02  1.19238148506405E+00
(PID.TID 0000.0001)  ploadbar=  1.01066144884645E+05
 cg2d: Sum(rhs),rhsMax =  -1.14889410139044E+02  1.21820311143643E+00
(PID.TID 0000.0001)  ploadbar=  1.01066371856005E+05
 cg2d: Sum(rhs),rhsMax =  -1.12692034483811E+02  1.24186768033306E+00
(PID.TID 0000.0001)  ploadbar=  1.01066598827366E+05
 cg2d: Sum(rhs),rhsMax =  -1.11933578626478E+02  1.25018672796999E+00
(PID.TID 0000.0001)  ploadbar=  1.01066825798726E+05
 cg2d: Sum(rhs),rhsMax =  -1.11272786113275E+02  1.25748975264340E+00
(PID.TID 0000.0001)  ploadbar=  1.01067052770086E+05
 cg2d: Sum(rhs),rhsMax =  -1.10570057448905E+02  1.26535860391062E+00
(PID.TID 0000.0001)  ploadbar=  1.01066515449449E+05
 cg2d: Sum(rhs),rhsMax =  -1.09843295274482E+02  1.27359444575321E+00
(PID.TID 0000.0001)  ploadbar=  1.01065978128812E+05
 cg2d: Sum(rhs),rhsMax =  -1.09097226099928E+02  1.28214561496966E+00
(PID.TID 0000.0001)  ploadbar=  1.01065440808176E+05
 cg2d: Sum(rhs),rhsMax =  -1.08331219308510E+02  1.29102862302246E+00
(PID.TID 0000.0001)  ploadbar=  1.01064903487539E+05
 cg2d: Sum(rhs),rhsMax =  -1.07551170171624E+02  1.30018330844459E+00
(PID.TID 0000.0001)  ploadbar=  1.01064366166902E+05
 cg2d: Sum(rhs),rhsMax =  -1.06758074859375E+02  1.30960654895297E+00
(PID.TID 0000.0001)  ploadbar=  1.01063828846265E+05
 cg2d: Sum(rhs),rhsMax =  -1.05968927527555E+02  1.31918189499225E+00
(PID.TID 0000.0001)  ploadbar=  1.01062860813403E+05
 cg2d: Sum(rhs),rhsMax =  -1.05157164677646E+02  1.32922489755838E+00
(PID.TID 0000.0001)  ploadbar=  1.01061892780541E+05
 cg2d: Sum(rhs),rhsMax =  -1.04113703877499E+02  1.34243190828043E+00
(PID.TID 0000.0001)  ploadbar=  1.01060924747679E+05
 cg2d: Sum(rhs),rhsMax =  -1.03207265475356E+02  1.35413197265142E+00
(PID.TID 0000.0001)  ploadbar=  1.01059956714817E+05
 cg2d: Sum(rhs),rhsMax =  -1.02163012383898E+02  1.36790774177655E+00
(PID.TID 0000.0001)  ploadbar=  1.01058988681955E+05
 cg2d: Sum(rhs),rhsMax =  -1.01478606406002E+02  1.37709186011337E+00
(PID.TID 0000.0001)  ploadbar=  1.01058020649092E+05
 cg2d: Sum(rhs),rhsMax =  -1.00896154947074E+02  1.38499548790976E+00
(PID.TID 0000.0001)  ploadbar=  1.01056804770489E+05
 cg2d: Sum(rhs),rhsMax =  -1.00376003103527E+02  1.39211717215397E+00
(PID.TID 0000.0001)  ploadbar=  1.01055588891885E+05
 cg2d: Sum(rhs),rhsMax =  -9.99025357933274E+01  1.39865092871882E+00
(PID.TID 0000.0001)  ploadbar=  1.01054373013282E+05
 cg2d: Sum(rhs),rhsMax =  -9.94492613357403E+01  1.40494878729693E+00
(PID.TID 0000.0001)  ploadbar=  1.01053157134678E+05
 cg2d: Sum(rhs),rhsMax =  -9.90150114806102E+01  1.41101515755326E+00
(PID.TID 0000.0001)  ploadbar=  1.01051941256075E+05
 cg2d: Sum(rhs),rhsMax =  -9.86020315827652E+01  1.41680859689174E+00
(PID.TID 0000.0001)  ploadbar=  1.01050725377471E+05
 cg2d: Sum(rhs),rhsMax =  -9.82226814182542E+01  1.42219193797874E+00
(PID.TID 0000.0001)  ploadbar=  1.01050895725358E+05
 cg2d: Sum(rhs),rhsMax =  -9.78602751637050E+01  1.42738673878133E+00
(PID.TID 0000.0001)  ploadbar=  1.01051066073245E+05
 cg2d: Sum(rhs),rhsMax =  -9.75458670911419E+01  1.43192990960182E+00
(PID.TID 0000.0001)  ploadbar=  1.01051236421132E+05
 cg2d: Sum(rhs),rhsMax =  -9.72867545584287E+01  1.43569851828806E+00
(PID.TID 0000.0001)  ploadbar=  1.01051406769019E+05
 cg2d: Sum(rhs),rhsMax =  -9.70667488146952E+01  1.43891413909242E+00
(PID.TID 0000.0001)  ploadbar=  1.01051577116906E+05
 cg2d: Sum(rhs),rhsMax =  -9.69423676258285E+01  1.44071253646258E+00
(PID.TID 0000.0001)  ploadbar=  1.01051747464793E+05
 cg2d: Sum(rhs),rhsMax =  -9.71016220270491E+01  1.43828531951265E+00
(PID.TID 0000.0001)  ploadbar=  1.01051085321649E+05
 cg2d: Sum(rhs),rhsMax =  -9.75419947627459E+01  1.43169175326223E+00
(PID.TID 0000.0001)  ploadbar=  1.01050423178505E+05
 cg2d: Sum(rhs),rhsMax =  -9.82409860343404E+01  1.42136265898432E+00
(PID.TID 0000.0001)  ploadbar=  1.01049761035361E+05
 cg2d: Sum(rhs),rhsMax =  -9.91813198681545E+01  1.40770291453460E+00
(PID.TID 0000.0001)  ploadbar=  1.01049098892217E+05
 cg2d: Sum(rhs),rhsMax =  -1.00362344550208E+02  1.39091345906158E+00
(PID.TID 0000.0001)  ploadbar=  1.01048436749073E+05
 cg2d: Sum(rhs),rhsMax =  -1.01788581566381E+02  1.37116184603855E+00
(PID.TID 0000.0001)  ploadbar=  1.01047774605929E+05
 cg2d: Sum(rhs),rhsMax =  -1.03395396832009E+02  1.34966310845600E+00
(PID.TID 0000.0001)  ploadbar=  1.01046842045512E+05
 cg2d: Sum(rhs),rhsMax =  -1.05141067320011E+02  1.32710769066874E+00
(PID.TID 0000.0001)  ploadbar=  1.01045909485096E+05
 cg2d: Sum(rhs),rhsMax =  -1.07009102033556E+02  1.30382423948858E+00
(PID.TID 0000.0001)  ploadbar=  1.01044976924680E+05
 cg2d: Sum(rhs),rhsMax =  -1.09006238832236E+02  1.27984664896725E+00
(PID.TID 0000.0001)  ploadbar=  1.01044044364264E+05
 cg2d: Sum(rhs),rhsMax =  -1.11134665690650E+02  1.25526855867458E+00
(PID.TID 0000.0001)  ploadbar=  1.01043111803847E+05
 cg2d: Sum(rhs),rhsMax =  -1.13384676613002E+02  1.23030980279715E+00
(PID.TID 0000.0001)  ploadbar=  1.01042179243431E+05
 cg2d: Sum(rhs),rhsMax =  -1.15721890250701E+02  1.20542015333393E+00
(PID.TID 0000.0001)  ploadbar=  1.01042379809552E+05
 cg2d: Sum(rhs),rhsMax =  -1.18148768701246E+02  1.18062204209182E+00
(PID.TID 0000.0001)  ploadbar=  1.01042580375673E+05
 cg2d: Sum(rhs),rhsMax =  -1.20653789613438E+02  1.15607074150024E+00
(PID.TID 0000.0001)  ploadbar=  1.01042780941794E+05
 cg2d: Sum(rhs),rhsMax =  -1.23223120965716E+02  1.13192482739821E+00
(PID.TID 0000.0001)  ploadbar=  1.01042981507914E+05
 cg2d: Sum(rhs),rhsMax =  -1.25014968333883E+02  1.11565748782549E+00
(PID.TID 0000.0001)  ploadbar=  1.01043182074035E+05
 cg2d: Sum(rhs),rhsMax =  -1.24717847729697E+02  1.11825933057963E+00
(PID.TID 0000.0001)  ploadbar=  1.01043382640156E+05
 cg2d: Sum(rhs),rhsMax =  -1.24505794520400E+02  1.12012906915090E+00
(PID.TID 0000.0001)  ploadbar=  1.01043863461879E+05
 cg2d: Sum(rhs),rhsMax =  -1.24409349263864E+02  1.12097415654753E+00
(PID.TID 0000.0001)  ploadbar=  1.01044344283603E+05
 cg2d: Sum(rhs),rhsMax =  -1.24394640909679E+02  1.12109272105386E+00
(PID.TID 0000.0001)  ploadbar=  1.01044825105326E+05
 cg2d: Sum(rhs),rhsMax =  -1.24385361030900E+02  1.12116954971671E+00
(PID.TID 0000.0001)  ploadbar=  1.01045305927050E+05
 cg2d: Sum(rhs),rhsMax =  -1.24299540796261E+02  1.12193526422022E+00
(PID.TID 0000.0001)  ploadbar=  1.01045786748773E+05
 cg2d: Sum(rhs),rhsMax =  -1.24040924878170E+02  1.12425015067494E+00
(PID.TID 0000.0001)  ploadbar=  1.01046267570497E+05
 cg2d: Sum(rhs),rhsMax =  -1.23691727133060E+02  1.12739249945845E+00
(PID.TID 0000.0001)  ploadbar=  1.01045805334902E+05
 cg2d: Sum(rhs),rhsMax =  -1.23288109497860E+02  1.13103136209307E+00
(PID.TID 0000.0001)  ploadbar=  1.01045343099307E+05
 cg2d: Sum(rhs),rhsMax =  -1.22720304892523E+02  1.13618481153044E+00
(PID.TID 0000.0001)  ploadbar=  1.01044880863712E+05
 cg2d: Sum(rhs),rhsMax =  -1.22123713233300E+02  1.14162564271306E+00
(PID.TID 0000.0001)  ploadbar=  1.01044418628118E+05
 cg2d: Sum(rhs),rhsMax =  -1.21689635293754E+02  1.14555686835964E+00
(PID.TID 0000.0001)  ploadbar=  1.01043956392523E+05
 cg2d: Sum(rhs),rhsMax =  -1.21428964297991E+02  1.14784455247005E+00
(PID.TID 0000.0001)  ploadbar=  1.01043494156928E+05
 cg2d: Sum(rhs),rhsMax =  -1.21437225107028E+02  1.14766970362357E+00
(PID.TID 0000.0001)  ploadbar=  1.01043132874117E+05
 cg2d: Sum(rhs),rhsMax =  -1.21216816168910E+02  1.14970969742438E+00
(PID.TID 0000.0001)  ploadbar=  1.01042771591305E+05
 cg2d: Sum(rhs),rhsMax =  -1.20994389487151E+02  1.15180906414035E+00
(PID.TID 0000.0001)  ploadbar=  1.01042410308493E+05
 cg2d: Sum(rhs),rhsMax =  -1.20879941636455E+02  1.15291476243060E+00
(PID.TID 0000.0001)  ploadbar=  1.01042049025682E+05
 cg2d: Sum(rhs),rhsMax =  -1.20819011722098E+02  1.15354181090060E+00
(PID.TID 0000.0001)  ploadbar=  1.01041687742870E+05
 cg2d: Sum(rhs),rhsMax =  -1.20744334783426E+02  1.15432672787405E+00
(PID.TID 0000.0001)  ploadbar=  1.01041326460059E+05
 cg2d: Sum(rhs),rhsMax =  -1.20529131239225E+02  1.15645797371748E+00
(PID.TID 0000.0001)  ploadbar=  1.01040417344321E+05
 cg2d: Sum(rhs),rhsMax =  -1.20120623653823E+02  1.16045605897767E+00
(PID.TID 0000.0001)  ploadbar=  1.01039508228583E+05
 cg2d: Sum(rhs),rhsMax =  -1.19533957544860E+02  1.16620894079338E+00
(PID.TID 0000.0001)  ploadbar=  1.01038599112845E+05
 cg2d: Sum(rhs),rhsMax =  -1.18753242017467E+02  1.17392791402443E+00
(PID.TID 0000.0001)  ploadbar=  1.01037689997107E+05
 cg2d: Sum(rhs),rhsMax =  -1.17803900257362E+02  1.18343256063300E+00
(PID.TID 0000.0001)  ploadbar=  1.01036780881369E+05
 cg2d: Sum(rhs),rhsMax =  -1.16730600088876E+02  1.19434218261585E+00
(PID.TID 0000.0001)  ploadbar=  1.01035871765631E+05
 cg2d: Sum(rhs),rhsMax =  -1.15460068233557E+02  1.20751958225785E+00
(PID.TID 0000.0001)  ploadbar=  1.01036080816239E+05
 cg2d: Sum(rhs),rhsMax =  -1.14173627201480E+02  1.22115366514679E+00
(PID.TID 0000.0001)  ploadbar=  1.01036289866848E+05
 cg2d: Sum(rhs),rhsMax =  -1.12934813109389E+02  1.23456887408278E+00
(PID.TID 0000.0001)  ploadbar=  1.01036498917456E+05
 cg2d: Sum(rhs),rhsMax =  -1.11812654427307E+02  1.24696553891111E+00
(PID.TID 0000.0001)  ploadbar=  1.01036707968065E+05
 cg2d: Sum(rhs),rhsMax =  -1.10837942941758E+02  1.25791847832737E+00
(PID.TID 0000.0001)  ploadbar=  1.01036917018674E+05
 cg2d: Sum(rhs),rhsMax =  -1.10021415355410E+02  1.26721173683940E+00
(PID.TID 0000.0001)  ploadbar=  1.01037126069282E+05
 cg2d: Sum(rhs),rhsMax =  -1.09372662937688E+02  1.27468327686088E+00
(PID.TID 0000.0001)  ploadbar=  1.01036922753219E+05
 cg2d: Sum(rhs),rhsMax =  -1.08842559717576E+02  1.28083032515001E+00
(PID.TID 0000.0001)  ploadbar=  1.01036719437157E+05
 cg2d: Sum(rhs),rhsMax =  -1.08379710115401E+02  1.28621687856138E+00
(PID.TID 0000.0001)  ploadbar=  1.01036516121094E+05
 cg2d: Sum(rhs),rhsMax =  -1.07984473099232E+02  1.29081569512070E+00
(PID.TID 0000.0001)  ploadbar=  1.01036312805031E+05
 cg2d: Sum(rhs),rhsMax =  -1.07716740293696E+02  1.29388733304974E+00
(PID.TID 0000.0001)  ploadbar=  1.01036109488968E+05
 cg2d: Sum(rhs),rhsMax =  -1.07569192952565E+02  1.29550159220562E+00
(PID.TID 0000.0001)  ploadbar=  1.01035906172906E+05
 cg2d: Sum(rhs),rhsMax =  -1.07323432356578E+02  1.29837825164703E+00
(PID.TID 0000.0001)  ploadbar=  1.01036618913281E+05
 cg2d: Sum(rhs),rhsMax =  -1.07026362908777E+02  1.30194006977591E+00
(PID.TID 0000.0001)  ploadbar=  1.01037331653657E+05
 cg2d: Sum(rhs),rhsMax =  -1.06726333141375E+02  1.30558812638370E+00
(PID.TID 0000.0001)  ploadbar=  1.01038044394032E+05
 cg2d: Sum(rhs),rhsMax =  -1.06450063036177E+02  1.30899107800657E+00
(PID.TID 0000.0001)  ploadbar=  1.01038757134408E+05
 cg2d: Sum(rhs),rhsMax =  -1.06203946723179E+02  1.31206640280144E+00
(PID.TID 0000.0001)  ploadbar=  1.01039469874783E+05
 cg2d: Sum(rhs),rhsMax =  -1.06050049551087E+02  1.31403928189245E+00
(PID.TID 0000.0001)  ploadbar=  1.01040182615159E+05
 cg2d: Sum(rhs),rhsMax =  -1.06048004389217E+02  1.31412611984298E+00
(PID.TID 0000.0001)  ploadbar=  1.01040264423601E+05
 cg2d: Sum(rhs),rhsMax =  -1.06135687204000E+02  1.31308564671531E+00
(PID.TID 0000.0001)  ploadbar=  1.01040346232043E+05
 cg2d: Sum(rhs),rhsMax =  -1.06298109216642E+02  1.31110753772987E+00
(PID.TID 0000.0001)  ploadbar=  1.01040428040485E+05
 cg2d: Sum(rhs),rhsMax =  -1.06514979415440E+02  1.30844785384381E+00
(PID.TID 0000.0001)  ploadbar=  1.01040509848927E+05
 cg2d: Sum(rhs),rhsMax =  -1.06973391335077E+02  1.30282864578066E+00
(PID.TID 0000.0001)  ploadbar=  1.01040591657369E+05
 cg2d: Sum(rhs),rhsMax =  -1.07453937914372E+02  1.29695892656323E+00
(PID.TID 0000.0001)  ploadbar=  1.01040673465811E+05
 cg2d: Sum(rhs),rhsMax =  -1.07933665831446E+02  1.29114870411344E+00
(PID.TID 0000.0001)  ploadbar=  1.01041585981252E+05
 cg2d: Sum(rhs),rhsMax =  -1.08412105202125E+02  1.28539201306019E+00
(PID.TID 0000.0001)  ploadbar=  1.01042498496693E+05
 cg2d: Sum(rhs),rhsMax =  -1.08880618872404E+02  1.27979019925024E+00
(PID.TID 0000.0001)  ploadbar=  1.01043411012134E+05
 cg2d: Sum(rhs),rhsMax =  -1.09334600046964E+02  1.27439672082478E+00
(PID.TID 0000.0001)  ploadbar=  1.01044323527575E+05
 cg2d: Sum(rhs),rhsMax =  -1.09772391586547E+02  1.26922211510127E+00
(PID.TID 0000.0001)  ploadbar=  1.01045236043016E+05
 cg2d: Sum(rhs),rhsMax =  -1.10194304807398E+02  1.26425026538426E+00
(PID.TID 0000.0001)  ploadbar=  1.01046148558457E+05
 cg2d: Sum(rhs),rhsMax =  -1.10581459338681E+02  1.25969869584915E+00
(PID.TID 0000.0001)  ploadbar=  1.01046454642047E+05
 cg2d: Sum(rhs),rhsMax =  -1.10958860449866E+02  1.25526330658017E+00
(PID.TID 0000.0001)  ploadbar=  1.01046760725636E+05
 cg2d: Sum(rhs),rhsMax =  -1.11433860956025E+02  1.24973426272751E+00
(PID.TID 0000.0001)  ploadbar=  1.01047066809225E+05
 cg2d: Sum(rhs),rhsMax =  -1.12033082137885E+02  1.24283942252859E+00
(PID.TID 0000.0001)  ploadbar=  1.01047372892815E+05
 cg2d: Sum(rhs),rhsMax =  -1.12761210632077E+02  1.23456898966897E+00
(PID.TID 0000.0001)  ploadbar=  1.01047678976404E+05
 cg2d: Sum(rhs),rhsMax =  -1.13620749630898E+02  1.22495011992201E+00
(PID.TID 0000.0001)  ploadbar=  1.01047985059993E+05
 cg2d: Sum(rhs),rhsMax =  -1.14446855787103E+02  1.21589218130048E+00
(PID.TID 0000.0001)  ploadbar=  1.01048631539130E+05
 cg2d: Sum(rhs),rhsMax =  -1.15225523878105E+02  1.20750492475325E+00
(PID.TID 0000.0001)  ploadbar=  1.01049278018267E+05
 cg2d: Sum(rhs),rhsMax =  -1.15031315357766E+02  1.20940830836729E+00
(PID.TID 0000.0001)  ploadbar=  1.01049924497404E+05
 cg2d: Sum(rhs),rhsMax =  -1.15541069858513E+02  1.20397177342093E+00
(PID.TID 0000.0001)  ploadbar=  1.01050570976541E+05
 cg2d: Sum(rhs),rhsMax =  -1.16352553135534E+02  1.19550823458917E+00
(PID.TID 0000.0001)  ploadbar=  1.01051217455678E+05
 cg2d: Sum(rhs),rhsMax =  -1.15839979995797E+02  1.20076091043121E+00
(PID.TID 0000.0001)  ploadbar=  1.01051863934815E+05
 cg2d: Sum(rhs),rhsMax =  -1.15464472892918E+02  1.20465246565155E+00
(PID.TID 0000.0001)  ploadbar=  1.01052582578949E+05
 cg2d: Sum(rhs),rhsMax =  -1.15244502198019E+02  1.20694715050585E+00
(PID.TID 0000.0001)  ploadbar=  1.01053301223084E+05
 cg2d: Sum(rhs),rhsMax =  -1.15185877711468E+02  1.20756460797994E+00
(PID.TID 0000.0001)  ploadbar=  1.01054019867219E+05
 cg2d: Sum(rhs),rhsMax =  -1.15287011836233E+02  1.20651353464771E+00
(PID.TID 0000.0001)  ploadbar=  1.01054738511354E+05
 cg2d: Sum(rhs),rhsMax =  -1.15527173802799E+02  1.20401380795497E+00
(PID.TID 0000.0001)  ploadbar=  1.01055457155489E+05
 cg2d: Sum(rhs),rhsMax =  -1.15894660988422E+02  1.20020321181424E+00
(PID.TID 0000.0001)  ploadbar=  1.01056175799623E+05
 cg2d: Sum(rhs),rhsMax =  -1.16376571898035E+02  1.19524474770565E+00
(PID.TID 0000.0001)  ploadbar=  1.01056132929999E+05
 cg2d: Sum(rhs),rhsMax =  -1.16908845931084E+02  1.18981085704264E+00
(PID.TID 0000.0001)  ploadbar=  1.01056090060374E+05
 cg2d: Sum(rhs),rhsMax =  -1.17490015077489E+02  1.18393104458183E+00
(PID.TID 0000.0001)  ploadbar=  1.01056047190749E+05
 cg2d: Sum(rhs),rhsMax =  -1.18107325731296E+02  1.17774849290219E+00
(PID.TID 0000.0001)  ploadbar=  1.01056004321124E+05
 cg2d: Sum(rhs),rhsMax =  -1.18519578546009E+02  1.17365665241637E+00
(PID.TID 0000.0001)  ploadbar=  1.01055961451499E+05
 cg2d: Sum(rhs),rhsMax =  -1.18977865700402E+02  1.16912692421025E+00
(PID.TID 0000.0001)  ploadbar=  1.01055918581874E+05
 cg2d: Sum(rhs),rhsMax =  -1.19458671562760E+02  1.16438446788194E+00
(PID.TID 0000.0001)  ploadbar=  1.01055445224146E+05
 cg2d: Sum(rhs),rhsMax =  -1.19960556245751E+02  1.15943627274750E+00
(PID.TID 0000.0001)  ploadbar=  1.01054971866419E+05
 cg2d: Sum(rhs),rhsMax =  -1.20487048422350E+02  1.15424858431015E+00
(PID.TID 0000.0001)  ploadbar=  1.01054498508691E+05
 cg2d: Sum(rhs),rhsMax =  -1.21054660662952E+02  1.14866568769357E+00
(PID.TID 0000.0001)  ploadbar=  1.01054025150963E+05
 cg2d: Sum(rhs),rhsMax =  -1.21647714710287E+02  1.14284414797598E+00
(PID.TID 0000.0001)  ploadbar=  1.01053551793236E+05
 cg2d: Sum(rhs),rhsMax =  -1.22245639613787E+02  1.13698200048569E+00
(PID.TID 0000.0001)  ploadbar=  1.01053078435508E+05
 cg2d: Sum(rhs),rhsMax =  -1.22934698331345E+02  1.13038531199230E+00
(PID.TID 0000.0001)  ploadbar=  1.01053642942400E+05
 cg2d: Sum(rhs),rhsMax =  -1.23698299385793E+02  1.12321335011487E+00
(PID.TID 0000.0001)  ploadbar=  1.01054207449292E+05
 cg2d: Sum(rhs),rhsMax =  -1.24567553907242E+02  1.11520316415118E+00
(PID.TID 0000.0001)  ploadbar=  1.01054771956184E+05
 cg2d: Sum(rhs),rhsMax =  -1.25563082398859E+02  1.10620902119241E+00
(PID.TID 0000.0001)  ploadbar=  1.01055336463077E+05
 cg2d: Sum(rhs),rhsMax =  -1.26709632764923E+02  1.09606525400394E+00
(PID.TID 0000.0001)  ploadbar=  1.01055900969969E+05
 cg2d: Sum(rhs),rhsMax =  -1.28033124166544E+02  1.08461757170382E+00
(PID.TID 0000.0001)  ploadbar=  1.01056465476861E+05
 cg2d: Sum(rhs),rhsMax =  -1.29541738131180E+02  1.07188601832438E+00
(PID.TID 0000.0001)  ploadbar=  1.01056323533534E+05
 cg2d: Sum(rhs),rhsMax =  -1.31132833862437E+02  1.05878689564417E+00
(PID.TID 0000.0001)  ploadbar=  1.01056181590206E+05
 cg2d: Sum(rhs),rhsMax =  -1.32728230673112E+02  1.04597554819213E+00
(PID.TID 0000.0001)  ploadbar=  1.01056039646879E+05
 cg2d: Sum(rhs),rhsMax =  -1.34263736609171E+02  1.03393565807546E+00
(PID.TID 0000.0001)  ploadbar=  1.01055897703552E+05
 cg2d: Sum(rhs),rhsMax =  -1.35663551479383E+02  1.02319667303166E+00
(PID.TID 0000.0001)  ploadbar=  1.01055755760224E+05
 cg2d: Sum(rhs),rhsMax =  -1.36874035222332E+02  1.01408253516597E+00
(PID.TID 0000.0001)  ploadbar=  1.01055613816897E+05
 cg2d: Sum(rhs),rhsMax =  -1.37939692527658E+02  1.00619958086317E+00
(PID.TID 0000.0001)  ploadbar=  1.01056246452686E+05
 cg2d: Sum(rhs),rhsMax =  -1.38791906896718E+02  9.99982017480569E-01
(PID.TID 0000.0001)  ploadbar=  1.01056879088474E+05
 cg2d: Sum(rhs),rhsMax =  -1.39400528823067E+02  9.95588101193845E-01
(PID.TID 0000.0001)  ploadbar=  1.01057511724263E+05
 cg2d: Sum(rhs),rhsMax =  -1.39822904585326E+02  9.92563751859124E-01
(PID.TID 0000.0001)  ploadbar=  1.01058144360051E+05
 cg2d: Sum(rhs),rhsMax =  -1.40115587151051E+02  9.90481315795676E-01
(PID.TID 0000.0001)  ploadbar=  1.01058776995840E+05
 cg2d: Sum(rhs),rhsMax =  -1.40268136229290E+02  9.89394077088279E-01
(PID.TID 0000.0001)  ploadbar=  1.01059409631628E+05
 cg2d: Sum(rhs),rhsMax =  -1.40407066113077E+02  9.88395635893002E-01
(PID.TID 0000.0001)  ploadbar=  1.01058252609993E+05
 cg2d: Sum(rhs),rhsMax =  -1.40578512136562E+02  9.87149865744471E-01
(PID.TID 0000.0001)  ploadbar=  1.01057095588358E+05
 cg2d: Sum(rhs),rhsMax =  -1.40827419817334E+02  9.85338409455608E-01
(PID.TID 0000.0001)  ploadbar=  1.01055938566723E+05
 cg2d: Sum(rhs),rhsMax =  -1.39776713481728E+02  9.92645816904414E-01
(PID.TID 0000.0001)  ploadbar=  1.01054781545087E+05
 cg2d: Sum(rhs),rhsMax =  -1.38563282070130E+02  1.00120580688245E+00
(PID.TID 0000.0001)  ploadbar=  1.01053624523452E+05
 cg2d: Sum(rhs),rhsMax =  -1.37519582834095E+02  1.00863798148835E+00
(PID.TID 0000.0001)  ploadbar=  1.01052467501817E+05
 cg2d: Sum(rhs),rhsMax =  -1.36618043308607E+02  1.01517285201545E+00
(PID.TID 0000.0001)  ploadbar=  1.01052208954381E+05
 cg2d: Sum(rhs),rhsMax =  -1.35770448278652E+02  1.02141708075697E+00
(PID.TID 0000.0001)  ploadbar=  1.01051950406944E+05
 cg2d: Sum(rhs),rhsMax =  -1.34963561628940E+02  1.02745021565802E+00
(PID.TID 0000.0001)  ploadbar=  1.01051691859508E+05
 cg2d: Sum(rhs),rhsMax =  -1.34203857396629E+02  1.03321192100541E+00
(PID.TID 0000.0001)  ploadbar=  1.01051433312072E+05
 cg2d: Sum(rhs),rhsMax =  -1.33502666718015E+02  1.03860053677100E+00
(PID.TID 0000.0001)  ploadbar=  1.01051174764635E+05
 cg2d: Sum(rhs),rhsMax =  -1.32871573306705E+02  1.04351497946033E+00
(PID.TID 0000.0001)  ploadbar=  1.01050916217199E+05
 cg2d: Sum(rhs),rhsMax =  -1.32161542418594E+02  1.04909832835201E+00
(PID.TID 0000.0001)  ploadbar=  1.01049009407789E+05
 cg2d: Sum(rhs),rhsMax =  -1.31509133521354E+02  1.05426191476530E+00
(PID.TID 0000.0001)  ploadbar=  1.01047102598380E+05
 cg2d: Sum(rhs),rhsMax =  -1.30910756636065E+02  1.05902152730863E+00
(PID.TID 0000.0001)  ploadbar=  1.01045195788970E+05
 cg2d: Sum(rhs),rhsMax =  -1.30356867321296E+02  1.06344441382605E+00
(PID.TID 0000.0001)  ploadbar=  1.01043288979560E+05
 cg2d: Sum(rhs),rhsMax =  -1.29835689316702E+02  1.06762102544290E+00
(PID.TID 0000.0001)  ploadbar=  1.01041382170151E+05
 cg2d: Sum(rhs),rhsMax =  -1.29332026925556E+02  1.07166609419049E+00
(PID.TID 0000.0001)  ploadbar=  1.01039475360741E+05
 cg2d: Sum(rhs),rhsMax =  -1.28802988692124E+02  1.07596621530555E+00
(PID.TID 0000.0001)  ploadbar=  1.01037809244421E+05
 cg2d: Sum(rhs),rhsMax =  -1.28221438142061E+02  1.08075130924580E+00
(PID.TID 0000.0001)  ploadbar=  1.01036143128102E+05
 cg2d: Sum(rhs),rhsMax =  -1.27465477429052E+02  1.08707456632892E+00
(PID.TID 0000.0001)  ploadbar=  1.01034477011782E+05
 cg2d: Sum(rhs),rhsMax =  -1.26511226508520E+02  1.09519601182701E+00
(PID.TID 0000.0001)  ploadbar=  1.01032810895462E+05
 cg2d: Sum(rhs),rhsMax =  -1.26348076668102E+02  1.09653362395454E+00
(PID.TID 0000.0001)  ploadbar=  1.01031144779143E+05
 cg2d: Sum(rhs),rhsMax =  -1.26644594921413E+02  1.09387860793463E+00
(PID.TID 0000.0001)  ploadbar=  1.01029478662823E+05
 cg2d: Sum(rhs),rhsMax =  -1.25780506154729E+02  1.10129284573277E+00
(PID.TID 0000.0001)  ploadbar=  1.01028370399071E+05
 cg2d: Sum(rhs),rhsMax =  -1.24978889740554E+02  1.10823427282727E+00
(PID.TID 0000.0001)  ploadbar=  1.01027262135319E+05
 cg2d: Sum(rhs),rhsMax =  -1.24248196430185E+02  1.11460152836201E+00
(PID.TID 0000.0001)  ploadbar=  1.01026153871567E+05
 cg2d: Sum(rhs),rhsMax =  -1.23582877438040E+02  1.12041932318032E+00
(PID.TID 0000.0001)  ploadbar=  1.01025045607815E+05
 cg2d: Sum(rhs),rhsMax =  -1.23023778628548E+02  1.12529284728015E+00
(PID.TID 0000.0001)  ploadbar=  1.01023937344063E+05
 cg2d: Sum(rhs),rhsMax =  -1.22861102752231E+02  1.12652939094234E+00
(PID.TID 0000.0001)  ploadbar=  1.01022829080311E+05
 cg2d: Sum(rhs),rhsMax =  -1.22807704748853E+02  1.12681330642561E+00
(PID.TID 0000.0001)  ploadbar=  1.01021673389524E+05
 cg2d: Sum(rhs),rhsMax =  -1.22903850115824E+02  1.12575258956479E+00
(PID.TID 0000.0001)  ploadbar=  1.01020517698738E+05
 cg2d: Sum(rhs),rhsMax =  -1.23162799585925E+02  1.12322285949257E+00
(PID.TID 0000.0001)  ploadbar=  1.01019362007952E+05
 cg2d: Sum(rhs),rhsMax =  -1.23573187000214E+02  1.11934619731534E+00
(PID.TID 0000.0001)  ploadbar=  1.01018206317165E+05
 cg2d: Sum(rhs),rhsMax =  -1.24106327558269E+02  1.11440859233986E+00
(PID.TID 0000.0001)  ploadbar=  1.01017050626379E+05
 cg2d: Sum(rhs),rhsMax =  -1.24720824573076E+02  1.10881207585869E+00
(PID.TID 0000.0001)  ploadbar=  1.01015894935593E+05
 cg2d: Sum(rhs),rhsMax =  -1.25381901364686E+02  1.10287158807754E+00
(PID.TID 0000.0001)  ploadbar=  1.01015263631564E+05
 cg2d: Sum(rhs),rhsMax =  -1.25531695577872E+02  1.10145655684637E+00
(PID.TID 0000.0001)  ploadbar=  1.01014632327536E+05
 cg2d: Sum(rhs),rhsMax =  -1.25201008515395E+02  1.10425953364674E+00
(PID.TID 0000.0001)  ploadbar=  1.01014001023508E+05
 cg2d: Sum(rhs),rhsMax =  -1.24967514327226E+02  1.10621055164517E+00
(PID.TID 0000.0001)  ploadbar=  1.01013369719479E+05
 cg2d: Sum(rhs),rhsMax =  -1.24768920490406E+02  1.10785908872801E+00
(PID.TID 0000.0001)  ploadbar=  1.01012738415451E+05
 cg2d: Sum(rhs),rhsMax =  -1.24716600881069E+02  1.10820823837249E+00
(PID.TID 0000.0001)  ploadbar=  1.01012107111422E+05
 cg2d: Sum(rhs),rhsMax =  -1.24629786025348E+02  1.10887435488474E+00
(PID.TID 0000.0001)  ploadbar=  1.01012453831508E+05
 cg2d: Sum(rhs),rhsMax =  -1.24500956972167E+02  1.10991738437390E+00
(PID.TID 0000.0001)  ploadbar=  1.01012800551594E+05
 cg2d: Sum(rhs),rhsMax =  -1.24315044270157E+02  1.11147640775489E+00
(PID.TID 0000.0001)  ploadbar=  1.01013147271680E+05
 cg2d: Sum(rhs),rhsMax =  -1.24081275100030E+02  1.11347454688449E+00
(PID.TID 0000.0001)  ploadbar=  1.01013493991766E+05
 cg2d: Sum(rhs),rhsMax =  -1.23819284716003E+02  1.11573352856755E+00
(PID.TID 0000.0001)  ploadbar=  1.01013840711852E+05
 cg2d: Sum(rhs),rhsMax =  -1.23560645390907E+02  1.11795818210271E+00
(PID.TID 0000.0001)  ploadbar=  1.01014187431938E+05
 cg2d: Sum(rhs),rhsMax =  -1.23486800532427E+02  1.11852380216020E+00
(PID.TID 0000.0001)  ploadbar=  1.01013760089539E+05
 cg2d: Sum(rhs),rhsMax =  -1.23420443780113E+02  1.11902179677227E+00
(PID.TID 0000.0001)  ploadbar=  1.01013332747141E+05
 cg2d: Sum(rhs),rhsMax =  -1.23351417616165E+02  1.11953808837506E+00
(PID.TID 0000.0001)  ploadbar=  1.01012905404742E+05
 cg2d: Sum(rhs),rhsMax =  -1.23306652355824E+02  1.11982352641046E+00
(PID.TID 0000.0001)  ploadbar=  1.01012478062344E+05
 cg2d: Sum(rhs),rhsMax =  -1.23342987602466E+02  1.11935787649400E+00
(PID.TID 0000.0001)  ploadbar=  1.01012050719945E+05
 cg2d: Sum(rhs),rhsMax =  -1.23480611232622E+02  1.11795960138261E+00
(PID.TID 0000.0001)  ploadbar=  1.01011623377547E+05
 cg2d: Sum(rhs),rhsMax =  -1.23655507964771E+02  1.11628132074586E+00
(PID.TID 0000.0001)  ploadbar=  1.01011018917170E+05
 cg2d: Sum(rhs),rhsMax =  -1.23894631325908E+02  1.11406001597479E+00
(PID.TID 0000.0001)  ploadbar=  1.01010414456793E+05
 cg2d: Sum(rhs),rhsMax =  -1.24214844988735E+02  1.11113889070534E+00
(PID.TID 0000.0001)  ploadbar=  1.01009809996416E+05
 cg2d: Sum(rhs),rhsMax =  -1.24632911172478E+02  1.10738320123966E+00
(PID.TID 0000.0001)  ploadbar=  1.01009205536039E+05
 cg2d: Sum(rhs),rhsMax =  -1.24430484366375E+02  1.10917756122860E+00
(PID.TID 0000.0001)  ploadbar=  1.01008601075662E+05
 cg2d: Sum(rhs),rhsMax =  -1.23684315097035E+02  1.11588559677786E+00
(PID.TID 0000.0001)  ploadbar=  1.01007996615285E+05
 cg2d: Sum(rhs),rhsMax =  -1.22944013366555E+02  1.12262404075673E+00
(PID.TID 0000.0001)  ploadbar=  1.01007217889016E+05
 cg2d: Sum(rhs),rhsMax =  -1.22272985269636E+02  1.12879490145760E+00
(PID.TID 0000.0001)  ploadbar=  1.01006439162746E+05
 cg2d: Sum(rhs),rhsMax =  -1.21681130844901E+02  1.13428357588470E+00
(PID.TID 0000.0001)  ploadbar=  1.01005660436477E+05
 cg2d: Sum(rhs),rhsMax =  -1.21164963590459E+02  1.13910118060449E+00
(PID.TID 0000.0001)  ploadbar=  1.01004881710208E+05
 cg2d: Sum(rhs),rhsMax =  -1.20687271827712E+02  1.14357889744474E+00
(PID.TID 0000.0001)  ploadbar=  1.01004102983939E+05
 cg2d: Sum(rhs),rhsMax =  -1.20158573061838E+02  1.14855606618096E+00
(PID.TID 0000.0001)  ploadbar=  1.01003324257669E+05
 cg2d: Sum(rhs),rhsMax =  -1.19681015964603E+02  1.15309326814992E+00
(PID.TID 0000.0001)  ploadbar=  1.01002906949403E+05
 cg2d: Sum(rhs),rhsMax =  -1.19135857573521E+02  1.15832864184840E+00
(PID.TID 0000.0001)  ploadbar=  1.01002489641137E+05
 cg2d: Sum(rhs),rhsMax =  -1.18456696696875E+02  1.16493768261161E+00
(PID.TID 0000.0001)  ploadbar=  1.01002072332871E+05
 cg2d: Sum(rhs),rhsMax =  -1.17631068794464E+02  1.17309130224169E+00
(PID.TID 0000.0001)  ploadbar=  1.01001655024605E+05
 cg2d: Sum(rhs),rhsMax =  -1.16790197216973E+02  1.18151977897127E+00
(PID.TID 0000.0001)  ploadbar=  1.01001237716339E+05
 cg2d: Sum(rhs),rhsMax =  -1.15934758660398E+02  1.19021205623114E+00
(PID.TID 0000.0001)  ploadbar=  1.01000820408073E+05
 cg2d: Sum(rhs),rhsMax =  -1.15011633597167E+02  1.19973438593059E+00
(PID.TID 0000.0001)  ploadbar=  1.01000380218780E+05
 cg2d: Sum(rhs),rhsMax =  -1.14104524805832E+02  1.20922375878255E+00
(PID.TID 0000.0001)  ploadbar=  1.00999940029486E+05
 cg2d: Sum(rhs),rhsMax =  -1.13691109267582E+02  1.21354991131491E+00
(PID.TID 0000.0001)  ploadbar=  1.00999499840192E+05
 cg2d: Sum(rhs),rhsMax =  -1.14698877731857E+02  1.20279165833085E+00
(PID.TID 0000.0001)  ploadbar=  1.00999059650898E+05
 cg2d: Sum(rhs),rhsMax =  -1.14585934587956E+02  1.20385378272475E+00
(PID.TID 0000.0001)  ploadbar=  1.00998619461604E+05
 cg2d: Sum(rhs),rhsMax =  -1.13586249596487E+02  1.21429807685605E+00
(PID.TID 0000.0001)  ploadbar=  1.00998179272311E+05
 cg2d: Sum(rhs),rhsMax =  -1.12635985166181E+02  1.22444445833312E+00
(PID.TID 0000.0001)  ploadbar=  1.00997429241027E+05
 cg2d: Sum(rhs),rhsMax =  -1.11656987145102E+02  1.23511420123750E+00
(PID.TID 0000.0001)  ploadbar=  1.00996679209743E+05
 cg2d: Sum(rhs),rhsMax =  -1.11023691465953E+02  1.24211731286203E+00
(PID.TID 0000.0001)  ploadbar=  1.00995929178459E+05
 cg2d: Sum(rhs),rhsMax =  -1.11273970419845E+02  1.23930566734641E+00
(PID.TID 0000.0001)  ploadbar=  1.00995179147176E+05
 cg2d: Sum(rhs),rhsMax =  -1.11504664961198E+02  1.23675044310087E+00
(PID.TID 0000.0001)  ploadbar=  1.00994429115892E+05
 cg2d: Sum(rhs),rhsMax =  -1.11717342233937E+02  1.23443063694931E+00
(PID.TID 0000.0001)  ploadbar=  1.00993679084608E+05
 cg2d: Sum(rhs),rhsMax =  -1.11932592513289E+02  1.23209521593624E+00
(PID.TID 0000.0001)  ploadbar=  1.00992390280835E+05
 cg2d: Sum(rhs),rhsMax =  -1.12170080539593E+02  1.22951790964396E+00
(PID.TID 0000.0001)  ploadbar=  1.00991101477061E+05
 cg2d: Sum(rhs),rhsMax =  -1.12432891681605E+02  1.22666514955092E+00
(PID.TID 0000.0001)  ploadbar=  1.00989812673288E+05
 cg2d: Sum(rhs),rhsMax =  -1.11856113083563E+02  1.23299991835322E+00
(PID.TID 0000.0001)  ploadbar=  1.00988523869514E+05
 cg2d: Sum(rhs),rhsMax =  -1.11413422428277E+02  1.23789944555529E+00
(PID.TID 0000.0001)  ploadbar=  1.00987235065741E+05
 cg2d: Sum(rhs),rhsMax =  -1.11057296928169E+02  1.24185660553100E+00
(PID.TID 0000.0001)  ploadbar=  1.00985946261968E+05
 cg2d: Sum(rhs),rhsMax =  -1.10739232363712E+02  1.24541618305960E+00
(PID.TID 0000.0001)  ploadbar=  1.00985760661640E+05
 cg2d: Sum(rhs),rhsMax =  -1.10400448232641E+02  1.24922675356506E+00
(PID.TID 0000.0001)  ploadbar=  1.00985575061313E+05
 cg2d: Sum(rhs),rhsMax =  -1.09988557680036E+02  1.25388909286957E+00
(PID.TID 0000.0001)  ploadbar=  1.00985389460985E+05
 cg2d: Sum(rhs),rhsMax =  -1.09490817943866E+02  1.25957007543618E+00
(PID.TID 0000.0001)  ploadbar=  1.00985203860658E+05
 cg2d: Sum(rhs),rhsMax =  -1.08931195346905E+02  1.26601213756294E+00
(PID.TID 0000.0001)  ploadbar=  1.00985018260330E+05
 cg2d: Sum(rhs),rhsMax =  -1.08347786500907E+02  1.27277719496485E+00
(PID.TID 0000.0001)  ploadbar=  1.00984832660003E+05
 cg2d: Sum(rhs),rhsMax =  -1.07750909678193E+02  1.27977470469103E+00
(PID.TID 0000.0001)  ploadbar=  1.00985015638335E+05
 cg2d: Sum(rhs),rhsMax =  -1.07188054029683E+02  1.28642947586831E+00
(PID.TID 0000.0001)  ploadbar=  1.00985198616666E+05
 cg2d: Sum(rhs),rhsMax =  -1.06699417621718E+02  1.29223552412697E+00
(PID.TID 0000.0001)  ploadbar=  1.00985381594998E+05
 cg2d: Sum(rhs),rhsMax =  -1.06307509652472E+02  1.29688801547769E+00
(PID.TID 0000.0001)  ploadbar=  1.00985564573330E+05
 cg2d: Sum(rhs),rhsMax =  -1.06010553669520E+02  1.30038074837279E+00
(PID.TID 0000.0001)  ploadbar=  1.00985747551662E+05
 cg2d: Sum(rhs),rhsMax =  -1.05805513861248E+02  1.30272989854965E+00
(PID.TID 0000.0001)  ploadbar=  1.00985930529994E+05
 cg2d: Sum(rhs),rhsMax =  -1.05614946152407E+02  1.30496842055454E+00
(PID.TID 0000.0001)  ploadbar=  1.00988615966424E+05
 cg2d: Sum(rhs),rhsMax =  -1.05405757230180E+02  1.30748688585990E+00
(PID.TID 0000.0001)  ploadbar=  1.00991301402855E+05
 cg2d: Sum(rhs),rhsMax =  -1.05143113300676E+02  1.31071608791537E+00
(PID.TID 0000.0001)  ploadbar=  1.00993986839285E+05
 cg2d: Sum(rhs),rhsMax =  -1.04804842983669E+02  1.31494203897963E+00
(PID.TID 0000.0001)  ploadbar=  1.00996672275715E+05
 cg2d: Sum(rhs),rhsMax =  -1.04391824705284E+02  1.32016380577175E+00
(PID.TID 0000.0001)  ploadbar=  1.00999357712146E+05
 cg2d: Sum(rhs),rhsMax =  -1.03926430480778E+02  1.32611775721659E+00
(PID.TID 0000.0001)  ploadbar=  1.01002043148576E+05
 cg2d: Sum(rhs),rhsMax =  -1.03435681974953E+02  1.33244112014944E+00
(PID.TID 0000.0001)  ploadbar=  1.01003057525310E+05
 cg2d: Sum(rhs),rhsMax =  -1.03441250263498E+02  1.33237830052799E+00
(PID.TID 0000.0001)  ploadbar=  1.01004071902044E+05
 cg2d: Sum(rhs),rhsMax =  -1.03533962868077E+02  1.33117273372826E+00
(PID.TID 0000.0001)  ploadbar=  1.01005086278778E+05
 cg2d: Sum(rhs),rhsMax =  -1.03657821895281E+02  1.32954651628296E+00
(PID.TID 0000.0001)  ploadbar=  1.01006100655511E+05
 cg2d: Sum(rhs),rhsMax =  -1.03817407612475E+02  1.32744436155970E+00
(PID.TID 0000.0001)  ploadbar=  1.01007115032245E+05
 cg2d: Sum(rhs),rhsMax =  -1.04020845670409E+02  1.32475836762440E+00
(PID.TID 0000.0001)  ploadbar=  1.01008129408979E+05
 cg2d: Sum(rhs),rhsMax =  -1.04277127436604E+02  1.32144464818384E+00
(PID.TID 0000.0001)  ploadbar=  1.01008252946371E+05
 cg2d: Sum(rhs),rhsMax =  -1.04575268528918E+02  1.31764270291712E+00
(PID.TID 0000.0001)  ploadbar=  1.01008376483763E+05
 cg2d: Sum(rhs),rhsMax =  -1.04901860481496E+02  1.31352711679978E+00
(PID.TID 0000.0001)  ploadbar=  1.01008500021154E+05
 cg2d: Sum(rhs),rhsMax =  -1.05242392327489E+02  1.30928293861850E+00
(PID.TID 0000.0001)  ploadbar=  1.01008623558546E+05
 cg2d: Sum(rhs),rhsMax =  -1.05586163512709E+02  1.30504155479213E+00
(PID.TID 0000.0001)  ploadbar=  1.01008747095938E+05
 cg2d: Sum(rhs),rhsMax =  -1.05928873327725E+02  1.30084561324249E+00
(PID.TID 0000.0001)  ploadbar=  1.01008870633330E+05
 cg2d: Sum(rhs),rhsMax =  -1.06218395242846E+02  1.29732176474664E+00
(PID.TID 0000.0001)  ploadbar=  1.01009855426205E+05
 cg2d: Sum(rhs),rhsMax =  -1.06447587256657E+02  1.29453716712817E+00
(PID.TID 0000.0001)  ploadbar=  1.01010840219081E+05
 cg2d: Sum(rhs),rhsMax =  -1.06618471795894E+02  1.29244900801256E+00
(PID.TID 0000.0001)  ploadbar=  1.01011825011956E+05
 cg2d: Sum(rhs),rhsMax =  -1.06740015434106E+02  1.29093856567669E+00
(PID.TID 0000.0001)  ploadbar=  1.01012809804832E+05
 cg2d: Sum(rhs),rhsMax =  -1.06819725724027E+02  1.28990608466014E+00
(PID.TID 0000.0001)  ploadbar=  1.01013794597708E+05
 cg2d: Sum(rhs),rhsMax =  -1.06865943227815E+02  1.28924685590982E+00
(PID.TID 0000.0001)  ploadbar=  1.01014779390583E+05
 cg2d: Sum(rhs),rhsMax =  -1.06955107481131E+02  1.28811742837490E+00
(PID.TID 0000.0001)  ploadbar=  1.01016828618540E+05
 cg2d: Sum(rhs),rhsMax =  -1.07097923314130E+02  1.28637395365503E+00
(PID.TID 0000.0001)  ploadbar=  1.01018877846497E+05
 cg2d: Sum(rhs),rhsMax =  -1.07300750984366E+02  1.28393954520159E+00
(PID.TID 0000.0001)  ploadbar=  1.01020927074454E+05
 cg2d: Sum(rhs),rhsMax =  -1.07563240601018E+02  1.28082317356176E+00
(PID.TID 0000.0001)  ploadbar=  1.01022976302411E+05
 cg2d: Sum(rhs),rhsMax =  -1.07874640681778E+02  1.27715396893015E+00
(PID.TID 0000.0001)  ploadbar=  1.01025025530368E+05
 cg2d: Sum(rhs),rhsMax =  -1.08220846329267E+02  1.27310388407087E+00
(PID.TID 0000.0001)  ploadbar=  1.01027074758324E+05
 cg2d: Sum(rhs),rhsMax =  -1.08591500004855E+02  1.26879397579983E+00
(PID.TID 0000.0001)  ploadbar=  1.01028938588128E+05
 cg2d: Sum(rhs),rhsMax =  -1.08993327605930E+02  1.26414999502375E+00
(PID.TID 0000.0001)  ploadbar=  1.01030802417932E+05
 cg2d: Sum(rhs),rhsMax =  -1.09478875528801E+02  1.25857453268474E+00
(PID.TID 0000.0001)  ploadbar=  1.01032666247735E+05
 cg2d: Sum(rhs),rhsMax =  -1.10039128734881E+02  1.25219550934143E+00
(PID.TID 0000.0001)  ploadbar=  1.01034530077539E+05
 cg2d: Sum(rhs),rhsMax =  -1.10664971848700E+02  1.24514060277616E+00
(PID.TID 0000.0001)  ploadbar=  1.01036393907342E+05
 cg2d: Sum(rhs),rhsMax =  -1.11362935127080E+02  1.23735594259540E+00
(PID.TID 0000.0001)  ploadbar=  1.01038257737146E+05
 cg2d: Sum(rhs),rhsMax =  -1.12119225388445E+02  1.22903818989788E+00
(PID.TID 0000.0001)  ploadbar=  1.01039974092424E+05
 cg2d: Sum(rhs),rhsMax =  -1.12972051729907E+02  1.21978412455341E+00
(PID.TID 0000.0001)  ploadbar=  1.01041690447702E+05
 cg2d: Sum(rhs),rhsMax =  -1.13928986087157E+02  1.20955266768991E+00
(PID.TID 0000.0001)  ploadbar=  1.01043406802980E+05
 cg2d: Sum(rhs),rhsMax =  -1.15004565542648E+02  1.19824098452403E+00
(PID.TID 0000.0001)  ploadbar=  1.01045123158259E+05
 cg2d: Sum(rhs),rhsMax =  -1.16209651181492E+02  1.18579678188448E+00
(PID.TID 0000.0001)  ploadbar=  1.01046839513537E+05
 cg2d: Sum(rhs),rhsMax =  -1.17557549697076E+02  1.17215540044943E+00
(PID.TID 0000.0001)  ploadbar=  1.01048555868815E+05
 cg2d: Sum(rhs),rhsMax =  -1.19026990956533E+02  1.15762446704617E+00
(PID.TID 0000.0001)  ploadbar=  1.01049774991858E+05
 cg2d: Sum(rhs),rhsMax =  -1.20536683127935E+02  1.14304661805897E+00
(PID.TID 0000.0001)  ploadbar=  1.01050994114901E+05
 cg2d: Sum(rhs),rhsMax =  -1.20826547842307E+02  1.14020071506151E+00
(PID.TID 0000.0001)  ploadbar=  1.01052213237944E+05
 cg2d: Sum(rhs),rhsMax =  -1.20250135232977E+02  1.14553528191969E+00
(PID.TID 0000.0001)  ploadbar=  1.01053432360987E+05
 cg2d: Sum(rhs),rhsMax =  -1.19739799877611E+02  1.15025706104625E+00
(PID.TID 0000.0001)  ploadbar=  1.01054651484030E+05
 cg2d: Sum(rhs),rhsMax =  -1.19316022633148E+02  1.15415194173054E+00
(PID.TID 0000.0001)  ploadbar=  1.01055870607073E+05
 cg2d: Sum(rhs),rhsMax =  -1.18950705065629E+02  1.15756498009047E+00
(PID.TID 0000.0001)  ploadbar=  1.01055835254956E+05
 cg2d: Sum(rhs),rhsMax =  -1.18626509348567E+02  1.16063999355498E+00
(PID.TID 0000.0001)  ploadbar=  1.01055799902839E+05
 cg2d: Sum(rhs),rhsMax =  -1.18327073083309E+02  1.16351870379047E+00
(PID.TID 0000.0001)  ploadbar=  1.01055764550721E+05
 cg2d: Sum(rhs),rhsMax =  -1.18061214173999E+02  1.16610643751052E+00
(PID.TID 0000.0001)  ploadbar=  1.01055729198604E+05
 cg2d: Sum(rhs),rhsMax =  -1.17807974300626E+02  1.16860462172748E+00
(PID.TID 0000.0001)  ploadbar=  1.01055693846487E+05
 cg2d: Sum(rhs),rhsMax =  -1.17580962992759E+02  1.17087410772720E+00
(PID.TID 0000.0001)  ploadbar=  1.01055658494370E+05
 cg2d: Sum(rhs),rhsMax =  -1.17097028743639E+02  1.17571281977558E+00
(PID.TID 0000.0001)  ploadbar=  1.01055708470016E+05
 cg2d: Sum(rhs),rhsMax =  -1.16492089379548E+02  1.18180105596509E+00
(PID.TID 0000.0001)  ploadbar=  1.01055758445662E+05
 cg2d: Sum(rhs),rhsMax =  -1.15724787535900E+02  1.18960184657376E+00
(PID.TID 0000.0001)  ploadbar=  1.01055808421308E+05
 cg2d: Sum(rhs),rhsMax =  -1.15115920697224E+02  1.19583929457875E+00
(PID.TID 0000.0001)  ploadbar=  1.01055858396954E+05
 cg2d: Sum(rhs),rhsMax =  -1.14710196752920E+02  1.19999222332623E+00
(PID.TID 0000.0001)  ploadbar=  1.01055908372600E+05
 cg2d: Sum(rhs),rhsMax =  -1.14579372156140E+02  1.20125758907472E+00
(PID.TID 0000.0001)  ploadbar=  1.01055958348246E+05
 cg2d: Sum(rhs),rhsMax =  -1.14820506304452E+02  1.19864890270177E+00
(PID.TID 0000.0001)  ploadbar=  1.01056354032204E+05
 cg2d: Sum(rhs),rhsMax =  -1.15240410460066E+02  1.19420631324301E+00
(PID.TID 0000.0001)  ploadbar=  1.01056749716162E+05
 cg2d: Sum(rhs),rhsMax =  -1.15789583761718E+02  1.18847459073484E+00
(PID.TID 0000.0001)  ploadbar=  1.01057145400121E+05
 cg2d: Sum(rhs),rhsMax =  -1.16431187848461E+02  1.18186165168360E+00
(PID.TID 0000.0001)  ploadbar=  1.01057541084079E+05
 cg2d: Sum(rhs),rhsMax =  -1.17147695572645E+02  1.17456820468923E+00
(PID.TID 0000.0001)  ploadbar=  1.01057936768037E+05
 cg2d: Sum(rhs),rhsMax =  -1.17937686024913E+02  1.16662635567667E+00
(PID.TID 0000.0001)  ploadbar=  1.01058332451996E+05
 cg2d: Sum(rhs),rhsMax =  -1.18658384328971E+02  1.15944635113035E+00
(PID.TID 0000.0001)  ploadbar=  1.01057373887674E+05
 cg2d: Sum(rhs),rhsMax =  -1.19302997230333E+02  1.15305850575137E+00
(PID.TID 0000.0001)  ploadbar=  1.01056415323353E+05
 cg2d: Sum(rhs),rhsMax =  -1.19867185653904E+02  1.14747556884738E+00
(PID.TID 0000.0001)  ploadbar=  1.01055456759031E+05
 cg2d: Sum(rhs),rhsMax =  -1.18611139530756E+02  1.15943411774124E+00
(PID.TID 0000.0001)  ploadbar=  1.01054498194710E+05
 cg2d: Sum(rhs),rhsMax =  -1.17055049238420E+02  1.17461256716582E+00
(PID.TID 0000.0001)  ploadbar=  1.01053539630389E+05
 cg2d: Sum(rhs),rhsMax =  -1.15813127449563E+02  1.18692953701077E+00
(PID.TID 0000.0001)  ploadbar=  1.01052581066067E+05
 cg2d: Sum(rhs),rhsMax =  -1.14659837025270E+02  1.19864309330143E+00
(PID.TID 0000.0001)  ploadbar=  1.01051234065505E+05
 cg2d: Sum(rhs),rhsMax =  -1.13656206532931E+02  1.20904439623606E+00
(PID.TID 0000.0001)  ploadbar=  1.01049887064942E+05
 cg2d: Sum(rhs),rhsMax =  -1.12813716034715E+02  1.21792179142345E+00
(PID.TID 0000.0001)  ploadbar=  1.01048540064380E+05
 cg2d: Sum(rhs),rhsMax =  -1.12109192676955E+02  1.22545195195828E+00
(PID.TID 0000.0001)  ploadbar=  1.01047193063817E+05
 cg2d: Sum(rhs),rhsMax =  -1.11505640869514E+02  1.23198834910055E+00
(PID.TID 0000.0001)  ploadbar=  1.01045846063255E+05
 cg2d: Sum(rhs),rhsMax =  -1.10954741180333E+02  1.23803228011892E+00
(PID.TID 0000.0001)  ploadbar=  1.01044499062692E+05
 cg2d: Sum(rhs),rhsMax =  -1.10205684920426E+02  1.24636158544666E+00
(PID.TID 0000.0001)  ploadbar=  1.01044991615080E+05
 cg2d: Sum(rhs),rhsMax =  -1.09430429234529E+02  1.25508661391704E+00
(PID.TID 0000.0001)  ploadbar=  1.01045484167468E+05
 cg2d: Sum(rhs),rhsMax =  -1.08609680791443E+02  1.26444523751752E+00
(PID.TID 0000.0001)  ploadbar=  1.01045976719856E+05
 cg2d: Sum(rhs),rhsMax =  -1.07745526101825E+02  1.27443816034125E+00
(PID.TID 0000.0001)  ploadbar=  1.01046469272244E+05
 cg2d: Sum(rhs),rhsMax =  -1.06845637200450E+02  1.28499942325881E+00
(PID.TID 0000.0001)  ploadbar=  1.01046961824632E+05
 cg2d: Sum(rhs),rhsMax =  -1.05924583580036E+02  1.29596972893508E+00
(PID.TID 0000.0001)  ploadbar=  1.01047454377020E+05
 cg2d: Sum(rhs),rhsMax =  -1.04926456697556E+02  1.30812371174993E+00
(PID.TID 0000.0001)  ploadbar=  1.01047919888208E+05
 cg2d: Sum(rhs),rhsMax =  -1.03883163933015E+02  1.32111205395728E+00
(PID.TID 0000.0001)  ploadbar=  1.01048385399395E+05
 cg2d: Sum(rhs),rhsMax =  -1.02512812415776E+02  1.33864846971996E+00
(PID.TID 0000.0001)  ploadbar=  1.01048850910583E+05
 cg2d: Sum(rhs),rhsMax =  -1.01183984121109E+02  1.35613056137284E+00
(PID.TID 0000.0001)  ploadbar=  1.01049316421771E+05
 cg2d: Sum(rhs),rhsMax =  -9.98875032883168E+01  1.37365924651675E+00
(PID.TID 0000.0001)  ploadbar=  1.01049781932958E+05
 cg2d: Sum(rhs),rhsMax =  -9.87262841637198E+01  1.38976260764227E+00
(PID.TID 0000.0001)  ploadbar=  1.01050247444146E+05
 cg2d: Sum(rhs),rhsMax =  -9.76695270305771E+01  1.40472773419405E+00
(PID.TID 0000.0001)  ploadbar=  1.01051559366780E+05
 cg2d: Sum(rhs),rhsMax =  -9.66710191703733E+01  1.41913673758068E+00
(PID.TID 0000.0001)  ploadbar=  1.01052871289415E+05
 cg2d: Sum(rhs),rhsMax =  -9.57075722433605E+01  1.43328532132571E+00
(PID.TID 0000.0001)  ploadbar=  1.01054183212050E+05
 cg2d: Sum(rhs),rhsMax =  -9.47706016668163E+01  1.44727557051480E+00
(PID.TID 0000.0001)  ploadbar=  1.01055495134684E+05
 cg2d: Sum(rhs),rhsMax =  -9.38588944890404E+01  1.46110610270906E+00
(PID.TID 0000.0001)  ploadbar=  1.01056807057319E+05
 cg2d: Sum(rhs),rhsMax =  -9.29747009683024E+01  1.47472544120031E+00
(PID.TID 0000.0001)  ploadbar=  1.01058118979953E+05
 cg2d: Sum(rhs),rhsMax =  -9.21688054544650E+01  1.48740015846791E+00
(PID.TID 0000.0001)  ploadbar=  1.01057715538097E+05
 cg2d: Sum(rhs),rhsMax =  -9.14308903660113E+01  1.49922628711827E+00
(PID.TID 0000.0001)  ploadbar=  1.01057312096241E+05
 cg2d: Sum(rhs),rhsMax =  -9.07699781421425E+01  1.50999828934042E+00
(PID.TID 0000.0001)  ploadbar=  1.01056908654385E+05
 cg2d: Sum(rhs),rhsMax =  -9.01307781540377E+01  1.52059554985095E+00
(PID.TID 0000.0001)  ploadbar=  1.01056505212529E+05
 cg2d: Sum(rhs),rhsMax =  -8.93040088608236E+01  1.53459352595857E+00
(PID.TID 0000.0001)  ploadbar=  1.01056101770673E+05
 cg2d: Sum(rhs),rhsMax =  -8.84334436981551E+01  1.54965244066379E+00
(PID.TID 0000.0001)  ploadbar=  1.01055698328817E+05
 cg2d: Sum(rhs),rhsMax =  -8.75620533337478E+01  1.56499427043886E+00
(PID.TID 0000.0001)  ploadbar=  1.01055194103258E+05
 cg2d: Sum(rhs),rhsMax =  -8.67172143497951E+01  1.58011788012086E+00
(PID.TID 0000.0001)  ploadbar=  1.01054689877699E+05
 cg2d: Sum(rhs),rhsMax =  -8.70444644082878E+01  1.57400816481996E+00
(PID.TID 0000.0001)  ploadbar=  1.01054185652140E+05
 cg2d: Sum(rhs),rhsMax =  -8.79889858064786E+01  1.55689900114275E+00
(PID.TID 0000.0001)  ploadbar=  1.01053681426580E+05
 cg2d: Sum(rhs),rhsMax =  -8.90024053142688E+01  1.53891604606092E+00
(PID.TID 0000.0001)  ploadbar=  1.01053177201021E+05
 cg2d: Sum(rhs),rhsMax =  -9.00927478347091E+01  1.51999022597774E+00
(PID.TID 0000.0001)  ploadbar=  1.01052672975462E+05
 cg2d: Sum(rhs),rhsMax =  -9.10964223908952E+01  1.50296886599031E+00
(PID.TID 0000.0001)  ploadbar=  1.01051988607045E+05
 cg2d: Sum(rhs),rhsMax =  -9.20206009036255E+01  1.48761833452484E+00
(PID.TID 0000.0001)  ploadbar=  1.01051304238629E+05
 cg2d: Sum(rhs),rhsMax =  -9.28569372653661E+01  1.47398405956833E+00
(PID.TID 0000.0001)  ploadbar=  1.01050619870213E+05
 cg2d: Sum(rhs),rhsMax =  -9.35605962085248E+01  1.46268155478215E+00
(PID.TID 0000.0001)  ploadbar=  1.01049935501797E+05
 cg2d: Sum(rhs),rhsMax =  -9.41263415410438E+01  1.45368878726393E+00
(PID.TID 0000.0001)  ploadbar=  1.01049251133381E+05
 cg2d: Sum(rhs),rhsMax =  -9.44911366816735E+01  1.44787575930301E+00
(PID.TID 0000.0001)  ploadbar=  1.01048566764964E+05
 cg2d: Sum(rhs),rhsMax =  -9.36657392601746E+01  1.46043936009038E+00
(PID.TID 0000.0001)  ploadbar=  1.01047491706778E+05
 cg2d: Sum(rhs),rhsMax =  -9.28538976254058E+01  1.47300581917685E+00
(PID.TID 0000.0001)  ploadbar=  1.01046416648591E+05
 cg2d: Sum(rhs),rhsMax =  -9.20577854998560E+01  1.48552669283467E+00
(PID.TID 0000.0001)  ploadbar=  1.01045341590405E+05
 cg2d: Sum(rhs),rhsMax =  -9.13207620579216E+01  1.49727824841256E+00
(PID.TID 0000.0001)  ploadbar=  1.01044266532219E+05
 cg2d: Sum(rhs),rhsMax =  -9.13800197888762E+01  1.49604913204720E+00
(PID.TID 0000.0001)  ploadbar=  1.01043191474032E+05
 cg2d: Sum(rhs),rhsMax =  -9.16779320637227E+01  1.49090785414540E+00
(PID.TID 0000.0001)  ploadbar=  1.01042116415846E+05
 cg2d: Sum(rhs),rhsMax =  -9.20809141833498E+01  1.48417358673079E+00
(PID.TID 0000.0001)  ploadbar=  1.01040142921763E+05
 cg2d: Sum(rhs),rhsMax =  -9.26022617293782E+01  1.47566331090764E+00
(PID.TID 0000.0001)  ploadbar=  1.01038169427681E+05
 cg2d: Sum(rhs),rhsMax =  -9.32293911573211E+01  1.46562258617783E+00
(PID.TID 0000.0001)  ploadbar=  1.01036195933599E+05
 cg2d: Sum(rhs),rhsMax =  -9.39303014034276E+01  1.45460618056722E+00
(PID.TID 0000.0001)  ploadbar=  1.01034222439516E+05
 cg2d: Sum(rhs),rhsMax =  -9.46826109819378E+01  1.44300333006619E+00
(PID.TID 0000.0001)  ploadbar=  1.01032248945434E+05
 cg2d: Sum(rhs),rhsMax =  -9.54785309038279E+01  1.43096185832196E+00
(PID.TID 0000.0001)  ploadbar=  1.01030275451352E+05
 cg2d: Sum(rhs),rhsMax =  -9.63834119878645E+01  1.41750374839002E+00
(PID.TID 0000.0001)  ploadbar=  1.01028395968358E+05
 cg2d: Sum(rhs),rhsMax =  -9.74461129106801E+01  1.40200337286268E+00
(PID.TID 0000.0001)  ploadbar=  1.01026516485364E+05
 cg2d: Sum(rhs),rhsMax =  -9.86923794068199E+01  1.38423856370805E+00
(PID.TID 0000.0001)  ploadbar=  1.01024637002370E+05
 cg2d: Sum(rhs),rhsMax =  -1.00133896085047E+02  1.36423255605931E+00
(PID.TID 0000.0001)  ploadbar=  1.01022757519376E+05
 cg2d: Sum(rhs),rhsMax =  -1.01791328909085E+02  1.34192443125602E+00
(PID.TID 0000.0001)  ploadbar=  1.01020878036383E+05
 cg2d: Sum(rhs),rhsMax =  -1.03652153833606E+02  1.31771663360274E+00
(PID.TID 0000.0001)  ploadbar=  1.01018998553389E+05
 cg2d: Sum(rhs),rhsMax =  -1.05673863975707E+02  1.29241488306295E+00
(PID.TID 0000.0001)  ploadbar=  1.01017607703917E+05
 cg2d: Sum(rhs),rhsMax =  -1.07794484462349E+02  1.26691564994254E+00
(PID.TID 0000.0001)  ploadbar=  1.01016216854445E+05
 cg2d: Sum(rhs),rhsMax =  -1.09990375731913E+02  1.24156935942647E+00
(PID.TID 0000.0001)  ploadbar=  1.01014826004973E+05
 cg2d: Sum(rhs),rhsMax =  -1.10417866240221E+02  1.23672850456944E+00
(PID.TID 0000.0001)  ploadbar=  1.01013435155501E+05
 cg2d: Sum(rhs),rhsMax =  -1.10570962079344E+02  1.23499972968896E+00
(PID.TID 0000.0001)  ploadbar=  1.01012044306029E+05
 cg2d: Sum(rhs),rhsMax =  -1.10784088432431E+02  1.23261394986617E+00
(PID.TID 0000.0001)  ploadbar=  1.01010653456557E+05
 cg2d: Sum(rhs),rhsMax =  -1.10951939178292E+02  1.23072479474654E+00
(PID.TID 0000.0001)  ploadbar=  1.01008133506582E+05
 cg2d: Sum(rhs),rhsMax =  -1.11064758384334E+02  1.22942298141440E+00
(PID.TID 0000.0001)  ploadbar=  1.01005613556608E+05
 cg2d: Sum(rhs),rhsMax =  -1.11104530473390E+02  1.22889880260027E+00
(PID.TID 0000.0001)  ploadbar=  1.01003093606634E+05
 cg2d: Sum(rhs),rhsMax =  -1.11071232745247E+02  1.22914864712318E+00
(PID.TID 0000.0001)  ploadbar=  1.01000573656659E+05
 cg2d: Sum(rhs),rhsMax =  -1.12652328877939E+02  1.21174514139718E+00
(PID.TID 0000.0001)  ploadbar=  1.00998053706685E+05
 cg2d: Sum(rhs),rhsMax =  -1.14775087365948E+02  1.18915017231409E+00
(PID.TID 0000.0001)  ploadbar=  1.00995533756711E+05
 cg2d: Sum(rhs),rhsMax =  -1.14190756637346E+02  1.19511889323858E+00
(PID.TID 0000.0001)  ploadbar=  1.00993142634120E+05
 cg2d: Sum(rhs),rhsMax =  -1.13015823706429E+02  1.20748002586393E+00
(PID.TID 0000.0001)  ploadbar=  1.00990751511530E+05
 cg2d: Sum(rhs),rhsMax =  -1.11617586516843E+02  1.22258393486625E+00
(PID.TID 0000.0001)  ploadbar=  1.00988360388939E+05
 cg2d: Sum(rhs),rhsMax =  -1.10068315418491E+02  1.23980833299089E+00
(PID.TID 0000.0001)  ploadbar=  1.00985969266348E+05
 cg2d: Sum(rhs),rhsMax =  -1.08347195973561E+02  1.25955961486052E+00
(PID.TID 0000.0001)  ploadbar=  1.00983578143758E+05
 cg2d: Sum(rhs),rhsMax =  -1.06437884714380E+02  1.28225212008147E+00
(PID.TID 0000.0001)  ploadbar=  1.00981187021167E+05
 cg2d: Sum(rhs),rhsMax =  -1.04815081244180E+02  1.30218027514603E+00
(PID.TID 0000.0001)  ploadbar=  1.00979251729067E+05
 cg2d: Sum(rhs),rhsMax =  -1.03463076428185E+02  1.31923725434745E+00
(PID.TID 0000.0001)      cg2d_init_res =   3.02944160643187E-01
(PID.TID 0000.0001)      cg2d_iters(min,last) =      -1     136
(PID.TID 0000.0001)      cg2d_last_res =   9.13720948037477E-08
(PID.TID 0000.0001) // =======================================================
(PID.TID 0000.0001) // Begin MONITOR dynamic field statistics
(PID.TID 0000.0001) // =======================================================
(PID.TID 0000.0001) %MON time_tsnumber                =                  8760
(PID.TID 0000.0001) %MON time_secondsf                =   3.1536000000000E+07
(PID.TID 0000.0001) %MON dynstat_eta_max              =   1.0485471642314E+00
(PID.TID 0000.0001) %MON dynstat_eta_min              =  -4.6469566465340E+00
(PID.TID 0000.0001) %MON dynstat_eta_mean             =   6.9083020735565E-02
(PID.TID 0000.0001) %MON dynstat_eta_sd               =   6.8791093541468E-01
(PID.TID 0000.0001) %MON dynstat_eta_del2             =   1.9669149775166E-04
(PID.TID 0000.0001) %MON dynstat_uvel_max             =   1.0552428961042E+00
(PID.TID 0000.0001) %MON dynstat_uvel_min             =  -8.1368143802654E-01
(PID.TID 0000.0001) %MON dynstat_uvel_mean            =   1.1483434470452E-03
(PID.TID 0000.0001) %MON dynstat_uvel_sd              =   2.0604153636083E-02
(PID.TID 0000.0001) %MON dynstat_uvel_del2            =   9.1850341577504E-06
(PID.TID 0000.0001) %MON dynstat_vvel_max             =   1.0566589995732E+00
(PID.TID 0000.0001) %MON dynstat_vvel_min             =  -9.6825163228370E-01
(PID.TID 0000.0001) %MON dynstat_vvel_mean            =   1.2314543424945E-03
(PID.TID 0000.0001) %MON dynstat_vvel_sd              =   2.2220008484620E-02
(PID.TID 0000.0001) %MON dynstat_vvel_del2            =   9.7592609486595E-06
(PID.TID 0000.0001) %MON dynstat_wvel_max             =   5.0047151454249E-04
(PID.TID 0000.0001) %MON dynstat_wvel_min             =  -9.6429238849652E-04
(PID.TID 0000.0001) %MON dynstat_wvel_mean            =  -1.3333983774803E-09
(PID.TID 0000.0001) %MON dynstat_wvel_sd              =   2.1868628565467E-05
(PID.TID 0000.0001) %MON dynstat_wvel_del2            =   1.6363174238417E-08
(PID.TID 0000.0001) %MON dynstat_theta_max            =   3.1648224352723E+01
(PID.TID 0000.0001) %MON dynstat_theta_min            =  -1.9853446533477E+00
(PID.TID 0000.0001) %MON dynstat_theta_mean           =   3.5809891265388E+00
(PID.TID 0000.0001) %MON dynstat_theta_sd             =   4.4209472012169E+00
(PID.TID 0000.0001) %MON dynstat_theta_del2           =   9.1123117645582E-05
(PID.TID 0000.0001) %MON dynstat_salt_max             =   4.0642654585346E+01
(PID.TID 0000.0001) %MON dynstat_salt_min             =   2.3277142817805E+01
(PID.TID 0000.0001) %MON dynstat_salt_mean            =   3.4727009599001E+01
(PID.TID 0000.0001) %MON dynstat_salt_sd              =   3.7817926000420E-01
(PID.TID 0000.0001) %MON dynstat_salt_del2            =   2.0317643212823E-05
(PID.TID 0000.0001) %MON dynstat_sst_max              =   3.1648210211533E+01
(PID.TID 0000.0001) %MON dynstat_sst_min              =  -1.9613970721400E+00
(PID.TID 0000.0001) %MON dynstat_sst_mean             =   1.8093190677971E+01
(PID.TID 0000.0001) %MON dynstat_sst_sd               =   1.0004294470534E+01
(PID.TID 0000.0001) %MON dynstat_sst_del2             =   6.7397523800424E-04
(PID.TID 0000.0001) %MON dynstat_sss_max              =   4.0170586375344E+01
(PID.TID 0000.0001) %MON dynstat_sss_min              =   2.3277142817805E+01
(PID.TID 0000.0001) %MON dynstat_sss_mean             =   3.4737979452244E+01
(PID.TID 0000.0001) %MON dynstat_sss_sd               =   1.2254027410285E+00
(PID.TID 0000.0001) %MON dynstat_sss_del2             =   2.9906377850967E-04
(PID.TID 0000.0001) %MON forcing_qnet_max             =   8.8702324085955E+02
(PID.TID 0000.0001) %MON forcing_qnet_min             =  -6.3074221987690E+02
(PID.TID 0000.0001) %MON forcing_qnet_mean            =   7.1618593192382E+00
(PID.TID 0000.0001) %MON forcing_qnet_sd              =   2.1949377520433E+02
(PID.TID 0000.0001) %MON forcing_qnet_del2            =   1.1597851220202E-01
(PID.TID 0000.0001) %MON forcing_qsw_max              =   7.8741920778545E+01
(PID.TID 0000.0001) %MON forcing_qsw_min              =  -7.3380015597812E+02
(PID.TID 0000.0001) %MON forcing_qsw_mean             =  -1.6364962452787E+02
(PID.TID 0000.0001) %MON forcing_qsw_sd               =   1.8407474572679E+02
(PID.TID 0000.0001) %MON forcing_qsw_del2             =   6.8162185655312E-02
(PID.TID 0000.0001) %MON forcing_empmr_max            =   1.4344924808485E-03
(PID.TID 0000.0001) %MON forcing_empmr_min            =  -3.8356451375727E-03
(PID.TID 0000.0001) %MON forcing_empmr_mean           =  -6.0956912796498E-07
(PID.TID 0000.0001) %MON forcing_empmr_sd             =   1.0719104283270E-04
(PID.TID 0000.0001) %MON forcing_empmr_del2           =   3.3480699356106E-07
(PID.TID 0000.0001) %MON forcing_fu_max               =   1.0807091097037E+00
(PID.TID 0000.0001) %MON forcing_fu_min               =  -1.4699391677314E+00
(PID.TID 0000.0001) %MON forcing_fu_mean              =   1.1686970152216E-02
(PID.TID 0000.0001) %MON forcing_fu_sd                =   1.2497336815279E-01
(PID.TID 0000.0001) %MON forcing_fu_del2              =   8.3562819887145E-05
(PID.TID 0000.0001) %MON forcing_fv_max               =   1.6988874814498E+00
(PID.TID 0000.0001) %MON forcing_fv_min               =  -1.4100257991893E+00
(PID.TID 0000.0001) %MON forcing_fv_mean              =  -3.0723409981223E-03
(PID.TID 0000.0001) %MON forcing_fv_sd                =   1.1861997628350E-01
(PID.TID 0000.0001) %MON forcing_fv_del2              =   9.2537176550631E-05
(PID.TID 0000.0001) %MON trAdv_CFL_u_max              =   7.0158940687028E-02
(PID.TID 0000.0001) %MON trAdv_CFL_v_max              =   7.0371213681093E-02
(PID.TID 0000.0001) %MON trAdv_CFL_w_max              =   2.3629797527951E-01
(PID.TID 0000.0001) %MON advcfl_uvel_max              =   7.6671910486965E-02
(PID.TID 0000.0001) %MON advcfl_vvel_max              =   6.2695031678327E-02
(PID.TID 0000.0001) %MON advcfl_wvel_max              =   2.3984532794075E-01
(PID.TID 0000.0001) %MON advcfl_W_hf_max              =   2.4057361113899E-01
(PID.TID 0000.0001) %MON pe_b_mean                    =   2.2591475052181E-03
(PID.TID 0000.0001) %MON ke_max                       =   5.6265955022029E-01
(PID.TID 0000.0001) %MON ke_mean                      =   4.4414975100674E-04
(PID.TID 0000.0001) %MON ke_vol                       =   1.3350226088548E+18
(PID.TID 0000.0001) %MON vort_r_min                   =  -3.0910317480506E-05
(PID.TID 0000.0001) %MON vort_r_max                   =   1.7007487028050E-05
(PID.TID 0000.0001) %MON vort_a_mean                  =  -1.9727864647440E-05
(PID.TID 0000.0001) %MON vort_a_sd                    =   7.4543097224432E-05
(PID.TID 0000.0001) %MON vort_p_mean                  =  -2.1760110845315E-05
(PID.TID 0000.0001) %MON vort_p_sd                    =   9.7245479096598E-05
(PID.TID 0000.0001) %MON surfExpan_theta_mean         =  -3.0846042068734E-08
(PID.TID 0000.0001) %MON surfExpan_salt_mean          =   8.1479490138033E-09
(PID.TID 0000.0001) // =======================================================
(PID.TID 0000.0001) // End MONITOR dynamic field statistics
(PID.TID 0000.0001) // =======================================================
(PID.TID 0000.0001)  ploadbar=  1.00977316436967E+05
(PID.TID 0000.0001) %SBO sbo_mass                     =   1.3737591069927E+21
(PID.TID 0000.0001) %SBO sbo_mass_fw                  =   4.6291622193775E+16
(PID.TID 0000.0001) %SBO sbo_zoamc                    =   1.2299988024541E+25
(PID.TID 0000.0001) %SBO sbo_zoamp                    =   2.9276636757436E+30
(PID.TID 0000.0001) // =======================================================
(PID.TID 0000.0001) // Begin MONITOR SEAICE statistics
(PID.TID 0000.0001) // =======================================================
(PID.TID 0000.0001) %MON seaice_tsnumber              =                  8760
(PID.TID 0000.0001) %MON seaice_time_sec              =   3.1536000000000E+07
(PID.TID 0000.0001) %MON seaice_uice_max              =   4.0000000000000E-01
(PID.TID 0000.0001) %MON seaice_uice_min              =  -4.0000000000000E-01
(PID.TID 0000.0001) %MON seaice_uice_mean             =  -5.5216060620351E-03
(PID.TID 0000.0001) %MON seaice_uice_sd               =   1.8285951401400E-01
(PID.TID 0000.0001) %MON seaice_uice_del2             =   1.5613460042276E-04
(PID.TID 0000.0001) %MON seaice_vice_max              =   4.0000000000000E-01
(PID.TID 0000.0001) %MON seaice_vice_min              =  -4.0000000000000E-01
(PID.TID 0000.0001) %MON seaice_vice_mean             =  -8.7731161867244E-03
(PID.TID 0000.0001) %MON seaice_vice_sd               =   1.7876399113394E-01
(PID.TID 0000.0001) %MON seaice_vice_del2             =   1.6410736504510E-04
(PID.TID 0000.0001) %MON seaice_area_max              =   9.7000000000000E-01
(PID.TID 0000.0001) %MON seaice_area_min              =   0.0000000000000E+00
(PID.TID 0000.0001) %MON seaice_area_mean             =   5.3011003540826E-02
(PID.TID 0000.0001) %MON seaice_area_sd               =   2.0576662667673E-01
(PID.TID 0000.0001) %MON seaice_area_del2             =   2.2269682474055E-04
(PID.TID 0000.0001) %MON seaice_heff_max              =   4.8754975298587E+00
(PID.TID 0000.0001) %MON seaice_heff_min              =   0.0000000000000E+00
(PID.TID 0000.0001) %MON seaice_heff_mean             =   6.1080638721456E-02
(PID.TID 0000.0001) %MON seaice_heff_sd               =   2.9460800728828E-01
(PID.TID 0000.0001) %MON seaice_heff_del2             =   2.0133074295283E-04
(PID.TID 0000.0001) %MON seaice_hsnow_max             =   9.9775244117864E-01
(PID.TID 0000.0001) %MON seaice_hsnow_min             =  -6.5821289235208E-05
(PID.TID 0000.0001) %MON seaice_hsnow_mean            =   7.9739131811520E-03
(PID.TID 0000.0001) %MON seaice_hsnow_sd              =   4.0570359819204E-02
(PID.TID 0000.0001) %MON seaice_hsnow_del2            =   4.9003189425082E-05
(PID.TID 0000.0001) // =======================================================
(PID.TID 0000.0001) // End MONITOR SEAICE statistics
(PID.TID 0000.0001) // =======================================================
(PID.TID 0000.0001) // =======================================================
(PID.TID 0000.0001) // Begin MONITOR EXF statistics
(PID.TID 0000.0001) // =======================================================
(PID.TID 0000.0001) %MON exf_tsnumber                 =                  8760
(PID.TID 0000.0001) %MON exf_time_sec                 =   3.1536000000000E+07
(PID.TID 0000.0001) %MON exf_ustress_max              =   1.0156559348106E+00
(PID.TID 0000.0001) %MON exf_ustress_min              =  -2.2625053875783E+00
(PID.TID 0000.0001) %MON exf_ustress_mean             =   1.1084586131823E-02
(PID.TID 0000.0001) %MON exf_ustress_sd               =   1.2454182166453E-01
(PID.TID 0000.0001) %MON exf_ustress_del2             =   9.3896256013643E-05
(PID.TID 0000.0001) %MON exf_vstress_max              =   1.7142878514972E+00
(PID.TID 0000.0001) %MON exf_vstress_min              =  -1.5219366022962E+00
(PID.TID 0000.0001) %MON exf_vstress_mean             =  -2.2483364530680E-03
(PID.TID 0000.0001) %MON exf_vstress_sd               =   1.2072565212027E-01
(PID.TID 0000.0001) %MON exf_vstress_del2             =   1.0038907146811E-04
(PID.TID 0000.0001) %MON exf_hflux_max                =   1.4681176792765E+03
(PID.TID 0000.0001) %MON exf_hflux_min                =  -5.8336017799255E+02
(PID.TID 0000.0001) %MON exf_hflux_mean               =   1.9181558637506E+01
(PID.TID 0000.0001) %MON exf_hflux_sd                 =   2.4056510817911E+02
(PID.TID 0000.0001) %MON exf_hflux_del2               =   4.9898373217159E-01
(PID.TID 0000.0001) %MON exf_sflux_max                =   1.7687104575111E-07
(PID.TID 0000.0001) %MON exf_sflux_min                =  -3.7199267980784E-06
(PID.TID 0000.0001) %MON exf_sflux_mean               =   2.4665149644661E-09
(PID.TID 0000.0001) %MON exf_sflux_sd                 =   9.3037245070694E-08
(PID.TID 0000.0001) %MON exf_sflux_del2               =   2.7720265716818E-10
(PID.TID 0000.0001) %MON exf_wspeed_max               =   2.3689439773560E+01
(PID.TID 0000.0001) %MON exf_wspeed_min               =   2.2191631793976E-01
(PID.TID 0000.0001) %MON exf_wspeed_mean              =   7.2969761374129E+00
(PID.TID 0000.0001) %MON exf_wspeed_sd                =   3.2211398786502E+00
(PID.TID 0000.0001) %MON exf_wspeed_del2              =   1.4979172569029E-02
(PID.TID 0000.0001) %MON exf_atemp_max                =   3.0559659519196E+02
(PID.TID 0000.0001) %MON exf_atemp_min                =   2.2842357101440E+02
(PID.TID 0000.0001) %MON exf_atemp_mean               =   2.8912523457904E+02
(PID.TID 0000.0001) %MON exf_atemp_sd                 =   1.2070215130679E+01
(PID.TID 0000.0001) %MON exf_atemp_del2               =   3.1126217184467E-02
(PID.TID 0000.0001) %MON exf_aqh_max                  =   2.2679240442812E-02
(PID.TID 0000.0001) %MON exf_aqh_min                  =  -5.4024791097618E-05
(PID.TID 0000.0001) %MON exf_aqh_mean                 =   1.0717102069315E-02
(PID.TID 0000.0001) %MON exf_aqh_sd                   =   5.5889041524629E-03
(PID.TID 0000.0001) %MON exf_aqh_del2                 =   1.7730104236709E-05
(PID.TID 0000.0001) %MON exf_lwflux_max               =   2.1272630075298E+02
(PID.TID 0000.0001) %MON exf_lwflux_min               =  -2.2741591324521E+01
(PID.TID 0000.0001) %MON exf_lwflux_mean              =   4.8048473905954E+01
(PID.TID 0000.0001) %MON exf_lwflux_sd                =   2.7380949655648E+01
(PID.TID 0000.0001) %MON exf_lwflux_del2              =   1.1375319237583E-01
(PID.TID 0000.0001) %MON exf_evap_max                 =   1.8846561803936E-07
(PID.TID 0000.0001) %MON exf_evap_min                 =  -2.6871350811000E-08
(PID.TID 0000.0001) %MON exf_evap_mean                =   4.5256286681384E-08
(PID.TID 0000.0001) %MON exf_evap_sd                  =   2.7955380315797E-08
(PID.TID 0000.0001) %MON exf_evap_del2                =   8.6472749186526E-11
(PID.TID 0000.0001) %MON exf_precip_max               =   3.7563148680420E-06
(PID.TID 0000.0001) %MON exf_precip_min               =  -2.3496198764406E-08
(PID.TID 0000.0001) %MON exf_precip_mean              =   3.9731962243530E-08
(PID.TID 0000.0001) %MON exf_precip_sd                =   8.6527870392759E-08
(PID.TID 0000.0001) %MON exf_precip_del2              =   2.6896502315754E-10
(PID.TID 0000.0001) %MON exf_swflux_max               =   1.0514332504272E+02
(PID.TID 0000.0001) %MON exf_swflux_min               =  -7.0088182167762E+02
(PID.TID 0000.0001) %MON exf_swflux_mean              =  -1.6984484222692E+02
(PID.TID 0000.0001) %MON exf_swflux_sd                =   1.7832369862010E+02
(PID.TID 0000.0001) %MON exf_swflux_del2              =   4.1817177294605E-01
(PID.TID 0000.0001) %MON exf_swdown_max               =   7.5611276245117E+02
(PID.TID 0000.0001) %MON exf_swdown_min               =  -1.5020475006104E+02
(PID.TID 0000.0001) %MON exf_swdown_mean              =   1.8390235358822E+02
(PID.TID 0000.0001) %MON exf_swdown_sd                =   1.9296332695655E+02
(PID.TID 0000.0001) %MON exf_swdown_del2              =   4.5390492866998E-01
(PID.TID 0000.0001) %MON exf_lwdown_max               =   4.6807113647461E+02
(PID.TID 0000.0001) %MON exf_lwdown_min               =   8.7367366790771E+01
(PID.TID 0000.0001) %MON exf_lwdown_mean              =   3.6125567718052E+02
(PID.TID 0000.0001) %MON exf_lwdown_sd                =   6.3987977100593E+01
(PID.TID 0000.0001) %MON exf_lwdown_del2              =   5.9650136248665E-01
(PID.TID 0000.0001) %MON exf_apressure_max            =   1.0322605468750E+05
(PID.TID 0000.0001) %MON exf_apressure_min            =   9.6221128906250E+04
(PID.TID 0000.0001) %MON exf_apressure_mean           =   1.0097538114487E+05
(PID.TID 0000.0001) %MON exf_apressure_sd             =   1.0500788948867E+03
(PID.TID 0000.0001) %MON exf_apressure_del2           =   1.7816695651194E+02
(PID.TID 0000.0001) %MON exf_runoff_max               =   1.9834598509577E-06
(PID.TID 0000.0001) %MON exf_runoff_min               =   0.0000000000000E+00
(PID.TID 0000.0001) %MON exf_runoff_mean              =   3.0578094733873E-09
(PID.TID 0000.0001) %MON exf_runoff_sd                =   2.3469962782488E-08
(PID.TID 0000.0001) %MON exf_runoff_del2              =   6.8074160263523E-11
(PID.TID 0000.0001) // =======================================================
(PID.TID 0000.0001) // End MONITOR EXF statistics
(PID.TID 0000.0001) // =======================================================
 cg2d: Sum(rhs),rhsMax =  -1.02241028685125E+02  1.33500920734949E+00
(PID.TID 0000.0001)  ploadbar=  1.00975381144867E+05
 cg2d: Sum(rhs),rhsMax =  -1.01247262833163E+02  1.34808002564706E+00
(PID.TID 0000.0001)  ploadbar=  1.00973445852767E+05
 cg2d: Sum(rhs),rhsMax =  -1.00492396884580E+02  1.35813795732562E+00
(PID.TID 0000.0001)  ploadbar=  1.00971510560667E+05
 cg2d: Sum(rhs),rhsMax =  -1.00000763754889E+02  1.36470528602213E+00
(PID.TID 0000.0001)  ploadbar=  1.00969575268567E+05
 cg2d: Sum(rhs),rhsMax =  -9.97779258281243E+01  1.36765633689756E+00
(PID.TID 0000.0001)  ploadbar=  1.00967518689577E+05
 cg2d: Sum(rhs),rhsMax =  -9.97862085478419E+01  1.36745140775658E+00
(PID.TID 0000.0001)  ploadbar=  1.00965462110587E+05
 cg2d: Sum(rhs),rhsMax =  -9.98926658825537E+01  1.36590975289733E+00
(PID.TID 0000.0001)  ploadbar=  1.00963405531596E+05
 cg2d: Sum(rhs),rhsMax =  -1.00111992755486E+02  1.36284364679236E+00
(PID.TID 0000.0001)  ploadbar=  1.00961348952606E+05
 cg2d: Sum(rhs),rhsMax =  -1.00433659831004E+02  1.35841875962873E+00
(PID.TID 0000.0001)  ploadbar=  1.00959292373616E+05
 cg2d: Sum(rhs),rhsMax =  -1.00842743155456E+02  1.35285214567975E+00
(PID.TID 0000.0001)  ploadbar=  1.00957235794625E+05
 cg2d: Sum(rhs),rhsMax =  -1.01183438926407E+02  1.34823697008900E+00
(PID.TID 0000.0001)  ploadbar=  1.00955521529846E+05
 cg2d: Sum(rhs),rhsMax =  -1.01544434649904E+02  1.34336818295861E+00
(PID.TID 0000.0001)  ploadbar=  1.00953807265067E+05
(PID.TID 0000.0001) %CHECKPOINT      8772 0000008772
 cg2d: Sum(rhs),rhsMax =  -1.01965121654117E+02  1.33772630436904E+00
(PID.TID 0000.0001)  ploadbar=  1.00952093000287E+05
 cg2d: Sum(rhs),rhsMax =  -1.02398830311396E+02  1.33193450233298E+00
(PID.TID 0000.0001)  ploadbar=  1.00950378735508E+05
 cg2d: Sum(rhs),rhsMax =  -1.02860137606576E+02  1.32580799920090E+00
(PID.TID 0000.0001)  ploadbar=  1.00948664470728E+05
 cg2d: Sum(rhs),rhsMax =  -1.03344193560046E+02  1.31941746866727E+00
(PID.TID 0000.0001)  ploadbar=  1.00946950205949E+05
 cg2d: Sum(rhs),rhsMax =  -1.03890755265864E+02  1.31235249178170E+00
(PID.TID 0000.0001)  ploadbar=  1.00946667326083E+05
 cg2d: Sum(rhs),rhsMax =  -1.04396577033171E+02  1.30591176710460E+00
(PID.TID 0000.0001)  ploadbar=  1.00946384446217E+05
 cg2d: Sum(rhs),rhsMax =  -1.04847565363254E+02  1.30024439753767E+00
(PID.TID 0000.0001)  ploadbar=  1.00946101566351E+05
 cg2d: Sum(rhs),rhsMax =  -1.05211980111030E+02  1.29571824810168E+00
(PID.TID 0000.0001)  ploadbar=  1.00945818686485E+05
 cg2d: Sum(rhs),rhsMax =  -1.05489986624888E+02  1.29230983743952E+00
(PID.TID 0000.0001)  ploadbar=  1.00945535806619E+05
 cg2d: Sum(rhs),rhsMax =  -1.05693482585217E+02  1.28985691642024E+00
(PID.TID 0000.0001)  ploadbar=  1.00945252926753E+05
 cg2d: Sum(rhs),rhsMax =  -1.05874364771788E+02  1.28766670986607E+00
(PID.TID 0000.0001)  ploadbar=  1.00945328229937E+05
 cg2d: Sum(rhs),rhsMax =  -1.06145814949009E+02  1.28435856208728E+00
(PID.TID 0000.0001)  ploadbar=  1.00945403533121E+05
 cg2d: Sum(rhs),rhsMax =  -1.06504460956314E+02  1.27999032456931E+00
(PID.TID 0000.0001)  ploadbar=  1.00945478836305E+05
 cg2d: Sum(rhs),rhsMax =  -1.06966834413022E+02  1.27438725873160E+00
(PID.TID 0000.0001)  ploadbar=  1.00945554139489E+05
 cg2d: Sum(rhs),rhsMax =  -1.07527096356521E+02  1.26765089324452E+00
(PID.TID 0000.0001)  ploadbar=  1.00945629442673E+05
 cg2d: Sum(rhs),rhsMax =  -1.08178542322228E+02  1.25989496199851E+00
(PID.TID 0000.0001)  ploadbar=  1.00945704745857E+05
 cg2d: Sum(rhs),rhsMax =  -1.08850987292197E+02  1.25200374727658E+00
(PID.TID 0000.0001)  ploadbar=  1.00945989908291E+05
 cg2d: Sum(rhs),rhsMax =  -1.09531459245382E+02  1.24412369069888E+00
(PID.TID 0000.0001)  ploadbar=  1.00946275070725E+05
 cg2d: Sum(rhs),rhsMax =  -1.10206364716327E+02  1.23640886529759E+00
(PID.TID 0000.0001)  ploadbar=  1.00946560233159E+05
 cg2d: Sum(rhs),rhsMax =  -1.10878690495798E+02  1.22882657658057E+00
(PID.TID 0000.0001)  ploadbar=  1.00946845395593E+05
 cg2d: Sum(rhs),rhsMax =  -1.11541739310928E+02  1.22145000988416E+00
(PID.TID 0000.0001)  ploadbar=  1.00947130558028E+05
 cg2d: Sum(rhs),rhsMax =  -1.11368153088971E+02  1.22328878745218E+00
(PID.TID 0000.0001)  ploadbar=  1.00947415720462E+05
 cg2d: Sum(rhs),rhsMax =  -1.10708725914891E+02  1.23048844803580E+00
(PID.TID 0000.0001)  ploadbar=  1.00947929982792E+05
 cg2d: Sum(rhs),rhsMax =  -1.09973595828407E+02  1.23859483719763E+00
(PID.TID 0000.0001)  ploadbar=  1.00948444245123E+05
 cg2d: Sum(rhs),rhsMax =  -1.09273433767983E+02  1.24637201122641E+00
(PID.TID 0000.0001)  ploadbar=  1.00948958507453E+05
 cg2d: Sum(rhs),rhsMax =  -1.08585335315587E+02  1.25406925601720E+00
(PID.TID 0000.0001)  ploadbar=  1.00949472769783E+05
 cg2d: Sum(rhs),rhsMax =  -1.07896300891266E+02  1.26183477355494E+00
(PID.TID 0000.0001)  ploadbar=  1.00949987032114E+05
 cg2d: Sum(rhs),rhsMax =  -1.07198708354600E+02  1.26975860542674E+00
(PID.TID 0000.0001)  ploadbar=  1.00950501294444E+05
 cg2d: Sum(rhs),rhsMax =  -1.06524539149519E+02  1.27755119561872E+00
(PID.TID 0000.0001)  ploadbar=  1.00949650248466E+05
 cg2d: Sum(rhs),rhsMax =  -1.05882779194375E+02  1.28508554698596E+00
(PID.TID 0000.0001)  ploadbar=  1.00948799202488E+05
 cg2d: Sum(rhs),rhsMax =  -1.05280237052534E+02  1.29225460824588E+00
(PID.TID 0000.0001)  ploadbar=  1.00947948156510E+05
 cg2d: Sum(rhs),rhsMax =  -1.04716298121883E+02  1.29905036122030E+00
(PID.TID 0000.0001)  ploadbar=  1.00947097110532E+05
 cg2d: Sum(rhs),rhsMax =  -1.04144072045665E+02  1.30604586150257E+00
(PID.TID 0000.0001)  ploadbar=  1.00946246064554E+05
 cg2d: Sum(rhs),rhsMax =  -1.03621542247348E+02  1.31250842038009E+00
(PID.TID 0000.0001)  ploadbar=  1.00945395018576E+05
 cg2d: Sum(rhs),rhsMax =  -1.03313485238174E+02  1.31628658137851E+00
(PID.TID 0000.0001)  ploadbar=  1.00946335233808E+05
 cg2d: Sum(rhs),rhsMax =  -1.02986848687500E+02  1.32030762647903E+00
(PID.TID 0000.0001)  ploadbar=  1.00947275449041E+05
 cg2d: Sum(rhs),rhsMax =  -1.02622933464782E+02  1.32481284836673E+00
(PID.TID 0000.0001)  ploadbar=  1.00948215664273E+05
 cg2d: Sum(rhs),rhsMax =  -1.02206123088141E+02  1.33001417612332E+00
(PID.TID 0000.0001)  ploadbar=  1.00949155879506E+05
 cg2d: Sum(rhs),rhsMax =  -1.01754134428993E+02  1.33569115692440E+00
(PID.TID 0000.0001)  ploadbar=  1.00950096094738E+05
 cg2d: Sum(rhs),rhsMax =  -1.01269635707288E+02  1.34182039149802E+00
(PID.TID 0000.0001)  ploadbar=  1.00951036309971E+05
 cg2d: Sum(rhs),rhsMax =  -1.00804284602061E+02  1.34777394744508E+00
(PID.TID 0000.0001)  ploadbar=  1.00951380250404E+05
 cg2d: Sum(rhs),rhsMax =  -1.00338240379888E+02  1.35380373703333E+00
(PID.TID 0000.0001)  ploadbar=  1.00951724190838E+05
 cg2d: Sum(rhs),rhsMax =  -9.98921069131341E+01  1.35963069431645E+00
(PID.TID 0000.0001)  ploadbar=  1.00952068131271E+05
 cg2d: Sum(rhs),rhsMax =  -9.95788448853420E+01  1.36370162043044E+00
(PID.TID 0000.0001)  ploadbar=  1.00952412071704E+05
 cg2d: Sum(rhs),rhsMax =  -9.95581563191458E+01  1.36379565254702E+00
(PID.TID 0000.0001)  ploadbar=  1.00952756012138E+05
 cg2d: Sum(rhs),rhsMax =  -1.00037645472954E+02  1.35707318106933E+00
(PID.TID 0000.0001)  ploadbar=  1.00953099952571E+05
 cg2d: Sum(rhs),rhsMax =  -1.00005294860245E+02  1.35731633061676E+00
(PID.TID 0000.0001)  ploadbar=  1.00953393558854E+05
 cg2d: Sum(rhs),rhsMax =  -1.00252113190577E+02  1.35375719731359E+00
(PID.TID 0000.0001)  ploadbar=  1.00953687165136E+05
 cg2d: Sum(rhs),rhsMax =  -1.00597794208381E+02  1.34885454992590E+00
(PID.TID 0000.0001)  ploadbar=  1.00953980771419E+05
 cg2d: Sum(rhs),rhsMax =  -1.00897555739410E+02  1.34455884102374E+00
(PID.TID 0000.0001)  ploadbar=  1.00954274377701E+05
 cg2d: Sum(rhs),rhsMax =  -1.01150968873107E+02  1.34086346566941E+00
(PID.TID 0000.0001)  ploadbar=  1.00954567983984E+05
 cg2d: Sum(rhs),rhsMax =  -1.01362827527278E+02  1.33769537352421E+00
(PID.TID 0000.0001)  ploadbar=  1.00954861590267E+05
 cg2d: Sum(rhs),rhsMax =  -1.01595527025121E+02  1.33432726531959E+00
(PID.TID 0000.0001)  ploadbar=  1.00954747697708E+05
 cg2d: Sum(rhs),rhsMax =  -1.01846129057547E+02  1.33079108252935E+00
(PID.TID 0000.0001)  ploadbar=  1.00954633805150E+05
 cg2d: Sum(rhs),rhsMax =  -1.02118039332554E+02  1.32703498224729E+00
(PID.TID 0000.0001)  ploadbar=  1.00954519912592E+05
 cg2d: Sum(rhs),rhsMax =  -1.02415461813035E+02  1.32300237210698E+00
(PID.TID 0000.0001)  ploadbar=  1.00954406020033E+05
 cg2d: Sum(rhs),rhsMax =  -1.02710260610890E+02  1.31905701765739E+00
(PID.TID 0000.0001)  ploadbar=  1.00954292127475E+05
 cg2d: Sum(rhs),rhsMax =  -1.03073223182854E+02  1.31429258061003E+00
(PID.TID 0000.0001)  ploadbar=  1.00954178234916E+05
 cg2d: Sum(rhs),rhsMax =  -1.03584647645728E+02  1.30768801102057E+00
(PID.TID 0000.0001)  ploadbar=  1.00954973970788E+05
 cg2d: Sum(rhs),rhsMax =  -1.04098378373279E+02  1.30111540020284E+00
(PID.TID 0000.0001)  ploadbar=  1.00955769706659E+05
 cg2d: Sum(rhs),rhsMax =  -1.04607633139660E+02  1.29465605347679E+00
(PID.TID 0000.0001)  ploadbar=  1.00956565442530E+05
 cg2d: Sum(rhs),rhsMax =  -1.05101818699984E+02  1.28843353607721E+00
(PID.TID 0000.0001)  ploadbar=  1.00957361178401E+05
 cg2d: Sum(rhs),rhsMax =  -1.05603235717957E+02  1.28216580314769E+00
(PID.TID 0000.0001)  ploadbar=  1.00958156914272E+05
 cg2d: Sum(rhs),rhsMax =  -1.06099984958535E+02  1.27599464094376E+00
(PID.TID 0000.0001)  ploadbar=  1.00958952650144E+05
 cg2d: Sum(rhs),rhsMax =  -1.06522096923213E+02  1.27079871214118E+00
(PID.TID 0000.0001)  ploadbar=  1.00960277052101E+05
 cg2d: Sum(rhs),rhsMax =  -1.06937381281886E+02  1.26574703950860E+00
(PID.TID 0000.0001)  ploadbar=  1.00961601454058E+05
 cg2d: Sum(rhs),rhsMax =  -1.07407741409443E+02  1.26011001252095E+00
(PID.TID 0000.0001)  ploadbar=  1.00962925856015E+05
 cg2d: Sum(rhs),rhsMax =  -1.07982819331514E+02  1.25332640678847E+00
(PID.TID 0000.0001)  ploadbar=  1.00964250257971E+05
 cg2d: Sum(rhs),rhsMax =  -1.08464867363621E+02  1.24770293831071E+00
(PID.TID 0000.0001)  ploadbar=  1.00965574659928E+05
 cg2d: Sum(rhs),rhsMax =  -1.08897272877846E+02  1.24270449697981E+00
(PID.TID 0000.0001)  ploadbar=  1.00966899061885E+05
 cg2d: Sum(rhs),rhsMax =  -1.09067561056310E+02  1.24070466094595E+00
(PID.TID 0000.0001)  ploadbar=  1.00967807644078E+05
 cg2d: Sum(rhs),rhsMax =  -1.08948517093235E+02  1.24197367384257E+00
(PID.TID 0000.0001)  ploadbar=  1.00968716226271E+05
 cg2d: Sum(rhs),rhsMax =  -1.09017503617847E+02  1.24106509070761E+00
(PID.TID 0000.0001)  ploadbar=  1.00969624808464E+05
 cg2d: Sum(rhs),rhsMax =  -1.09377866676262E+02  1.23681523802788E+00
(PID.TID 0000.0001)  ploadbar=  1.00970533390657E+05
 cg2d: Sum(rhs),rhsMax =  -1.09772410392261E+02  1.23216894071069E+00
(PID.TID 0000.0001)  ploadbar=  1.00971441972850E+05
 cg2d: Sum(rhs),rhsMax =  -1.10189045304862E+02  1.22727051669692E+00
(PID.TID 0000.0001)  ploadbar=  1.00972350555043E+05
 cg2d: Sum(rhs),rhsMax =  -1.10512300018808E+02  1.22347962923120E+00
(PID.TID 0000.0001)  ploadbar=  1.00972270733324E+05
 cg2d: Sum(rhs),rhsMax =  -1.10850281358204E+02  1.21957584482685E+00
(PID.TID 0000.0001)  ploadbar=  1.00972190911604E+05
 cg2d: Sum(rhs),rhsMax =  -1.11198395414771E+02  1.21560391491692E+00
(PID.TID 0000.0001)  ploadbar=  1.00972111089885E+05
 cg2d: Sum(rhs),rhsMax =  -1.11550950896275E+02  1.21162757837017E+00
(PID.TID 0000.0001)  ploadbar=  1.00972031268165E+05
 cg2d: Sum(rhs),rhsMax =  -1.11644156000750E+02  1.21049721697683E+00
(PID.TID 0000.0001)  ploadbar=  1.00971951446446E+05
 cg2d: Sum(rhs),rhsMax =  -1.09473538689455E+02  1.23438885609707E+00
(PID.TID 0000.0001)  ploadbar=  1.00971871624726E+05
 cg2d: Sum(rhs),rhsMax =  -1.07582615862009E+02  1.25596909386863E+00
(PID.TID 0000.0001)  ploadbar=  1.00972024127190E+05
 cg2d: Sum(rhs),rhsMax =  -1.05852480608551E+02  1.27636958705473E+00
(PID.TID 0000.0001)  ploadbar=  1.00972176629654E+05
 cg2d: Sum(rhs),rhsMax =  -1.04282715538344E+02  1.29543990558084E+00
(PID.TID 0000.0001)  ploadbar=  1.00972329132117E+05
 cg2d: Sum(rhs),rhsMax =  -1.02840948970123E+02  1.31343936964513E+00
(PID.TID 0000.0001)  ploadbar=  1.00972481634581E+05
 cg2d: Sum(rhs),rhsMax =  -1.01475486581599E+02  1.33092721955895E+00
(PID.TID 0000.0001)  ploadbar=  1.00972634137045E+05
 cg2d: Sum(rhs),rhsMax =  -1.00142738416594E+02  1.34842696118678E+00
(PID.TID 0000.0001)  ploadbar=  1.00972786639508E+05
 cg2d: Sum(rhs),rhsMax =  -9.88474574164882E+01  1.36590726176788E+00
(PID.TID 0000.0001)  ploadbar=  1.00973311241163E+05
 cg2d: Sum(rhs),rhsMax =  -9.75528205275712E+01  1.38386103707982E+00
(PID.TID 0000.0001)  ploadbar=  1.00973835842817E+05
 cg2d: Sum(rhs),rhsMax =  -9.63057864074114E+01  1.40162188479824E+00
(PID.TID 0000.0001)  ploadbar=  1.00974360444471E+05
 cg2d: Sum(rhs),rhsMax =  -9.51285242042987E+01  1.41882605970029E+00
(PID.TID 0000.0001)  ploadbar=  1.00974885046125E+05
 cg2d: Sum(rhs),rhsMax =  -9.40947435189491E+01  1.43429173100432E+00
(PID.TID 0000.0001)  ploadbar=  1.00975409647780E+05
 cg2d: Sum(rhs),rhsMax =  -9.33063070968770E+01  1.44629548336088E+00
(PID.TID 0000.0001)  ploadbar=  1.00975934249434E+05
 cg2d: Sum(rhs),rhsMax =  -9.27001052418384E+01  1.45561649638050E+00
(PID.TID 0000.0001)  ploadbar=  1.00975674405155E+05
 cg2d: Sum(rhs),rhsMax =  -9.23016719992566E+01  1.46173159738632E+00
(PID.TID 0000.0001)  ploadbar=  1.00975414560876E+05
 cg2d: Sum(rhs),rhsMax =  -9.20249303519051E+01  1.46592153771154E+00
(PID.TID 0000.0001)  ploadbar=  1.00975154716597E+05
 cg2d: Sum(rhs),rhsMax =  -9.17891925869586E+01  1.46943820022662E+00
(PID.TID 0000.0001)  ploadbar=  1.00974894872319E+05
 cg2d: Sum(rhs),rhsMax =  -9.15257896282996E+01  1.47337501310884E+00
(PID.TID 0000.0001)  ploadbar=  1.00974635028040E+05
 cg2d: Sum(rhs),rhsMax =  -9.11933827653693E+01  1.47840871200113E+00
(PID.TID 0000.0001)  ploadbar=  1.00974375183761E+05
 cg2d: Sum(rhs),rhsMax =  -9.07926309024267E+01  1.48464062951161E+00
(PID.TID 0000.0001)  ploadbar=  1.00973859155630E+05
 cg2d: Sum(rhs),rhsMax =  -9.01302415113364E+01  1.49528926126189E+00
(PID.TID 0000.0001)  ploadbar=  1.00973343127500E+05
 cg2d: Sum(rhs),rhsMax =  -8.94301693233009E+01  1.50675262336387E+00
(PID.TID 0000.0001)  ploadbar=  1.00972827099369E+05
 cg2d: Sum(rhs),rhsMax =  -8.87731323955168E+01  1.51767836024268E+00
(PID.TID 0000.0001)  ploadbar=  1.00972311071239E+05
 cg2d: Sum(rhs),rhsMax =  -8.82417312669922E+01  1.52660642791002E+00
(PID.TID 0000.0001)  ploadbar=  1.00971795043108E+05
 cg2d: Sum(rhs),rhsMax =  -8.78930456982364E+01  1.53246510209531E+00
(PID.TID 0000.0001)  ploadbar=  1.00971279014977E+05
 cg2d: Sum(rhs),rhsMax =  -8.77391972930960E+01  1.53493782893540E+00
(PID.TID 0000.0001)  ploadbar=  1.00971054753039E+05
 cg2d: Sum(rhs),rhsMax =  -8.48892708479985E+01  1.58622320489220E+00
(PID.TID 0000.0001)  ploadbar=  1.00970830491100E+05
 cg2d: Sum(rhs),rhsMax =  -8.21006070497284E+01  1.63981841142089E+00
(PID.TID 0000.0001)  ploadbar=  1.00970606229161E+05
 cg2d: Sum(rhs),rhsMax =  -7.92644762038426E+01  1.69816367658871E+00
(PID.TID 0000.0001)  ploadbar=  1.00970381967223E+05
 cg2d: Sum(rhs),rhsMax =  -7.63992118575481E+01  1.76147476530616E+00
(PID.TID 0000.0001)  ploadbar=  1.00970157705284E+05
 cg2d: Sum(rhs),rhsMax =  -7.35442341305896E+01  1.82942442236084E+00
(PID.TID 0000.0001)  ploadbar=  1.00969933443345E+05
 cg2d: Sum(rhs),rhsMax =  -7.11805262953551E+01  1.88975929136166E+00
(PID.TID 0000.0001)  ploadbar=  1.00971014915791E+05
 cg2d: Sum(rhs),rhsMax =  -6.92645746417547E+01  1.94162372616790E+00
(PID.TID 0000.0001)  ploadbar=  1.00972096388236E+05
 cg2d: Sum(rhs),rhsMax =  -6.77672827493576E+01  1.98412311902067E+00
(PID.TID 0000.0001)  ploadbar=  1.00973177860681E+05
 cg2d: Sum(rhs),rhsMax =  -6.65674296023816E+01  2.01949976758506E+00
(PID.TID 0000.0001)  ploadbar=  1.00974259333126E+05
 cg2d: Sum(rhs),rhsMax =  -6.55669717960105E+01  2.04994521539801E+00
(PID.TID 0000.0001)  ploadbar=  1.00975340805571E+05
 cg2d: Sum(rhs),rhsMax =  -6.47045481098314E+01  2.07690431683518E+00
(PID.TID 0000.0001)  ploadbar=  1.00976422278016E+05
 cg2d: Sum(rhs),rhsMax =  -6.38604619671589E+01  2.10394591379830E+00
(PID.TID 0000.0001)  ploadbar=  1.00977143487227E+05
 cg2d: Sum(rhs),rhsMax =  -6.30357447586506E+01  2.13100350949765E+00
(PID.TID 0000.0001)  ploadbar=  1.00977864696437E+05
 cg2d: Sum(rhs),rhsMax =  -6.22264354280729E+01  2.15817989506877E+00
(PID.TID 0000.0001)  ploadbar=  1.00978585905648E+05
 cg2d: Sum(rhs),rhsMax =  -6.14393548501257E+01  2.18521402459867E+00
(PID.TID 0000.0001)  ploadbar=  1.00979307114858E+05
 cg2d: Sum(rhs),rhsMax =  -6.06948982631316E+01  2.21132767355354E+00
(PID.TID 0000.0001)  ploadbar=  1.00980028324068E+05
 cg2d: Sum(rhs),rhsMax =  -6.00120259840685E+01  2.23572223939903E+00
(PID.TID 0000.0001)  ploadbar=  1.00980749533279E+05
 cg2d: Sum(rhs),rhsMax =  -5.94951880185639E+01  2.25442370703362E+00
(PID.TID 0000.0001)  ploadbar=  1.00982066340366E+05
 cg2d: Sum(rhs),rhsMax =  -5.91462621080802E+01  2.26703925911579E+00
(PID.TID 0000.0001)  ploadbar=  1.00983383147453E+05
 cg2d: Sum(rhs),rhsMax =  -5.89670225764251E+01  2.27326971583507E+00
(PID.TID 0000.0001)  ploadbar=  1.00984699954540E+05
 cg2d: Sum(rhs),rhsMax =  -5.89174134922017E+01  2.27453935817636E+00
(PID.TID 0000.0001)  ploadbar=  1.00986016761628E+05
 cg2d: Sum(rhs),rhsMax =  -5.89645770657633E+01  2.27208921581561E+00
(PID.TID 0000.0001)  ploadbar=  1.00987333568715E+05
 cg2d: Sum(rhs),rhsMax =  -5.90903762291547E+01  2.26663317943022E+00
(PID.TID 0000.0001)  ploadbar=  1.00988650375802E+05
 cg2d: Sum(rhs),rhsMax =  -5.92621001369713E+01  2.25943983414185E+00
(PID.TID 0000.0001)  ploadbar=  1.00989675122012E+05
 cg2d: Sum(rhs),rhsMax =  -5.94755434787007E+01  2.25068888983932E+00
(PID.TID 0000.0001)  ploadbar=  1.00990699868223E+05
 cg2d: Sum(rhs),rhsMax =  -5.97294552639562E+01  2.24046284494344E+00
(PID.TID 0000.0001)  ploadbar=  1.00991724614433E+05
 cg2d: Sum(rhs),rhsMax =  -6.00304126220395E+01  2.22855358085982E+00
(PID.TID 0000.0001)  ploadbar=  1.00992749360643E+05
 cg2d: Sum(rhs),rhsMax =  -6.03837203694420E+01  2.21481653566659E+00
(PID.TID 0000.0001)  ploadbar=  1.00993774106854E+05
 cg2d: Sum(rhs),rhsMax =  -6.07984096178549E+01  2.19898231108409E+00
(PID.TID 0000.0001)  ploadbar=  1.00994798853064E+05
 cg2d: Sum(rhs),rhsMax =  -6.12664382133522E+01  2.18148297608524E+00
(PID.TID 0000.0001)  ploadbar=  1.00995495367331E+05
 cg2d: Sum(rhs),rhsMax =  -6.17779028102955E+01  2.16274047115042E+00
(PID.TID 0000.0001)  ploadbar=  1.00996191881597E+05
 cg2d: Sum(rhs),rhsMax =  -6.23273581895543E+01  2.14301109162651E+00
(PID.TID 0000.0001)  ploadbar=  1.00996888395864E+05
 cg2d: Sum(rhs),rhsMax =  -6.29208851257342E+01  2.12215197564943E+00
(PID.TID 0000.0001)  ploadbar=  1.00997584910131E+05
 cg2d: Sum(rhs),rhsMax =  -6.35634183711090E+01  2.10007722061353E+00
(PID.TID 0000.0001)  ploadbar=  1.00998281424397E+05
 cg2d: Sum(rhs),rhsMax =  -6.42627658416786E+01  2.07660669465304E+00
(PID.TID 0000.0001)  ploadbar=  1.00998977938664E+05
 cg2d: Sum(rhs),rhsMax =  -6.46143200861074E+01  2.06468043644509E+00
(PID.TID 0000.0001)  ploadbar=  1.01000270659489E+05
 cg2d: Sum(rhs),rhsMax =  -6.49212936962117E+01  2.05426793566235E+00
(PID.TID 0000.0001)  ploadbar=  1.01001563380314E+05
 cg2d: Sum(rhs),rhsMax =  -6.52713423430081E+01  2.04257274789747E+00
(PID.TID 0000.0001)  ploadbar=  1.01002856101139E+05
 cg2d: Sum(rhs),rhsMax =  -6.56645960443229E+01  2.02963073797163E+00
(PID.TID 0000.0001)  ploadbar=  1.01004148821963E+05
 cg2d: Sum(rhs),rhsMax =  -6.61029979050088E+01  2.01542819269372E+00
(PID.TID 0000.0001)  ploadbar=  1.01005441542788E+05
 cg2d: Sum(rhs),rhsMax =  -6.65871717052371E+01  2.00000169289502E+00
(PID.TID 0000.0001)  ploadbar=  1.01006734263613E+05
 cg2d: Sum(rhs),rhsMax =  -6.71157229681271E+01  1.98357496675554E+00
(PID.TID 0000.0001)  ploadbar=  1.01008322511664E+05
 cg2d: Sum(rhs),rhsMax =  -6.76863717552728E+01  1.96625582515004E+00
(PID.TID 0000.0001)  ploadbar=  1.01009910759714E+05
 cg2d: Sum(rhs),rhsMax =  -6.82949948298416E+01  1.94820401245438E+00
(PID.TID 0000.0001)  ploadbar=  1.01011499007764E+05
 cg2d: Sum(rhs),rhsMax =  -6.89455581305870E+01  1.92935311850097E+00
(PID.TID 0000.0001)  ploadbar=  1.01013087255814E+05
 cg2d: Sum(rhs),rhsMax =  -6.96374255204298E+01  1.90977897461502E+00
(PID.TID 0000.0001)  ploadbar=  1.01014675503865E+05
 cg2d: Sum(rhs),rhsMax =  -7.03680471267051E+01  1.88960452183272E+00
(PID.TID 0000.0001)  ploadbar=  1.01016263751915E+05
 cg2d: Sum(rhs),rhsMax =  -7.11218021089150E+01  1.86924505184008E+00
(PID.TID 0000.0001)  ploadbar=  1.01016954902400E+05
 cg2d: Sum(rhs),rhsMax =  -7.18983734417205E+01  1.84872056004653E+00
(PID.TID 0000.0001)  ploadbar=  1.01017646052885E+05
 cg2d: Sum(rhs),rhsMax =  -7.26873376565822E+01  1.82831502490739E+00
(PID.TID 0000.0001)  ploadbar=  1.01018337203371E+05
 cg2d: Sum(rhs),rhsMax =  -7.34894567708179E+01  1.80801208700621E+00
(PID.TID 0000.0001)  ploadbar=  1.01019028353856E+05
 cg2d: Sum(rhs),rhsMax =  -7.43066214829850E+01  1.78776767317702E+00
(PID.TID 0000.0001)  ploadbar=  1.01019719504341E+05
 cg2d: Sum(rhs),rhsMax =  -7.51416981811176E+01  1.76751287805108E+00
(PID.TID 0000.0001)  ploadbar=  1.01020410654827E+05
 cg2d: Sum(rhs),rhsMax =  -7.59601238007771E+01  1.74810670960743E+00
(PID.TID 0000.0001)  ploadbar=  1.01021088440340E+05
 cg2d: Sum(rhs),rhsMax =  -7.67952721791866E+01  1.72875431096292E+00
(PID.TID 0000.0001)  ploadbar=  1.01021766225853E+05
 cg2d: Sum(rhs),rhsMax =  -7.76423436477419E+01  1.70957405127464E+00
(PID.TID 0000.0001)  ploadbar=  1.01022444011366E+05
 cg2d: Sum(rhs),rhsMax =  -7.84973934319003E+01  1.69065670562233E+00
(PID.TID 0000.0001)  ploadbar=  1.01023121796878E+05
 cg2d: Sum(rhs),rhsMax =  -7.93557643750442E+01  1.67209342283267E+00
(PID.TID 0000.0001)  ploadbar=  1.01023799582391E+05
 cg2d: Sum(rhs),rhsMax =  -8.02142212320350E+01  1.65393261257054E+00
(PID.TID 0000.0001)  ploadbar=  1.01024477367904E+05
 cg2d: Sum(rhs),rhsMax =  -8.10385008763546E+01  1.63683657634084E+00
(PID.TID 0000.0001)  ploadbar=  1.01024456464383E+05
 cg2d: Sum(rhs),rhsMax =  -8.18525157853116E+01  1.62026849000901E+00
(PID.TID 0000.0001)  ploadbar=  1.01024435560862E+05
 cg2d: Sum(rhs),rhsMax =  -8.17454844133688E+01  1.62207270553317E+00
(PID.TID 0000.0001)  ploadbar=  1.01024414657341E+05
 cg2d: Sum(rhs),rhsMax =  -8.21901857918969E+01  1.61295065141198E+00
(PID.TID 0000.0001)  ploadbar=  1.01024393753820E+05
 cg2d: Sum(rhs),rhsMax =  -8.26445368612791E+01  1.60370929516150E+00
(PID.TID 0000.0001)  ploadbar=  1.01024372850299E+05
 cg2d: Sum(rhs),rhsMax =  -8.31246494529676E+01  1.59404529650820E+00
(PID.TID 0000.0001)  ploadbar=  1.01024351946778E+05
 cg2d: Sum(rhs),rhsMax =  -8.36214371145007E+01  1.58423852148565E+00
(PID.TID 0000.0001)  ploadbar=  1.01023824409779E+05
 cg2d: Sum(rhs),rhsMax =  -8.30694180611851E+01  1.59448036939218E+00
(PID.TID 0000.0001)  ploadbar=  1.01023296872780E+05
 cg2d: Sum(rhs),rhsMax =  -8.25158366452246E+01  1.60493358939161E+00
(PID.TID 0000.0001)  ploadbar=  1.01022769335781E+05
 cg2d: Sum(rhs),rhsMax =  -8.19771477903941E+01  1.61527143117926E+00
(PID.TID 0000.0001)  ploadbar=  1.01022241798783E+05
 cg2d: Sum(rhs),rhsMax =  -8.14731811629984E+01  1.62508751700613E+00
(PID.TID 0000.0001)  ploadbar=  1.01021714261784E+05
 cg2d: Sum(rhs),rhsMax =  -8.10173942440849E+01  1.63409054105815E+00
(PID.TID 0000.0001)  ploadbar=  1.01021186724785E+05
 cg2d: Sum(rhs),rhsMax =  -8.06342720630210E+01  1.64169160733681E+00
(PID.TID 0000.0001)  ploadbar=  1.01021043390503E+05
 cg2d: Sum(rhs),rhsMax =  -8.02527024029505E+01  1.64930408588396E+00
(PID.TID 0000.0001)  ploadbar=  1.01020900056222E+05
 cg2d: Sum(rhs),rhsMax =  -7.98403739061318E+01  1.65759750136197E+00
(PID.TID 0000.0001)  ploadbar=  1.01020756721940E+05
 cg2d: Sum(rhs),rhsMax =  -7.93735312248867E+01  1.66709134904684E+00
(PID.TID 0000.0001)  ploadbar=  1.01020613387659E+05
 cg2d: Sum(rhs),rhsMax =  -7.86330021820995E+01  1.68249864288959E+00
(PID.TID 0000.0001)  ploadbar=  1.01020470053377E+05
 cg2d: Sum(rhs),rhsMax =  -7.73377787465324E+01  1.71033676311146E+00
(PID.TID 0000.0001)  ploadbar=  1.01020326719096E+05
 cg2d: Sum(rhs),rhsMax =  -7.61179138717733E+01  1.73742369718193E+00
(PID.TID 0000.0001)  ploadbar=  1.01019334635241E+05
 cg2d: Sum(rhs),rhsMax =  -7.49861121027133E+01  1.76333791473353E+00
(PID.TID 0000.0001)  ploadbar=  1.01018342551386E+05
 cg2d: Sum(rhs),rhsMax =  -7.39531178639108E+01  1.78767475237096E+00
(PID.TID 0000.0001)  ploadbar=  1.01017350467532E+05
 cg2d: Sum(rhs),rhsMax =  -7.30383635358878E+01  1.80978749108248E+00
(PID.TID 0000.0001)  ploadbar=  1.01016358383677E+05
 cg2d: Sum(rhs),rhsMax =  -7.22659020156073E+01  1.82886642126560E+00
(PID.TID 0000.0001)  ploadbar=  1.01015366299822E+05
 cg2d: Sum(rhs),rhsMax =  -7.07622982913685E+01  1.86745603201590E+00
(PID.TID 0000.0001)  ploadbar=  1.01014374215967E+05
 cg2d: Sum(rhs),rhsMax =  -7.23208033060702E+01  1.82693310355855E+00
(PID.TID 0000.0001)  ploadbar=  1.01012616855527E+05
 cg2d: Sum(rhs),rhsMax =  -7.56095689980940E+01  1.74717913834537E+00
(PID.TID 0000.0001)  ploadbar=  1.01010859495087E+05
 cg2d: Sum(rhs),rhsMax =  -7.91223882765729E+01  1.66930408707452E+00
(PID.TID 0000.0001)  ploadbar=  1.01009102134647E+05
 cg2d: Sum(rhs),rhsMax =  -8.24009396116781E+01  1.60256077295718E+00
(PID.TID 0000.0001)  ploadbar=  1.01007344774207E+05
 cg2d: Sum(rhs),rhsMax =  -8.20469051321308E+01  1.60911369942724E+00
(PID.TID 0000.0001)  ploadbar=  1.01005587413767E+05
 cg2d: Sum(rhs),rhsMax =  -8.13761573677211E+01  1.62197683218566E+00
(PID.TID 0000.0001)  ploadbar=  1.01003830053326E+05
 cg2d: Sum(rhs),rhsMax =  -8.06997738104996E+01  1.63524211393424E+00
(PID.TID 0000.0001)  ploadbar=  1.01002769355306E+05
 cg2d: Sum(rhs),rhsMax =  -8.00071055500394E+01  1.64913315063188E+00
(PID.TID 0000.0001)  ploadbar=  1.01001708657286E+05
 cg2d: Sum(rhs),rhsMax =  -7.93044996056148E+01  1.66352878400988E+00
(PID.TID 0000.0001)  ploadbar=  1.01000647959266E+05
 cg2d: Sum(rhs),rhsMax =  -7.85955960992320E+01  1.67836044467264E+00
(PID.TID 0000.0001)  ploadbar=  1.00999587261246E+05
 cg2d: Sum(rhs),rhsMax =  -7.78838544730923E+01  1.69356756559142E+00
(PID.TID 0000.0001)  ploadbar=  1.00998526563226E+05
 cg2d: Sum(rhs),rhsMax =  -7.71758862531380E+01  1.70901450353744E+00
(PID.TID 0000.0001)  ploadbar=  1.00997465865206E+05
 cg2d: Sum(rhs),rhsMax =  -7.64874613553460E+01  1.72429747245398E+00
(PID.TID 0000.0001)  ploadbar=  1.00996703407051E+05
 cg2d: Sum(rhs),rhsMax =  -7.58221794713221E+01  1.73931022832022E+00
(PID.TID 0000.0001)  ploadbar=  1.00995940948895E+05
 cg2d: Sum(rhs),rhsMax =  -7.51890929197936E+01  1.75382103891356E+00
(PID.TID 0000.0001)  ploadbar=  1.00995178490740E+05
 cg2d: Sum(rhs),rhsMax =  -7.45917409334079E+01  1.76771220880302E+00
(PID.TID 0000.0001)  ploadbar=  1.00994416032584E+05
 cg2d: Sum(rhs),rhsMax =  -7.40340222265073E+01  1.78085190547995E+00
(PID.TID 0000.0001)  ploadbar=  1.00993653574429E+05
 cg2d: Sum(rhs),rhsMax =  -7.35183630353846E+01  1.79313809506002E+00
(PID.TID 0000.0001)  ploadbar=  1.00992891116274E+05
 cg2d: Sum(rhs),rhsMax =  -7.30502817839613E+01  1.80444279573778E+00
(PID.TID 0000.0001)  ploadbar=  1.00993797742695E+05
 cg2d: Sum(rhs),rhsMax =  -7.26212147423264E+01  1.81492925257686E+00
(PID.TID 0000.0001)  ploadbar=  1.00994704369117E+05
 cg2d: Sum(rhs),rhsMax =  -7.22300283230793E+01  1.82459549226510E+00
(PID.TID 0000.0001)  ploadbar=  1.00995610995539E+05
 cg2d: Sum(rhs),rhsMax =  -7.18741254228016E+01  1.83347999722466E+00
(PID.TID 0000.0001)  ploadbar=  1.00996517621960E+05
 cg2d: Sum(rhs),rhsMax =  -7.15514752800519E+01  1.84160532656954E+00
(PID.TID 0000.0001)  ploadbar=  1.00997424248382E+05
 cg2d: Sum(rhs),rhsMax =  -7.12607377391223E+01  1.84896838420005E+00
(PID.TID 0000.0001)  ploadbar=  1.00998330874804E+05
 cg2d: Sum(rhs),rhsMax =  -7.10052842671742E+01  1.85542883397931E+00
(PID.TID 0000.0001)  ploadbar=  1.00998237709259E+05
 cg2d: Sum(rhs),rhsMax =  -7.07843175670724E+01  1.86097994481045E+00
(PID.TID 0000.0001)  ploadbar=  1.00998144543715E+05
 cg2d: Sum(rhs),rhsMax =  -7.05912980152041E+01  1.86576933910315E+00
(PID.TID 0000.0001)  ploadbar=  1.00998051378170E+05
 cg2d: Sum(rhs),rhsMax =  -7.04198122304222E+01  1.86995203341292E+00
(PID.TID 0000.0001)  ploadbar=  1.00997958212626E+05
 cg2d: Sum(rhs),rhsMax =  -7.02629315124811E+01  1.87370287019963E+00
(PID.TID 0000.0001)  ploadbar=  1.00997865047082E+05
 cg2d: Sum(rhs),rhsMax =  -7.01141188480064E+01  1.87719467898190E+00
(PID.TID 0000.0001)  ploadbar=  1.00997771881537E+05
 cg2d: Sum(rhs),rhsMax =  -6.99685628794595E+01  1.88068906790777E+00
(PID.TID 0000.0001)  ploadbar=  1.00996291127142E+05
 cg2d: Sum(rhs),rhsMax =  -6.98144263245899E+01  1.88448845065398E+00
(PID.TID 0000.0001)  ploadbar=  1.00994810372747E+05
 cg2d: Sum(rhs),rhsMax =  -6.96472446336765E+01  1.88870262332567E+00
(PID.TID 0000.0001)  ploadbar=  1.00993329618352E+05
 cg2d: Sum(rhs),rhsMax =  -6.94681591629673E+01  1.89329899329867E+00
(PID.TID 0000.0001)  ploadbar=  1.00991848863956E+05
 cg2d: Sum(rhs),rhsMax =  -6.92797040121927E+01  1.89821477909024E+00
(PID.TID 0000.0001)  ploadbar=  1.00990368109561E+05
 cg2d: Sum(rhs),rhsMax =  -6.90852182450292E+01  1.90335751930856E+00
(PID.TID 0000.0001)  ploadbar=  1.00988887355166E+05
 cg2d: Sum(rhs),rhsMax =  -6.79972550925700E+01  1.93361120866532E+00
(PID.TID 0000.0001)  ploadbar=  1.00989207657328E+05
 cg2d: Sum(rhs),rhsMax =  -6.70163975425986E+01  1.96170612439063E+00
(PID.TID 0000.0001)  ploadbar=  1.00989527959490E+05
 cg2d: Sum(rhs),rhsMax =  -6.61479106970530E+01  1.98725018872373E+00
(PID.TID 0000.0001)  ploadbar=  1.00989848261652E+05
 cg2d: Sum(rhs),rhsMax =  -6.53550894738039E+01  2.01113347335169E+00
(PID.TID 0000.0001)  ploadbar=  1.00990168563814E+05
 cg2d: Sum(rhs),rhsMax =  -6.46101357933070E+01  2.03407858028918E+00
(PID.TID 0000.0001)  ploadbar=  1.00990488865977E+05
 cg2d: Sum(rhs),rhsMax =  -6.38986542089957E+01  2.05646239011849E+00
(PID.TID 0000.0001)  ploadbar=  1.00990809168139E+05
 cg2d: Sum(rhs),rhsMax =  -6.32153761919488E+01  2.07845830971691E+00
(PID.TID 0000.0001)  ploadbar=  1.00992174266152E+05
 cg2d: Sum(rhs),rhsMax =  -6.26378205451467E+01  2.09741236744888E+00
(PID.TID 0000.0001)  ploadbar=  1.00993539364164E+05
 cg2d: Sum(rhs),rhsMax =  -6.33963939629725E+01  2.07213146277576E+00
(PID.TID 0000.0001)  ploadbar=  1.00994904462177E+05
 cg2d: Sum(rhs),rhsMax =  -6.41193276926971E+01  2.04861126713537E+00
(PID.TID 0000.0001)  ploadbar=  1.00996269560190E+05
 cg2d: Sum(rhs),rhsMax =  -6.48029842582958E+01  2.02686617545477E+00
(PID.TID 0000.0001)  ploadbar=  1.00997634658203E+05
 cg2d: Sum(rhs),rhsMax =  -6.54414342667810E+01  2.00696530524716E+00
(PID.TID 0000.0001)  ploadbar=  1.00998999756216E+05
 cg2d: Sum(rhs),rhsMax =  -6.60035695248304E+01  1.98970303186970E+00
(PID.TID 0000.0001)  ploadbar=  1.00999999123428E+05
 cg2d: Sum(rhs),rhsMax =  -6.64580011880798E+01  1.97586956060782E+00
(PID.TID 0000.0001)  ploadbar=  1.01000998490639E+05
 cg2d: Sum(rhs),rhsMax =  -6.62589509411193E+01  1.98150531766206E+00
(PID.TID 0000.0001)  ploadbar=  1.01001997857851E+05
 cg2d: Sum(rhs),rhsMax =  -6.60590607490244E+01  1.98712444620468E+00
(PID.TID 0000.0001)  ploadbar=  1.01002997225063E+05
 cg2d: Sum(rhs),rhsMax =  -6.58555686534969E+01  1.99281192762425E+00
(PID.TID 0000.0001)  ploadbar=  1.01003996592274E+05
 cg2d: Sum(rhs),rhsMax =  -6.56464301103311E+01  1.99863318898182E+00
(PID.TID 0000.0001)  ploadbar=  1.01004995959486E+05
 cg2d: Sum(rhs),rhsMax =  -6.54343724332100E+01  2.00467656122521E+00
(PID.TID 0000.0001)  ploadbar=  1.01006140353744E+05
 cg2d: Sum(rhs),rhsMax =  -6.52225378371498E+01  2.01083789787757E+00
(PID.TID 0000.0001)  ploadbar=  1.01007284748002E+05
 cg2d: Sum(rhs),rhsMax =  -6.50138541424325E+01  2.01701416393218E+00
(PID.TID 0000.0001)  ploadbar=  1.01008429142259E+05
 cg2d: Sum(rhs),rhsMax =  -6.48122381900139E+01  2.02307799907317E+00
(PID.TID 0000.0001)  ploadbar=  1.01009573536517E+05
 cg2d: Sum(rhs),rhsMax =  -6.46222967773474E+01  2.02887558619589E+00
(PID.TID 0000.0001)  ploadbar=  1.01010717930775E+05
 cg2d: Sum(rhs),rhsMax =  -6.44476427721062E+01  2.03427540862176E+00
(PID.TID 0000.0001)  ploadbar=  1.01011862325033E+05
 cg2d: Sum(rhs),rhsMax =  -6.42824234424376E+01  2.03941472055114E+00
(PID.TID 0000.0001)  ploadbar=  1.01011244883130E+05
 cg2d: Sum(rhs),rhsMax =  -6.41285347401003E+01  2.04422019012609E+00
(PID.TID 0000.0001)  ploadbar=  1.01010627441227E+05
 cg2d: Sum(rhs),rhsMax =  -6.39882868977239E+01  2.04860846647628E+00
(PID.TID 0000.0001)  ploadbar=  1.01010009999324E+05
 cg2d: Sum(rhs),rhsMax =  -6.38629782835932E+01  2.05252925985579E+00
(PID.TID 0000.0001)  ploadbar=  1.01009392557421E+05
 cg2d: Sum(rhs),rhsMax =  -6.37532774562564E+01  2.05595245661359E+00
(PID.TID 0000.0001)  ploadbar=  1.01008775115519E+05
 cg2d: Sum(rhs),rhsMax =  -6.36586479459042E+01  2.05888779670095E+00
(PID.TID 0000.0001)  ploadbar=  1.01008157673616E+05
 cg2d: Sum(rhs),rhsMax =  -6.35797371120652E+01  2.06135341552073E+00
(PID.TID 0000.0001)  ploadbar=  1.01006345825218E+05
 cg2d: Sum(rhs),rhsMax =  -6.35199380586380E+01  2.06322880999009E+00
(PID.TID 0000.0001)  ploadbar=  1.01004533976821E+05
 cg2d: Sum(rhs),rhsMax =  -6.34828163170884E+01  2.06439933874739E+00
(PID.TID 0000.0001)  ploadbar=  1.01002722128423E+05
 cg2d: Sum(rhs),rhsMax =  -6.34722903335553E+01  2.06473644590967E+00
(PID.TID 0000.0001)  ploadbar=  1.01000910280026E+05
 cg2d: Sum(rhs),rhsMax =  -6.34967069559872E+01  2.06396927658151E+00
(PID.TID 0000.0001)  ploadbar=  1.00999098431628E+05
 cg2d: Sum(rhs),rhsMax =  -6.35642920922648E+01  2.06182176894434E+00
(PID.TID 0000.0001)  ploadbar=  1.00997286583231E+05
 cg2d: Sum(rhs),rhsMax =  -6.36748178233777E+01  2.05826711032652E+00
(PID.TID 0000.0001)  ploadbar=  1.00996983162330E+05
 cg2d: Sum(rhs),rhsMax =  -6.38308373887871E+01  2.05321057079954E+00
(PID.TID 0000.0001)  ploadbar=  1.00996679741428E+05
 cg2d: Sum(rhs),rhsMax =  -6.40357684069692E+01  2.04655825484556E+00
(PID.TID 0000.0001)  ploadbar=  1.00996376320527E+05
 cg2d: Sum(rhs),rhsMax =  -6.42859680462609E+01  2.03845212152903E+00
(PID.TID 0000.0001)  ploadbar=  1.00996072899626E+05
 cg2d: Sum(rhs),rhsMax =  -6.45796538228308E+01  2.02898279713554E+00
(PID.TID 0000.0001)  ploadbar=  1.00995769478724E+05
 cg2d: Sum(rhs),rhsMax =  -6.49140058611431E+01  2.01827788325420E+00
(PID.TID 0000.0001)  ploadbar=  1.00995466057823E+05
 cg2d: Sum(rhs),rhsMax =  -6.52954356279953E+01  2.00630283442191E+00
(PID.TID 0000.0001)  ploadbar=  1.00995247959631E+05
 cg2d: Sum(rhs),rhsMax =  -6.57200229282511E+01  1.99321834561604E+00
(PID.TID 0000.0001)  ploadbar=  1.00995029861438E+05
 cg2d: Sum(rhs),rhsMax =  -6.61856286339341E+01  1.97913216174963E+00
(PID.TID 0000.0001)  ploadbar=  1.00994811763245E+05
 cg2d: Sum(rhs),rhsMax =  -6.66878621862227E+01  1.96421579899506E+00
(PID.TID 0000.0001)  ploadbar=  1.00994593665053E+05
 cg2d: Sum(rhs),rhsMax =  -6.72228611603420E+01  1.94861843632253E+00
(PID.TID 0000.0001)  ploadbar=  1.00994375566860E+05
 cg2d: Sum(rhs),rhsMax =  -6.77873365220333E+01  1.93246454861373E+00
(PID.TID 0000.0001)  ploadbar=  1.00994157468667E+05
 cg2d: Sum(rhs),rhsMax =  -6.83869850235077E+01  1.91559979646439E+00
(PID.TID 0000.0001)  ploadbar=  1.00993954577115E+05
 cg2d: Sum(rhs),rhsMax =  -6.90049505158548E+01  1.89852014391888E+00
(PID.TID 0000.0001)  ploadbar=  1.00993751685563E+05
 cg2d: Sum(rhs),rhsMax =  -6.96352667594192E+01  1.88140041524978E+00
(PID.TID 0000.0001)  ploadbar=  1.00993548794011E+05
 cg2d: Sum(rhs),rhsMax =  -7.02753693282302E+01  1.86431360436663E+00
(PID.TID 0000.0001)  ploadbar=  1.00993345902459E+05
 cg2d: Sum(rhs),rhsMax =  -7.09210159209748E+01  1.84737341699788E+00
(PID.TID 0000.0001)  ploadbar=  1.00993143010906E+05
 cg2d: Sum(rhs),rhsMax =  -7.15674656099655E+01  1.83069847301532E+00
(PID.TID 0000.0001)  ploadbar=  1.00992940119354E+05
 cg2d: Sum(rhs),rhsMax =  -7.22136793791066E+01  1.81431911924926E+00
(PID.TID 0000.0001)  ploadbar=  1.00992334851651E+05
 cg2d: Sum(rhs),rhsMax =  -7.28518509833181E+01  1.79841899387948E+00
(PID.TID 0000.0001)  ploadbar=  1.00991729583948E+05
 cg2d: Sum(rhs),rhsMax =  -7.34801906832453E+01  1.78302620429128E+00
(PID.TID 0000.0001)  ploadbar=  1.00991124316245E+05
 cg2d: Sum(rhs),rhsMax =  -7.40983981287962E+01  1.76812868972907E+00
(PID.TID 0000.0001)  ploadbar=  1.00990519048542E+05
 cg2d: Sum(rhs),rhsMax =  -7.47026639428601E+01  1.75379668144808E+00
(PID.TID 0000.0001)  ploadbar=  1.00989913780839E+05
 cg2d: Sum(rhs),rhsMax =  -7.52893427341357E+01  1.74008504510882E+00
(PID.TID 0000.0001)  ploadbar=  1.00989308513136E+05
 cg2d: Sum(rhs),rhsMax =  -7.58534863168695E+01  1.72709715152679E+00
(PID.TID 0000.0001)  ploadbar=  1.00989272018610E+05
 cg2d: Sum(rhs),rhsMax =  -7.63954482167332E+01  1.71478281113461E+00
(PID.TID 0000.0001)  ploadbar=  1.00989235524085E+05
 cg2d: Sum(rhs),rhsMax =  -7.69083436738044E+01  1.70326467829480E+00
(PID.TID 0000.0001)  ploadbar=  1.00989199029560E+05
 cg2d: Sum(rhs),rhsMax =  -7.73873853874817E+01  1.69261617534893E+00
(PID.TID 0000.0001)  ploadbar=  1.00989162535035E+05
 cg2d: Sum(rhs),rhsMax =  -7.78278718236665E+01  1.68290879968090E+00
(PID.TID 0000.0001)  ploadbar=  1.00989126040509E+05
 cg2d: Sum(rhs),rhsMax =  -7.82206072431117E+01  1.67430832876103E+00
(PID.TID 0000.0001)  ploadbar=  1.00989089545984E+05
 cg2d: Sum(rhs),rhsMax =  -7.85619962310274E+01  1.66694432257639E+00
(PID.TID 0000.0001)  ploadbar=  1.00988224813453E+05
 cg2d: Sum(rhs),rhsMax =  -7.88537833960827E+01  1.66074217202466E+00
(PID.TID 0000.0001)  ploadbar=  1.00987360080921E+05
 cg2d: Sum(rhs),rhsMax =  -7.90825839655504E+01  1.65595591556926E+00
(PID.TID 0000.0001)  ploadbar=  1.00986495348390E+05
 cg2d: Sum(rhs),rhsMax =  -7.92358521788436E+01  1.65281801749442E+00
(PID.TID 0000.0001)  ploadbar=  1.00985630615859E+05
 cg2d: Sum(rhs),rhsMax =  -7.93377241674885E+01  1.65080309219151E+00
(PID.TID 0000.0001)  ploadbar=  1.00984765883328E+05
 cg2d: Sum(rhs),rhsMax =  -7.94239505403824E+01  1.64915435369377E+00
(PID.TID 0000.0001)  ploadbar=  1.00983901150796E+05
 cg2d: Sum(rhs),rhsMax =  -7.95410883552118E+01  1.64686036570059E+00
(PID.TID 0000.0001)  ploadbar=  1.00983872117493E+05
 cg2d: Sum(rhs),rhsMax =  -7.96799754672653E+01  1.64410502761131E+00
(PID.TID 0000.0001)  ploadbar=  1.00983843084190E+05
 cg2d: Sum(rhs),rhsMax =  -7.98290245218805E+01  1.64112693012461E+00
(PID.TID 0000.0001)  ploadbar=  1.00983814050886E+05
 cg2d: Sum(rhs),rhsMax =  -7.99749280955538E+01  1.63819414936730E+00
(PID.TID 0000.0001)  ploadbar=  1.00983785017583E+05
 cg2d: Sum(rhs),rhsMax =  -8.01070317676237E+01  1.63552055672169E+00
(PID.TID 0000.0001)  ploadbar=  1.00983755984280E+05
 cg2d: Sum(rhs),rhsMax =  -8.02276603106860E+01  1.63305467884877E+00
(PID.TID 0000.0001)  ploadbar=  1.00983726950976E+05
 cg2d: Sum(rhs),rhsMax =  -8.03293383600325E+01  1.63096760198187E+00
(PID.TID 0000.0001)  ploadbar=  1.00984890889295E+05
 cg2d: Sum(rhs),rhsMax =  -8.04338983994508E+01  1.62881189061443E+00
(PID.TID 0000.0001)  ploadbar=  1.00986054827614E+05
 cg2d: Sum(rhs),rhsMax =  -8.05505889662326E+01  1.62640015573933E+00
(PID.TID 0000.0001)  ploadbar=  1.00987218765934E+05
 cg2d: Sum(rhs),rhsMax =  -8.06858059472727E+01  1.62360780541801E+00
(PID.TID 0000.0001)  ploadbar=  1.00988382704253E+05
 cg2d: Sum(rhs),rhsMax =  -8.08389334778580E+01  1.62045006129741E+00
(PID.TID 0000.0001)  ploadbar=  1.00989546642572E+05
 cg2d: Sum(rhs),rhsMax =  -8.10097749986321E+01  1.61692736413424E+00
(PID.TID 0000.0001)  ploadbar=  1.00990710580891E+05
 cg2d: Sum(rhs),rhsMax =  -8.11833141637276E+01  1.61333272693560E+00
(PID.TID 0000.0001)  ploadbar=  1.00991289663177E+05
 cg2d: Sum(rhs),rhsMax =  -8.13729700283828E+01  1.60939091869523E+00
(PID.TID 0000.0001)  ploadbar=  1.00991868745463E+05
 cg2d: Sum(rhs),rhsMax =  -8.15778371421185E+01  1.60512085151608E+00
(PID.TID 0000.0001)  ploadbar=  1.00992447827748E+05
 cg2d: Sum(rhs),rhsMax =  -8.17967436042594E+01  1.60054838497152E+00
(PID.TID 0000.0001)  ploadbar=  1.00993026910034E+05
 cg2d: Sum(rhs),rhsMax =  -8.20298629298068E+01  1.59567484443133E+00
(PID.TID 0000.0001)  ploadbar=  1.00993605992320E+05
 cg2d: Sum(rhs),rhsMax =  -8.22776626069219E+01  1.59049513323727E+00
(PID.TID 0000.0001)  ploadbar=  1.00994185074606E+05
 cg2d: Sum(rhs),rhsMax =  -8.25207761824934E+01  1.58549295964126E+00
(PID.TID 0000.0001)  ploadbar=  1.00993922201213E+05
 cg2d: Sum(rhs),rhsMax =  -8.20147350821799E+01  1.59500302866543E+00
(PID.TID 0000.0001)  ploadbar=  1.00993659327820E+05
 cg2d: Sum(rhs),rhsMax =  -8.14020503368874E+01  1.60677467546258E+00
(PID.TID 0000.0001)  ploadbar=  1.00993396454427E+05
 cg2d: Sum(rhs),rhsMax =  -8.08539459260320E+01  1.61746930675058E+00
(PID.TID 0000.0001)  ploadbar=  1.00993133581034E+05
 cg2d: Sum(rhs),rhsMax =  -8.03410933226857E+01  1.62763073700203E+00
(PID.TID 0000.0001)  ploadbar=  1.00992870707642E+05
 cg2d: Sum(rhs),rhsMax =  -7.98786523357962E+01  1.63692129134161E+00
(PID.TID 0000.0001)  ploadbar=  1.00992607834249E+05
 cg2d: Sum(rhs),rhsMax =  -7.94506314606628E+01  1.64562554288530E+00
(PID.TID 0000.0001)  ploadbar=  1.00992211597366E+05
 cg2d: Sum(rhs),rhsMax =  -8.01395750667836E+01  1.63137359552253E+00
(PID.TID 0000.0001)  ploadbar=  1.00991815360483E+05
 cg2d: Sum(rhs),rhsMax =  -8.08173162021462E+01  1.61759124888808E+00
(PID.TID 0000.0001)  ploadbar=  1.00991419123601E+05
 cg2d: Sum(rhs),rhsMax =  -8.14453723830183E+01  1.60501137820630E+00
(PID.TID 0000.0001)  ploadbar=  1.00991022886718E+05
 cg2d: Sum(rhs),rhsMax =  -8.20208175450353E+01  1.59363862420183E+00
(PID.TID 0000.0001)  ploadbar=  1.00990626649835E+05
 cg2d: Sum(rhs),rhsMax =  -8.25443962498773E+01  1.58340820740533E+00
(PID.TID 0000.0001)  ploadbar=  1.00990230412953E+05
 cg2d: Sum(rhs),rhsMax =  -8.28761089693507E+01  1.57694937457812E+00
(PID.TID 0000.0001)  ploadbar=  1.00990177984827E+05
 cg2d: Sum(rhs),rhsMax =  -8.24966217229436E+01  1.58407884873228E+00
(PID.TID 0000.0001)  ploadbar=  1.00990125556702E+05
 cg2d: Sum(rhs),rhsMax =  -8.21340234107314E+01  1.59094394676223E+00
(PID.TID 0000.0001)  ploadbar=  1.00990073128576E+05
 cg2d: Sum(rhs),rhsMax =  -8.17822960189005E+01  1.59765580532631E+00
(PID.TID 0000.0001)  ploadbar=  1.00990020700451E+05
 cg2d: Sum(rhs),rhsMax =  -8.13495992463174E+01  1.60602105814347E+00
(PID.TID 0000.0001)  ploadbar=  1.00989968272325E+05
 cg2d: Sum(rhs),rhsMax =  -8.08559814408933E+01  1.61567841171637E+00
(PID.TID 0000.0001)  ploadbar=  1.00989915844199E+05
 cg2d: Sum(rhs),rhsMax =  -8.02647722000702E+01  1.62740937297809E+00
(PID.TID 0000.0001)  ploadbar=  1.00989871770013E+05
 cg2d: Sum(rhs),rhsMax =  -7.96036975338165E+01  1.64071776079045E+00
(PID.TID 0000.0001)  ploadbar=  1.00989827695827E+05
 cg2d: Sum(rhs),rhsMax =  -7.89225455843533E+01  1.65462823932091E+00
(PID.TID 0000.0001)  ploadbar=  1.00989783621641E+05
 cg2d: Sum(rhs),rhsMax =  -7.82452684916497E+01  1.66865331006997E+00
(PID.TID 0000.0001)  ploadbar=  1.00989739547455E+05
 cg2d: Sum(rhs),rhsMax =  -7.75806787154900E+01  1.68260307189743E+00
(PID.TID 0000.0001)  ploadbar=  1.00989695473269E+05
 cg2d: Sum(rhs),rhsMax =  -7.69288444431232E+01  1.69646542723082E+00
(PID.TID 0000.0001)  ploadbar=  1.00989651399083E+05
 cg2d: Sum(rhs),rhsMax =  -7.62547763428057E+01  1.71113141095266E+00
(PID.TID 0000.0001)  ploadbar=  1.00990343950964E+05
 cg2d: Sum(rhs),rhsMax =  -7.55587835948283E+01  1.72661913200010E+00
(PID.TID 0000.0001)  ploadbar=  1.00991036502846E+05
 cg2d: Sum(rhs),rhsMax =  -7.48989696812429E+01  1.74160338821133E+00
(PID.TID 0000.0001)  ploadbar=  1.00991729054727E+05
 cg2d: Sum(rhs),rhsMax =  -7.43206417386677E+01  1.75497765699091E+00
(PID.TID 0000.0001)  ploadbar=  1.00992421606608E+05
 cg2d: Sum(rhs),rhsMax =  -7.37899350981141E+01  1.76746741273657E+00
(PID.TID 0000.0001)  ploadbar=  1.00993114158490E+05
 cg2d: Sum(rhs),rhsMax =  -7.33047949760684E+01  1.77907716571055E+00
(PID.TID 0000.0001)  ploadbar=  1.00993806710371E+05
 cg2d: Sum(rhs),rhsMax =  -7.28380329292430E+01  1.79039144993421E+00
(PID.TID 0000.0001)  ploadbar=  1.00993974132819E+05
 cg2d: Sum(rhs),rhsMax =  -7.23943586758402E+01  1.80126850297869E+00
(PID.TID 0000.0001)  ploadbar=  1.00994141555266E+05
 cg2d: Sum(rhs),rhsMax =  -7.19695879877913E+01  1.81178655348292E+00
(PID.TID 0000.0001)  ploadbar=  1.00994308977713E+05
 cg2d: Sum(rhs),rhsMax =  -7.15731887346477E+01  1.82168497328618E+00
(PID.TID 0000.0001)  ploadbar=  1.00994476400160E+05
 cg2d: Sum(rhs),rhsMax =  -7.12129513312331E+01  1.83073916863130E+00
(PID.TID 0000.0001)  ploadbar=  1.00994643822607E+05
 cg2d: Sum(rhs),rhsMax =  -7.08905109355664E+01  1.83887652628884E+00
(PID.TID 0000.0001)  ploadbar=  1.00994811245054E+05
 cg2d: Sum(rhs),rhsMax =  -7.06598694430640E+01  1.84470523053769E+00
(PID.TID 0000.0001)  ploadbar=  1.00994396571588E+05
 cg2d: Sum(rhs),rhsMax =  -7.04570896674787E+01  1.84985118935002E+00
(PID.TID 0000.0001)  ploadbar=  1.00993981898121E+05
 cg2d: Sum(rhs),rhsMax =  -7.02585201349925E+01  1.85492952325846E+00
(PID.TID 0000.0001)  ploadbar=  1.00993567224655E+05
 cg2d: Sum(rhs),rhsMax =  -7.00602709320091E+01  1.86004446833239E+00
(PID.TID 0000.0001)  ploadbar=  1.00993152551188E+05
 cg2d: Sum(rhs),rhsMax =  -6.98696805078323E+01  1.86499805236316E+00
(PID.TID 0000.0001)  ploadbar=  1.00992737877722E+05
 cg2d: Sum(rhs),rhsMax =  -6.96892483265159E+01  1.86970793948545E+00
(PID.TID 0000.0001)  ploadbar=  1.00992323204255E+05
 cg2d: Sum(rhs),rhsMax =  -6.95550187535483E+01  1.87316491989412E+00
(PID.TID 0000.0001)  ploadbar=  1.00992226021891E+05
 cg2d: Sum(rhs),rhsMax =  -6.94173303707737E+01  1.87668509567489E+00
(PID.TID 0000.0001)  ploadbar=  1.00992128839527E+05
 cg2d: Sum(rhs),rhsMax =  -6.92721224119707E+01  1.88037231706395E+00
(PID.TID 0000.0001)  ploadbar=  1.00992031657162E+05
 cg2d: Sum(rhs),rhsMax =  -6.91187348841859E+01  1.88424428239496E+00
(PID.TID 0000.0001)  ploadbar=  1.00991934474798E+05
 cg2d: Sum(rhs),rhsMax =  -6.89536483940696E+01  1.88840090388952E+00
(PID.TID 0000.0001)  ploadbar=  1.00991837292434E+05
 cg2d: Sum(rhs),rhsMax =  -6.87708184756023E+01  1.89301257712807E+00
(PID.TID 0000.0001)  ploadbar=  1.00991740110070E+05
 cg2d: Sum(rhs),rhsMax =  -6.84467542119211E+01  1.90162265785128E+00
(PID.TID 0000.0001)  ploadbar=  1.00992007063185E+05
 cg2d: Sum(rhs),rhsMax =  -6.80693510190968E+01  1.91186172459670E+00
(PID.TID 0000.0001)  ploadbar=  1.00992274016301E+05
 cg2d: Sum(rhs),rhsMax =  -6.76519234575472E+01  1.92339024388326E+00
(PID.TID 0000.0001)  ploadbar=  1.00992540969416E+05
 cg2d: Sum(rhs),rhsMax =  -6.71890075284250E+01  1.93640900434201E+00
(PID.TID 0000.0001)  ploadbar=  1.00992807922532E+05
 cg2d: Sum(rhs),rhsMax =  -6.66912216296747E+01  1.95066059609131E+00
(PID.TID 0000.0001)  ploadbar=  1.00993074875647E+05
 cg2d: Sum(rhs),rhsMax =  -6.61659651152407E+01  1.96596776203966E+00
(PID.TID 0000.0001)  ploadbar=  1.00993341828763E+05
 cg2d: Sum(rhs),rhsMax =  -6.56519758206432E+01  1.98122402464911E+00
(PID.TID 0000.0001)  ploadbar=  1.00994162665768E+05
 cg2d: Sum(rhs),rhsMax =  -6.51560943647594E+01  1.99620129092551E+00
(PID.TID 0000.0001)  ploadbar=  1.00994983502774E+05
 cg2d: Sum(rhs),rhsMax =  -6.46729050160559E+01  2.01104417017891E+00
(PID.TID 0000.0001)  ploadbar=  1.00995804339779E+05
 cg2d: Sum(rhs),rhsMax =  -6.41941390220388E+01  2.02599507517201E+00
(PID.TID 0000.0001)  ploadbar=  1.00996625176785E+05
 cg2d: Sum(rhs),rhsMax =  -6.37175074092750E+01  2.04112407588530E+00
(PID.TID 0000.0001)  ploadbar=  1.00997446013790E+05
 cg2d: Sum(rhs),rhsMax =  -6.32442853736920E+01  2.05639072611595E+00
(PID.TID 0000.0001)  ploadbar=  1.00998266850796E+05
 cg2d: Sum(rhs),rhsMax =  -6.28492280851808E+01  2.06931855881285E+00
(PID.TID 0000.0001)  ploadbar=  1.00998052347642E+05
 cg2d: Sum(rhs),rhsMax =  -6.24772266025008E+01  2.08164323672984E+00
(PID.TID 0000.0001)  ploadbar=  1.00997837844489E+05
 cg2d: Sum(rhs),rhsMax =  -6.21190506336950E+01  2.09365143552746E+00
(PID.TID 0000.0001)  ploadbar=  1.00997623341335E+05
 cg2d: Sum(rhs),rhsMax =  -6.17828491438641E+01  2.10505375290813E+00
(PID.TID 0000.0001)  ploadbar=  1.00997408838181E+05
 cg2d: Sum(rhs),rhsMax =  -6.14622542311694E+01  2.11604681413355E+00
(PID.TID 0000.0001)  ploadbar=  1.00997194335028E+05
 cg2d: Sum(rhs),rhsMax =  -6.11492105830067E+01  2.12688377731942E+00
(PID.TID 0000.0001)  ploadbar=  1.00996979831874E+05
 cg2d: Sum(rhs),rhsMax =  -6.08633630903298E+01  2.13680635482351E+00
(PID.TID 0000.0001)  ploadbar=  1.00996810787744E+05
 cg2d: Sum(rhs),rhsMax =  -6.05930849385338E+01  2.14618682930366E+00
(PID.TID 0000.0001)  ploadbar=  1.00996641743615E+05
 cg2d: Sum(rhs),rhsMax =  -6.03305757496007E+01  2.15528194984170E+00
(PID.TID 0000.0001)  ploadbar=  1.00996472699486E+05
 cg2d: Sum(rhs),rhsMax =  -6.00776641079237E+01  2.16401898979751E+00
(PID.TID 0000.0001)  ploadbar=  1.00996303655356E+05
 cg2d: Sum(rhs),rhsMax =  -5.98502969697942E+01  2.17181080265906E+00
(PID.TID 0000.0001)  ploadbar=  1.00996134611227E+05
 cg2d: Sum(rhs),rhsMax =  -5.96570701911222E+01  2.17832440171880E+00
(PID.TID 0000.0001)  ploadbar=  1.00995965567097E+05
 cg2d: Sum(rhs),rhsMax =  -5.94897242684339E+01  2.18401965496735E+00
(PID.TID 0000.0001)  ploadbar=  1.00995438180366E+05
 cg2d: Sum(rhs),rhsMax =  -5.93564215311835E+01  2.18857210504302E+00
(PID.TID 0000.0001)  ploadbar=  1.00994910793635E+05
 cg2d: Sum(rhs),rhsMax =  -5.92528127031509E+01  2.19211399940716E+00
(PID.TID 0000.0001)  ploadbar=  1.00994383406904E+05
 cg2d: Sum(rhs),rhsMax =  -5.91721360793231E+01  2.19488028041821E+00
(PID.TID 0000.0001)  ploadbar=  1.00993856020173E+05
 cg2d: Sum(rhs),rhsMax =  -5.91121630465210E+01  2.19693610760819E+00
(PID.TID 0000.0001)  ploadbar=  1.00993328633442E+05
 cg2d: Sum(rhs),rhsMax =  -5.90616578554396E+01  2.19868750512944E+00
(PID.TID 0000.0001)  ploadbar=  1.00992801246711E+05
 cg2d: Sum(rhs),rhsMax =  -5.90297115578916E+01  2.19972627274811E+00
(PID.TID 0000.0001)  ploadbar=  1.00992693510521E+05
 cg2d: Sum(rhs),rhsMax =  -5.90535000534864E+01  2.19865618043390E+00
(PID.TID 0000.0001)  ploadbar=  1.00992585774331E+05
 cg2d: Sum(rhs),rhsMax =  -5.91645496914523E+01  2.19430568930205E+00
(PID.TID 0000.0001)  ploadbar=  1.00992478038141E+05
 cg2d: Sum(rhs),rhsMax =  -5.93670460633837E+01  2.18655121546995E+00
(PID.TID 0000.0001)  ploadbar=  1.00992370301951E+05
 cg2d: Sum(rhs),rhsMax =  -5.96733718063590E+01  2.17500735799258E+00
(PID.TID 0000.0001)  ploadbar=  1.00992262565761E+05
 cg2d: Sum(rhs),rhsMax =  -6.00147769776464E+01  2.16226167604217E+00
(PID.TID 0000.0001)  ploadbar=  1.00992154829571E+05
 cg2d: Sum(rhs),rhsMax =  -6.03076093132237E+01  2.15140528803406E+00
(PID.TID 0000.0001)  ploadbar=  1.00992800108265E+05
 cg2d: Sum(rhs),rhsMax =  -6.05688242113630E+01  2.14177359072624E+00
(PID.TID 0000.0001)  ploadbar=  1.00993445386958E+05
 cg2d: Sum(rhs),rhsMax =  -6.08295027921281E+01  2.13224599555395E+00
(PID.TID 0000.0001)  ploadbar=  1.00994090665652E+05
 cg2d: Sum(rhs),rhsMax =  -6.11034857285044E+01  2.12234216257636E+00
(PID.TID 0000.0001)  ploadbar=  1.00994735944345E+05
 cg2d: Sum(rhs),rhsMax =  -6.13883793443889E+01  2.11215669593848E+00
(PID.TID 0000.0001)  ploadbar=  1.00995381223038E+05
 cg2d: Sum(rhs),rhsMax =  -6.16793897510850E+01  2.10185064205545E+00
(PID.TID 0000.0001)  ploadbar=  1.00996026501732E+05
 cg2d: Sum(rhs),rhsMax =  -6.19217314661792E+01  2.09325593606496E+00
(PID.TID 0000.0001)  ploadbar=  1.00996948799872E+05
 cg2d: Sum(rhs),rhsMax =  -6.21361393344148E+01  2.08562301836148E+00
(PID.TID 0000.0001)  ploadbar=  1.00997871098013E+05
 cg2d: Sum(rhs),rhsMax =  -6.23145424276314E+01  2.07919074163070E+00
(PID.TID 0000.0001)  ploadbar=  1.00998793396154E+05
 cg2d: Sum(rhs),rhsMax =  -6.24464220180133E+01  2.07428565354967E+00
(PID.TID 0000.0001)  ploadbar=  1.00999715694295E+05
 cg2d: Sum(rhs),rhsMax =  -6.25265112934251E+01  2.07105970556047E+00
(PID.TID 0000.0001)  ploadbar=  1.01000637992436E+05
 cg2d: Sum(rhs),rhsMax =  -6.25559790884772E+01  2.06945724072576E+00
(PID.TID 0000.0001)  ploadbar=  1.01001560290577E+05
 cg2d: Sum(rhs),rhsMax =  -6.25286900140950E+01  2.06981458104301E+00
(PID.TID 0000.0001)  ploadbar=  1.01001300761395E+05
 cg2d: Sum(rhs),rhsMax =  -6.24953197744829E+01  2.07044624924897E+00
(PID.TID 0000.0001)  ploadbar=  1.01001041232213E+05
 cg2d: Sum(rhs),rhsMax =  -6.24644936910156E+01  2.07105581829960E+00
(PID.TID 0000.0001)  ploadbar=  1.01000781703031E+05
 cg2d: Sum(rhs),rhsMax =  -6.24415012160223E+01  2.07146272525911E+00
(PID.TID 0000.0001)  ploadbar=  1.01000522173850E+05
 cg2d: Sum(rhs),rhsMax =  -6.24111393912695E+01  2.07216617311455E+00
(PID.TID 0000.0001)  ploadbar=  1.01000262644668E+05
 cg2d: Sum(rhs),rhsMax =  -6.23918627204281E+01  2.07254698908516E+00
(PID.TID 0000.0001)  ploadbar=  1.01000003115486E+05
 cg2d: Sum(rhs),rhsMax =  -6.24578600965192E+01  2.07009199480527E+00
(PID.TID 0000.0001)  ploadbar=  1.00999864777989E+05
 cg2d: Sum(rhs),rhsMax =  -6.24954445884706E+01  2.06856462767470E+00
(PID.TID 0000.0001)  ploadbar=  1.00999726440492E+05
 cg2d: Sum(rhs),rhsMax =  -6.24936880890655E+01  2.06831766929209E+00
(PID.TID 0000.0001)  ploadbar=  1.00999588102995E+05
 cg2d: Sum(rhs),rhsMax =  -6.24460391264092E+01  2.06956562337124E+00
(PID.TID 0000.0001)  ploadbar=  1.00999449765498E+05
 cg2d: Sum(rhs),rhsMax =  -6.23584846547986E+01  2.07211054770009E+00
(PID.TID 0000.0001)  ploadbar=  1.00999311428001E+05
 cg2d: Sum(rhs),rhsMax =  -6.22434584031699E+01  2.07554828890902E+00
(PID.TID 0000.0001)  ploadbar=  1.00999173090504E+05
 cg2d: Sum(rhs),rhsMax =  -6.21044114302298E+01  2.07982536330969E+00
(PID.TID 0000.0001)  ploadbar=  1.00998553357735E+05
 cg2d: Sum(rhs),rhsMax =  -6.19675324729378E+01  2.08406460909791E+00
(PID.TID 0000.0001)  ploadbar=  1.00997933624966E+05
 cg2d: Sum(rhs),rhsMax =  -6.18406381351925E+01  2.08800218825972E+00
(PID.TID 0000.0001)  ploadbar=  1.00997313892197E+05
 cg2d: Sum(rhs),rhsMax =  -6.17410937251825E+01  2.09104831048328E+00
(PID.TID 0000.0001)  ploadbar=  1.00996694159428E+05
 cg2d: Sum(rhs),rhsMax =  -6.16764714517328E+01  2.09293713714173E+00
(PID.TID 0000.0001)  ploadbar=  1.00996074426660E+05
 cg2d: Sum(rhs),rhsMax =  -6.16429691986440E+01  2.09377864489682E+00
(PID.TID 0000.0001)  ploadbar=  1.00995454693891E+05
 cg2d: Sum(rhs),rhsMax =  -6.16055773562090E+01  2.09469029507713E+00
(PID.TID 0000.0001)  ploadbar=  1.00994998502890E+05
 cg2d: Sum(rhs),rhsMax =  -6.15488235693981E+01  2.09619019919187E+00
(PID.TID 0000.0001)  ploadbar=  1.00994542311888E+05
 cg2d: Sum(rhs),rhsMax =  -6.14842278826479E+01  2.09787823133776E+00
(PID.TID 0000.0001)  ploadbar=  1.00994086120887E+05
 cg2d: Sum(rhs),rhsMax =  -6.14040036055125E+01  2.10002040213200E+00
(PID.TID 0000.0001)  ploadbar=  1.00993629929886E+05
 cg2d: Sum(rhs),rhsMax =  -6.13034481555700E+01  2.10278061418846E+00
(PID.TID 0000.0001)  ploadbar=  1.00993173738884E+05
 cg2d: Sum(rhs),rhsMax =  -6.11818827927713E+01  2.10618628846215E+00
(PID.TID 0000.0001)  ploadbar=  1.00992717547883E+05
 cg2d: Sum(rhs),rhsMax =  -6.10358557371140E+01  2.11050284213196E+00
(PID.TID 0000.0001)  ploadbar=  1.00992520407602E+05
 cg2d: Sum(rhs),rhsMax =  -6.08697933845850E+01  2.11557956295971E+00
(PID.TID 0000.0001)  ploadbar=  1.00992323267320E+05
 cg2d: Sum(rhs),rhsMax =  -6.06887215383686E+01  2.12123974387612E+00
(PID.TID 0000.0001)  ploadbar=  1.00992126127039E+05
 cg2d: Sum(rhs),rhsMax =  -6.05015165121968E+01  2.12717471014577E+00
(PID.TID 0000.0001)  ploadbar=  1.00991928986757E+05
 cg2d: Sum(rhs),rhsMax =  -6.03153165367050E+01  2.13313337740479E+00
(PID.TID 0000.0001)  ploadbar=  1.00991731846476E+05
 cg2d: Sum(rhs),rhsMax =  -6.01296736220272E+01  2.13913357693505E+00
(PID.TID 0000.0001)  ploadbar=  1.00991534706194E+05
 cg2d: Sum(rhs),rhsMax =  -5.99456455278036E+01  2.14511524887211E+00
(PID.TID 0000.0001)  ploadbar=  1.00990988785072E+05
 cg2d: Sum(rhs),rhsMax =  -5.97801282955042E+01  2.15046030261045E+00
(PID.TID 0000.0001)  ploadbar=  1.00990442863951E+05
 cg2d: Sum(rhs),rhsMax =  -5.96354154522692E+01  2.15507346860024E+00
(PID.TID 0000.0001)  ploadbar=  1.00989896942829E+05
 cg2d: Sum(rhs),rhsMax =  -5.95090513355658E+01  2.15902812756595E+00
(PID.TID 0000.0001)  ploadbar=  1.00989351021708E+05
 cg2d: Sum(rhs),rhsMax =  -5.96530065375784E+01  2.15317816818992E+00
(PID.TID 0000.0001)  ploadbar=  1.00988805100586E+05
 cg2d: Sum(rhs),rhsMax =  -6.00160319648485E+01  2.13949537154743E+00
(PID.TID 0000.0001)  ploadbar=  1.00988259179464E+05
 cg2d: Sum(rhs),rhsMax =  -6.03549887748345E+01  2.12686428413697E+00
(PID.TID 0000.0001)  ploadbar=  1.00989397565481E+05
 cg2d: Sum(rhs),rhsMax =  -6.06710628067199E+01  2.11520418254242E+00
(PID.TID 0000.0001)  ploadbar=  1.00990535951497E+05
 cg2d: Sum(rhs),rhsMax =  -6.09610048550214E+01  2.10460006748709E+00
(PID.TID 0000.0001)  ploadbar=  1.00991674337513E+05
 cg2d: Sum(rhs),rhsMax =  -6.12272765844842E+01  2.09493988897929E+00
(PID.TID 0000.0001)  ploadbar=  1.00992812723530E+05
 cg2d: Sum(rhs),rhsMax =  -6.14798395225328E+01  2.08586081648809E+00
(PID.TID 0000.0001)  ploadbar=  1.00993951109546E+05
 cg2d: Sum(rhs),rhsMax =  -6.17106596383173E+01  2.07760789394924E+00
(PID.TID 0000.0001)  ploadbar=  1.00995089495562E+05
 cg2d: Sum(rhs),rhsMax =  -6.19410124629235E+01  2.06935721056301E+00
(PID.TID 0000.0001)  ploadbar=  1.00995483639019E+05
 cg2d: Sum(rhs),rhsMax =  -6.22169146808985E+01  2.05957390546835E+00
(PID.TID 0000.0001)  ploadbar=  1.00995877782476E+05
 cg2d: Sum(rhs),rhsMax =  -6.24552151961525E+01  2.05101810783410E+00
(PID.TID 0000.0001)  ploadbar=  1.00996271925933E+05
 cg2d: Sum(rhs),rhsMax =  -6.26634264855788E+01  2.04341258509064E+00
(PID.TID 0000.0001)  ploadbar=  1.00996666069390E+05
 cg2d: Sum(rhs),rhsMax =  -6.28408206391358E+01  2.03675742711866E+00
(PID.TID 0000.0001)  ploadbar=  1.00997060212847E+05
 cg2d: Sum(rhs),rhsMax =  -6.29885281222164E+01  2.03099465646314E+00
(PID.TID 0000.0001)  ploadbar=  1.00997454356304E+05
 cg2d: Sum(rhs),rhsMax =  -6.31516681505392E+01  2.02485039655077E+00
(PID.TID 0000.0001)  ploadbar=  1.00997623281568E+05
 cg2d: Sum(rhs),rhsMax =  -6.34338712902965E+01  2.01502780917122E+00
(PID.TID 0000.0001)  ploadbar=  1.00997792206832E+05
 cg2d: Sum(rhs),rhsMax =  -6.37745884941551E+01  2.00351984490412E+00
(PID.TID 0000.0001)  ploadbar=  1.00997961132095E+05
 cg2d: Sum(rhs),rhsMax =  -6.41036791739793E+01  1.99255679740103E+00
(PID.TID 0000.0001)  ploadbar=  1.00998130057359E+05
 cg2d: Sum(rhs),rhsMax =  -6.44350825035275E+01  1.98169148374466E+00
(PID.TID 0000.0001)  ploadbar=  1.00998298982622E+05
 cg2d: Sum(rhs),rhsMax =  -6.48504692785712E+01  1.96844129536038E+00
(PID.TID 0000.0001)  ploadbar=  1.00998467907886E+05
 cg2d: Sum(rhs),rhsMax =  -6.52739594741183E+01  1.95512256642313E+00
(PID.TID 0000.0001)  ploadbar=  1.00998202230008E+05
 cg2d: Sum(rhs),rhsMax =  -6.56987150230564E+01  1.94193543158916E+00
(PID.TID 0000.0001)  ploadbar=  1.00997936552131E+05
 cg2d: Sum(rhs),rhsMax =  -6.61247583143697E+01  1.92887059580403E+00
(PID.TID 0000.0001)  ploadbar=  1.00997670874253E+05
 cg2d: Sum(rhs),rhsMax =  -6.65458575433952E+01  1.91609860105602E+00
(PID.TID 0000.0001)  ploadbar=  1.00997405196376E+05
 cg2d: Sum(rhs),rhsMax =  -6.69637676088983E+01  1.90355203365400E+00
(PID.TID 0000.0001)  ploadbar=  1.00997139518498E+05
 cg2d: Sum(rhs),rhsMax =  -6.73855870154572E+01  1.89102142514691E+00
(PID.TID 0000.0001)  ploadbar=  1.00996873840621E+05
 cg2d: Sum(rhs),rhsMax =  -6.78265256912954E+01  1.87814914511496E+00
(PID.TID 0000.0001)  ploadbar=  1.00997617709915E+05
 cg2d: Sum(rhs),rhsMax =  -6.82391978173825E+01  1.86624365894918E+00
(PID.TID 0000.0001)  ploadbar=  1.00998361579209E+05
 cg2d: Sum(rhs),rhsMax =  -6.86132037615122E+01  1.85555544524250E+00
(PID.TID 0000.0001)  ploadbar=  1.00999105448503E+05
 cg2d: Sum(rhs),rhsMax =  -6.89471687565180E+01  1.84608511732451E+00
(PID.TID 0000.0001)  ploadbar=  1.00999849317798E+05
 cg2d: Sum(rhs),rhsMax =  -6.92399306907061E+01  1.83782915218717E+00
(PID.TID 0000.0001)  ploadbar=  1.01000593187092E+05
 cg2d: Sum(rhs),rhsMax =  -6.94901113897329E+01  1.83078710571611E+00
(PID.TID 0000.0001)  ploadbar=  1.01001337056386E+05
 cg2d: Sum(rhs),rhsMax =  -6.96898083779153E+01  1.82508467110371E+00
(PID.TID 0000.0001)  ploadbar=  1.01002306772762E+05
 cg2d: Sum(rhs),rhsMax =  -6.99858896258312E+01  1.81686780353773E+00
(PID.TID 0000.0001)  ploadbar=  1.01003276489138E+05
 cg2d: Sum(rhs),rhsMax =  -7.03266914392353E+01  1.80752061665712E+00
(PID.TID 0000.0001)  ploadbar=  1.01004246205514E+05
 cg2d: Sum(rhs),rhsMax =  -7.06825368094296E+01  1.79782921097712E+00
(PID.TID 0000.0001)  ploadbar=  1.01005215921889E+05
 cg2d: Sum(rhs),rhsMax =  -7.10451367950037E+01  1.78801094168455E+00
(PID.TID 0000.0001)  ploadbar=  1.01006185638265E+05
 cg2d: Sum(rhs),rhsMax =  -7.14325127724125E+01  1.77761715969145E+00
(PID.TID 0000.0001)  ploadbar=  1.01007155354641E+05
 cg2d: Sum(rhs),rhsMax =  -7.18414367535760E+01  1.76689757476765E+00
(PID.TID 0000.0001)  ploadbar=  1.01006048060565E+05
 cg2d: Sum(rhs),rhsMax =  -7.22596394055101E+01  1.75615862887510E+00
(PID.TID 0000.0001)  ploadbar=  1.01004940766489E+05
 cg2d: Sum(rhs),rhsMax =  -7.26726779038195E+01  1.74574653831778E+00
(PID.TID 0000.0001)  ploadbar=  1.01003833472413E+05
 cg2d: Sum(rhs),rhsMax =  -7.30725194518182E+01  1.73584093941466E+00
(PID.TID 0000.0001)  ploadbar=  1.01002726178337E+05
 cg2d: Sum(rhs),rhsMax =  -7.35669181490598E+01  1.72389604489733E+00
(PID.TID 0000.0001)  ploadbar=  1.01001618884261E+05
 cg2d: Sum(rhs),rhsMax =  -7.40650124884310E+01  1.71209158102930E+00
(PID.TID 0000.0001)  ploadbar=  1.01000511590185E+05
 cg2d: Sum(rhs),rhsMax =  -7.45179067838531E+01  1.70146682354322E+00
(PID.TID 0000.0001)  ploadbar=  1.01000615806465E+05
 cg2d: Sum(rhs),rhsMax =  -7.49652684912724E+01  1.69107721788777E+00
(PID.TID 0000.0001)  ploadbar=  1.01000720022745E+05
 cg2d: Sum(rhs),rhsMax =  -7.54255446946443E+01  1.68050154870877E+00
(PID.TID 0000.0001)  ploadbar=  1.01000824239024E+05
 cg2d: Sum(rhs),rhsMax =  -7.59107704745366E+01  1.66947791172314E+00
(PID.TID 0000.0001)  ploadbar=  1.01000928455304E+05
 cg2d: Sum(rhs),rhsMax =  -7.64279578767739E+01  1.65786283370871E+00
(PID.TID 0000.0001)  ploadbar=  1.01001032671583E+05
 cg2d: Sum(rhs),rhsMax =  -7.69866893887571E+01  1.64547485978315E+00
(PID.TID 0000.0001)  ploadbar=  1.01001136887863E+05
 cg2d: Sum(rhs),rhsMax =  -7.69238591424787E+01  1.64648978584738E+00
(PID.TID 0000.0001)  ploadbar=  1.01001375041207E+05
 cg2d: Sum(rhs),rhsMax =  -7.68832628778304E+01  1.64705335159938E+00
(PID.TID 0000.0001)  ploadbar=  1.01001613194550E+05
 cg2d: Sum(rhs),rhsMax =  -7.69772875570552E+01  1.64475990125722E+00
(PID.TID 0000.0001)  ploadbar=  1.01001851347894E+05
 cg2d: Sum(rhs),rhsMax =  -7.71999350481766E+01  1.63975847049588E+00
(PID.TID 0000.0001)  ploadbar=  1.01002089501238E+05
 cg2d: Sum(rhs),rhsMax =  -7.74751742211000E+01  1.63369248112378E+00
(PID.TID 0000.0001)  ploadbar=  1.01002327654582E+05
 cg2d: Sum(rhs),rhsMax =  -7.77986657497376E+01  1.62667122338236E+00
(PID.TID 0000.0001)  ploadbar=  1.01002565807926E+05
 cg2d: Sum(rhs),rhsMax =  -7.81841319947075E+01  1.61837532363009E+00
(PID.TID 0000.0001)  ploadbar=  1.01003292780368E+05
 cg2d: Sum(rhs),rhsMax =  -7.80016471851145E+01  1.62182853840442E+00
(PID.TID 0000.0001)  ploadbar=  1.01004019752810E+05
 cg2d: Sum(rhs),rhsMax =  -7.78725137709548E+01  1.62412416259832E+00
(PID.TID 0000.0001)  ploadbar=  1.01004746725252E+05
 cg2d: Sum(rhs),rhsMax =  -7.77874181039360E+01  1.62544320332873E+00
(PID.TID 0000.0001)  ploadbar=  1.01005473697694E+05
 cg2d: Sum(rhs),rhsMax =  -7.77574794088577E+01  1.62554493249927E+00
(PID.TID 0000.0001)  ploadbar=  1.01006200670136E+05
 cg2d: Sum(rhs),rhsMax =  -7.77682191540787E+01  1.62472795288420E+00
(PID.TID 0000.0001)  ploadbar=  1.01006927642579E+05
 cg2d: Sum(rhs),rhsMax =  -7.77241620297257E+01  1.62511311832721E+00
(PID.TID 0000.0001)  ploadbar=  1.01007714721786E+05
 cg2d: Sum(rhs),rhsMax =  -7.76643555940200E+01  1.62587771147793E+00
(PID.TID 0000.0001)  ploadbar=  1.01008501800994E+05
 cg2d: Sum(rhs),rhsMax =  -7.76276600855149E+01  1.62620389030537E+00
(PID.TID 0000.0001)  ploadbar=  1.01009288880202E+05
 cg2d: Sum(rhs),rhsMax =  -7.76067538768596E+01  1.62623515587847E+00
(PID.TID 0000.0001)  ploadbar=  1.01010075959410E+05
 cg2d: Sum(rhs),rhsMax =  -7.75902329540027E+01  1.62620618929929E+00
(PID.TID 0000.0001)  ploadbar=  1.01010863038618E+05
 cg2d: Sum(rhs),rhsMax =  -7.76133502112724E+01  1.62537523141739E+00
(PID.TID 0000.0001)  ploadbar=  1.01011650117826E+05
 cg2d: Sum(rhs),rhsMax =  -7.76659353840918E+01  1.62392857377737E+00
(PID.TID 0000.0001)  ploadbar=  1.01013272452170E+05
 cg2d: Sum(rhs),rhsMax =  -7.77460453611994E+01  1.62190225868543E+00
(PID.TID 0000.0001)  ploadbar=  1.01014894786513E+05
 cg2d: Sum(rhs),rhsMax =  -7.78643771679839E+01  1.61907397167941E+00
(PID.TID 0000.0001)  ploadbar=  1.01016517120857E+05
 cg2d: Sum(rhs),rhsMax =  -7.79594578185196E+01  1.61672088577023E+00
(PID.TID 0000.0001)  ploadbar=  1.01018139455201E+05
 cg2d: Sum(rhs),rhsMax =  -7.80222969488731E+01  1.61501995517013E+00
(PID.TID 0000.0001)  ploadbar=  1.01019761789545E+05
 cg2d: Sum(rhs),rhsMax =  -7.80860275642861E+01  1.61327740067751E+00
(PID.TID 0000.0001)  ploadbar=  1.01021384123888E+05
 cg2d: Sum(rhs),rhsMax =  -7.81712151068749E+01  1.61112478222811E+00
(PID.TID 0000.0001)  ploadbar=  1.01022486778456E+05
 cg2d: Sum(rhs),rhsMax =  -7.82028547901994E+01  1.61010470925681E+00
(PID.TID 0000.0001)  ploadbar=  1.01023589433023E+05
 cg2d: Sum(rhs),rhsMax =  -7.81799510042594E+01  1.61023347389874E+00
(PID.TID 0000.0001)  ploadbar=  1.01024692087590E+05
 cg2d: Sum(rhs),rhsMax =  -7.80831016161918E+01  1.61191152660471E+00
(PID.TID 0000.0001)  ploadbar=  1.01025794742158E+05
 cg2d: Sum(rhs),rhsMax =  -7.79274609834580E+01  1.61483044874832E+00
(PID.TID 0000.0001)  ploadbar=  1.01026897396725E+05
 cg2d: Sum(rhs),rhsMax =  -7.77200764602105E+01  1.61885199733015E+00
(PID.TID 0000.0001)  ploadbar=  1.01028000051293E+05
 cg2d: Sum(rhs),rhsMax =  -7.74306751778649E+01  1.62459844849640E+00
(PID.TID 0000.0001)  ploadbar=  1.01028948382510E+05
 cg2d: Sum(rhs),rhsMax =  -7.72268581054472E+01  1.62855836747254E+00
(PID.TID 0000.0001)  ploadbar=  1.01029896713727E+05
 cg2d: Sum(rhs),rhsMax =  -7.71260256627153E+01  1.63033228728560E+00
(PID.TID 0000.0001)  ploadbar=  1.01030845044944E+05
 cg2d: Sum(rhs),rhsMax =  -7.70397789323556E+01  1.63177163930894E+00
(PID.TID 0000.0001)  ploadbar=  1.01031793376161E+05
 cg2d: Sum(rhs),rhsMax =  -7.69603796430516E+01  1.63303576720699E+00
(PID.TID 0000.0001)  ploadbar=  1.01032741707378E+05
 cg2d: Sum(rhs),rhsMax =  -7.68819628430452E+01  1.63424575051850E+00
(PID.TID 0000.0001)  ploadbar=  1.01033690038595E+05
 cg2d: Sum(rhs),rhsMax =  -7.68296183025736E+01  1.63495441210171E+00
(PID.TID 0000.0001)  ploadbar=  1.01034131087033E+05
 cg2d: Sum(rhs),rhsMax =  -7.68174930378579E+01  1.63485379428034E+00
(PID.TID 0000.0001)  ploadbar=  1.01034572135472E+05
 cg2d: Sum(rhs),rhsMax =  -7.68528660196285E+01  1.63378298105791E+00
(PID.TID 0000.0001)  ploadbar=  1.01035013183911E+05
 cg2d: Sum(rhs),rhsMax =  -7.69495151116683E+01  1.63144551730218E+00
(PID.TID 0000.0001)  ploadbar=  1.01035454232350E+05
 cg2d: Sum(rhs),rhsMax =  -7.70943061490524E+01  1.62812776347293E+00
(PID.TID 0000.0001)  ploadbar=  1.01035895280789E+05
 cg2d: Sum(rhs),rhsMax =  -7.72921011295605E+01  1.62373516649650E+00
(PID.TID 0000.0001)  ploadbar=  1.01036336329227E+05
 cg2d: Sum(rhs),rhsMax =  -7.75031696710655E+01  1.61909829087653E+00
(PID.TID 0000.0001)  ploadbar=  1.01035983208489E+05
 cg2d: Sum(rhs),rhsMax =  -7.77389712609310E+01  1.61397720813138E+00
(PID.TID 0000.0001)  ploadbar=  1.01035630087751E+05
 cg2d: Sum(rhs),rhsMax =  -7.79806379168820E+01  1.60876673227436E+00
(PID.TID 0000.0001)  ploadbar=  1.01035276967013E+05
 cg2d: Sum(rhs),rhsMax =  -7.82109363586296E+01  1.60381783472987E+00
(PID.TID 0000.0001)  ploadbar=  1.01034923846274E+05
 cg2d: Sum(rhs),rhsMax =  -7.84199877015424E+01  1.59932268106281E+00
(PID.TID 0000.0001)  ploadbar=  1.01034570725536E+05
 cg2d: Sum(rhs),rhsMax =  -7.85984170965904E+01  1.59546230394687E+00
(PID.TID 0000.0001)  ploadbar=  1.01034217604798E+05
 cg2d: Sum(rhs),rhsMax =  -7.87436282173632E+01  1.59229772748314E+00
(PID.TID 0000.0001)  ploadbar=  1.01034687576372E+05
 cg2d: Sum(rhs),rhsMax =  -7.88370658679176E+01  1.59018704936050E+00
(PID.TID 0000.0001)  ploadbar=  1.01035157547947E+05
 cg2d: Sum(rhs),rhsMax =  -7.88893187235805E+01  1.58890780664759E+00
(PID.TID 0000.0001)  ploadbar=  1.01035627519521E+05
 cg2d: Sum(rhs),rhsMax =  -7.89142215990222E+01  1.58817495616917E+00
(PID.TID 0000.0001)  ploadbar=  1.01036097491096E+05
 cg2d: Sum(rhs),rhsMax =  -7.89388750364106E+01  1.58743719735467E+00
(PID.TID 0000.0001)  ploadbar=  1.01036567462671E+05
 cg2d: Sum(rhs),rhsMax =  -7.89568409836253E+01  1.58681754547056E+00
(PID.TID 0000.0001)  ploadbar=  1.01037037434245E+05
 cg2d: Sum(rhs),rhsMax =  -7.89501921062260E+01  1.58665818062510E+00
(PID.TID 0000.0001)  ploadbar=  1.01037689109947E+05
 cg2d: Sum(rhs),rhsMax =  -7.90556532805253E+01  1.58420822585679E+00
(PID.TID 0000.0001)  ploadbar=  1.01038340785649E+05
 cg2d: Sum(rhs),rhsMax =  -7.92472804260927E+01  1.57999953423947E+00
(PID.TID 0000.0001)  ploadbar=  1.01038992461351E+05
 cg2d: Sum(rhs),rhsMax =  -7.94700957541647E+01  1.57514328744607E+00
(PID.TID 0000.0001)  ploadbar=  1.01039644137052E+05
 cg2d: Sum(rhs),rhsMax =  -7.97061271228971E+01  1.57000128335690E+00
(PID.TID 0000.0001)  ploadbar=  1.01040295812754E+05
 cg2d: Sum(rhs),rhsMax =  -7.99378163352079E+01  1.56491953873385E+00
(PID.TID 0000.0001)  ploadbar=  1.01040947488456E+05
 cg2d: Sum(rhs),rhsMax =  -8.01837352410521E+01  1.55963863790468E+00
(PID.TID 0000.0001)  ploadbar=  1.01041377094217E+05
 cg2d: Sum(rhs),rhsMax =  -8.04515288735756E+01  1.55400771122472E+00
(PID.TID 0000.0001)  ploadbar=  1.01041806699978E+05
 cg2d: Sum(rhs),rhsMax =  -8.07128444875309E+01  1.54856983126307E+00
(PID.TID 0000.0001)  ploadbar=  1.01042236305739E+05
 cg2d: Sum(rhs),rhsMax =  -8.09693119720128E+01  1.54328710998287E+00
(PID.TID 0000.0001)  ploadbar=  1.01042665911500E+05
 cg2d: Sum(rhs),rhsMax =  -8.12347865133483E+01  1.53789197693565E+00
(PID.TID 0000.0001)  ploadbar=  1.01043095517261E+05
 cg2d: Sum(rhs),rhsMax =  -8.15162796666427E+01  1.53224951319224E+00
(PID.TID 0000.0001)  ploadbar=  1.01043525123022E+05
 cg2d: Sum(rhs),rhsMax =  -8.18039491664541E+01  1.52654611188334E+00
(PID.TID 0000.0001)  ploadbar=  1.01045269936964E+05
 cg2d: Sum(rhs),rhsMax =  -8.21064642637776E+01  1.52061536975293E+00
(PID.TID 0000.0001)  ploadbar=  1.01047014750907E+05
 cg2d: Sum(rhs),rhsMax =  -8.24387404238994E+01  1.51418619028780E+00
(PID.TID 0000.0001)  ploadbar=  1.01048759564850E+05
 cg2d: Sum(rhs),rhsMax =  -8.28041359162330E+01  1.50720473736592E+00
(PID.TID 0000.0001)  ploadbar=  1.01050504378793E+05
 cg2d: Sum(rhs),rhsMax =  -8.31950245960066E+01  1.49981810065750E+00
(PID.TID 0000.0001)  ploadbar=  1.01052249192735E+05
 cg2d: Sum(rhs),rhsMax =  -8.27848335784715E+01  1.50693352273673E+00
(PID.TID 0000.0001)  ploadbar=  1.01053994006678E+05
 cg2d: Sum(rhs),rhsMax =  -8.23652603993285E+01  1.51431993061093E+00
(PID.TID 0000.0001)  ploadbar=  1.01054859207439E+05
 cg2d: Sum(rhs),rhsMax =  -8.19102710921024E+01  1.52245831303473E+00
(PID.TID 0000.0001)  ploadbar=  1.01055724408200E+05
 cg2d: Sum(rhs),rhsMax =  -8.14211140377160E+01  1.53134390556555E+00
(PID.TID 0000.0001)  ploadbar=  1.01056589608961E+05
 cg2d: Sum(rhs),rhsMax =  -8.09136380292412E+01  1.54069612321941E+00
(PID.TID 0000.0001)  ploadbar=  1.01057454809722E+05
 cg2d: Sum(rhs),rhsMax =  -8.03953381053080E+01  1.55037618456117E+00
(PID.TID 0000.0001)  ploadbar=  1.01058320010483E+05
 cg2d: Sum(rhs),rhsMax =  -7.99379169222775E+01  1.55898524995973E+00
(PID.TID 0000.0001)  ploadbar=  1.01059185211244E+05
 cg2d: Sum(rhs),rhsMax =  -7.95192974912972E+01  1.56689181478082E+00
(PID.TID 0000.0001)  ploadbar=  1.01059671742743E+05
 cg2d: Sum(rhs),rhsMax =  -7.91883732811823E+01  1.57309582684517E+00
(PID.TID 0000.0001)  ploadbar=  1.01060158274241E+05
 cg2d: Sum(rhs),rhsMax =  -7.89599743811220E+01  1.57725252072796E+00
(PID.TID 0000.0001)  ploadbar=  1.01060644805740E+05
 cg2d: Sum(rhs),rhsMax =  -7.88372612218810E+01  1.57925890977153E+00
(PID.TID 0000.0001)  ploadbar=  1.01061131337238E+05
 cg2d: Sum(rhs),rhsMax =  -7.88186105068214E+01  1.57912337122579E+00
(PID.TID 0000.0001)  ploadbar=  1.01061617868737E+05
 cg2d: Sum(rhs),rhsMax =  -7.92892909214371E+01  1.56917699719653E+00
(PID.TID 0000.0001)  ploadbar=  1.01062104400235E+05
 cg2d: Sum(rhs),rhsMax =  -7.96749669071353E+01  1.56107227435686E+00
(PID.TID 0000.0001)  ploadbar=  1.01062475375896E+05
 cg2d: Sum(rhs),rhsMax =  -8.04513294601096E+01  1.54555666498987E+00
(PID.TID 0000.0001)  ploadbar=  1.01062846351557E+05
 cg2d: Sum(rhs),rhsMax =  -8.15019674161761E+01  1.52523254543373E+00
(PID.TID 0000.0001)  ploadbar=  1.01063217327218E+05
 cg2d: Sum(rhs),rhsMax =  -8.28069907175150E+01  1.50083834535555E+00
(PID.TID 0000.0001)  ploadbar=  1.01063588302879E+05
 cg2d: Sum(rhs),rhsMax =  -8.43540858637020E+01  1.47299424131649E+00
(PID.TID 0000.0001)  ploadbar=  1.01063959278540E+05
 cg2d: Sum(rhs),rhsMax =  -8.58702854073073E+01  1.44669896330129E+00
(PID.TID 0000.0001)  ploadbar=  1.01064330254200E+05
 cg2d: Sum(rhs),rhsMax =  -8.54971995174951E+01  1.45272238123611E+00
(PID.TID 0000.0001)  ploadbar=  1.01064080050482E+05
 cg2d: Sum(rhs),rhsMax =  -8.51816701963009E+01  1.45780760269201E+00
(PID.TID 0000.0001)  ploadbar=  1.01063829846764E+05
 cg2d: Sum(rhs),rhsMax =  -8.49085691266280E+01  1.46218995890377E+00
(PID.TID 0000.0001)  ploadbar=  1.01063579643045E+05
 cg2d: Sum(rhs),rhsMax =  -8.46668939433912E+01  1.46604319804094E+00
(PID.TID 0000.0001)  ploadbar=  1.01063329439327E+05
 cg2d: Sum(rhs),rhsMax =  -8.44450771451456E+01  1.46955665808600E+00
(PID.TID 0000.0001)  ploadbar=  1.01063079235609E+05
 cg2d: Sum(rhs),rhsMax =  -8.42370315352565E+01  1.47282955894487E+00
(PID.TID 0000.0001)  ploadbar=  1.01062829031890E+05
 cg2d: Sum(rhs),rhsMax =  -8.40429669064443E+01  1.47591593086105E+00
(PID.TID 0000.0001)  ploadbar=  1.01061685611831E+05
 cg2d: Sum(rhs),rhsMax =  -8.39958975049700E+01  1.47646242201796E+00
(PID.TID 0000.0001)  ploadbar=  1.01060542191772E+05
 cg2d: Sum(rhs),rhsMax =  -8.51901715583847E+01  1.45551799138373E+00
(PID.TID 0000.0001)  ploadbar=  1.01059398771714E+05
 cg2d: Sum(rhs),rhsMax =  -8.65421138156414E+01  1.43256497715164E+00
(PID.TID 0000.0001)  ploadbar=  1.01058255351655E+05
 cg2d: Sum(rhs),rhsMax =  -8.80602263630839E+01  1.40767972538402E+00
(PID.TID 0000.0001)  ploadbar=  1.01057111931596E+05
 cg2d: Sum(rhs),rhsMax =  -8.97106329096007E+01  1.38161645184637E+00
(PID.TID 0000.0001)  ploadbar=  1.01055968511537E+05
 cg2d: Sum(rhs),rhsMax =  -9.13343757885345E+01  1.35686579099531E+00
(PID.TID 0000.0001)  ploadbar=  1.01054918432636E+05
 cg2d: Sum(rhs),rhsMax =  -9.28599062205829E+01  1.33436212288868E+00
(PID.TID 0000.0001)  ploadbar=  1.01053868353736E+05
 cg2d: Sum(rhs),rhsMax =  -9.42033431370222E+01  1.31509173803233E+00
(PID.TID 0000.0001)  ploadbar=  1.01052818274836E+05
 cg2d: Sum(rhs),rhsMax =  -9.54002216699520E+01  1.29831904934104E+00
(PID.TID 0000.0001)  ploadbar=  1.01051768195935E+05
 cg2d: Sum(rhs),rhsMax =  -9.51598733028197E+01  1.30128450147324E+00
(PID.TID 0000.0001)  ploadbar=  1.01050718117035E+05
 cg2d: Sum(rhs),rhsMax =  -9.48791172576405E+01  1.30477470161209E+00
(PID.TID 0000.0001)  ploadbar=  1.01049668038135E+05
 cg2d: Sum(rhs),rhsMax =  -9.46371744423601E+01  1.30777356984285E+00
(PID.TID 0000.0001)  ploadbar=  1.01048037349020E+05
 cg2d: Sum(rhs),rhsMax =  -9.44140463796953E+01  1.31054812347269E+00
(PID.TID 0000.0001)  ploadbar=  1.01046406659906E+05
 cg2d: Sum(rhs),rhsMax =  -9.42000516891146E+01  1.31322721400502E+00
(PID.TID 0000.0001)  ploadbar=  1.01044775970791E+05
 cg2d: Sum(rhs),rhsMax =  -9.40012486029245E+01  1.31572091428766E+00
(PID.TID 0000.0001)  ploadbar=  1.01043145281676E+05
 cg2d: Sum(rhs),rhsMax =  -9.38213474158911E+01  1.31796898635909E+00
(PID.TID 0000.0001)  ploadbar=  1.01041514592562E+05
 cg2d: Sum(rhs),rhsMax =  -9.36642223694366E+01  1.31991000156718E+00
(PID.TID 0000.0001)  ploadbar=  1.01039883903447E+05
 cg2d: Sum(rhs),rhsMax =  -9.35566704038641E+01  1.32114271107168E+00
(PID.TID 0000.0001)  ploadbar=  1.01039323224806E+05
 cg2d: Sum(rhs),rhsMax =  -9.34819435069176E+01  1.32189598684809E+00
(PID.TID 0000.0001)  ploadbar=  1.01038762546164E+05
 cg2d: Sum(rhs),rhsMax =  -9.28915883735666E+01  1.32997117337528E+00
(PID.TID 0000.0001)  ploadbar=  1.01038201867523E+05
 cg2d: Sum(rhs),rhsMax =  -9.20056291371403E+01  1.34242616235278E+00
(PID.TID 0000.0001)  ploadbar=  1.01037641188881E+05
 cg2d: Sum(rhs),rhsMax =  -9.07584932124160E+01  1.36049127756657E+00
(PID.TID 0000.0001)  ploadbar=  1.01037080510240E+05
 cg2d: Sum(rhs),rhsMax =  -8.93506522490053E+01  1.38151342630240E+00
(PID.TID 0000.0001)  ploadbar=  1.01036519831598E+05
 cg2d: Sum(rhs),rhsMax =  -8.77561762079986E+01  1.40622265157585E+00
(PID.TID 0000.0001)  ploadbar=  1.01036672051789E+05
 cg2d: Sum(rhs),rhsMax =  -8.62533699310776E+01  1.43034784936852E+00
(PID.TID 0000.0001)  ploadbar=  1.01036824271979E+05
 cg2d: Sum(rhs),rhsMax =  -8.49489385208032E+01  1.45194948352315E+00
(PID.TID 0000.0001)  ploadbar=  1.01036976492170E+05
 cg2d: Sum(rhs),rhsMax =  -8.38259521001754E+01  1.47104920964374E+00
(PID.TID 0000.0001)  ploadbar=  1.01037128712360E+05
 cg2d: Sum(rhs),rhsMax =  -8.28646491176816E+01  1.48777082182783E+00
(PID.TID 0000.0001)  ploadbar=  1.01037280932551E+05
 cg2d: Sum(rhs),rhsMax =  -8.20794933141134E+01  1.50166194927468E+00
(PID.TID 0000.0001)  ploadbar=  1.01037433152741E+05
 cg2d: Sum(rhs),rhsMax =  -8.17599045353006E+01  1.50715043913664E+00
(PID.TID 0000.0001)  ploadbar=  1.01037371101430E+05
 cg2d: Sum(rhs),rhsMax =  -8.17301294733379E+01  1.50727493811617E+00
(PID.TID 0000.0001)  ploadbar=  1.01037309050119E+05
 cg2d: Sum(rhs),rhsMax =  -8.17638476051130E+01  1.50618338385427E+00
(PID.TID 0000.0001)  ploadbar=  1.01037246998807E+05
 cg2d: Sum(rhs),rhsMax =  -8.18831810019266E+01  1.50346822803424E+00
(PID.TID 0000.0001)  ploadbar=  1.01037184947496E+05
 cg2d: Sum(rhs),rhsMax =  -8.20275074977441E+01  1.50025085481675E+00
(PID.TID 0000.0001)  ploadbar=  1.01037122896185E+05
 cg2d: Sum(rhs),rhsMax =  -8.21825230494006E+01  1.49678995021306E+00
(PID.TID 0000.0001)  ploadbar=  1.01037060844873E+05
 cg2d: Sum(rhs),rhsMax =  -8.24713838376661E+01  1.49097688267194E+00
(PID.TID 0000.0001)  ploadbar=  1.01037935849528E+05
 cg2d: Sum(rhs),rhsMax =  -8.28229595194770E+01  1.48413171021107E+00
(PID.TID 0000.0001)  ploadbar=  1.01038810854182E+05
 cg2d: Sum(rhs),rhsMax =  -8.32654005379261E+01  1.47577854875187E+00
(PID.TID 0000.0001)  ploadbar=  1.01039685858837E+05
 cg2d: Sum(rhs),rhsMax =  -8.37554602057397E+01  1.46671719513807E+00
(PID.TID 0000.0001)  ploadbar=  1.01040560863491E+05
 cg2d: Sum(rhs),rhsMax =  -8.42508082775934E+01  1.45770102517225E+00
(PID.TID 0000.0001)  ploadbar=  1.01041435868146E+05
 cg2d: Sum(rhs),rhsMax =  -8.47281660042319E+01  1.44912746829340E+00
(PID.TID 0000.0001)  ploadbar=  1.01042310872800E+05
 cg2d: Sum(rhs),rhsMax =  -8.52028968624940E+01  1.44070160299640E+00
(PID.TID 0000.0001)  ploadbar=  1.01042582000270E+05
 cg2d: Sum(rhs),rhsMax =  -8.56500947511479E+01  1.43283112345054E+00
(PID.TID 0000.0001)  ploadbar=  1.01042853127741E+05
 cg2d: Sum(rhs),rhsMax =  -8.60932785420629E+01  1.42510662972053E+00
(PID.TID 0000.0001)  ploadbar=  1.01043124255211E+05
 cg2d: Sum(rhs),rhsMax =  -8.72333394596621E+01  1.40613016017774E+00
(PID.TID 0000.0001)  ploadbar=  1.01043395382681E+05
 cg2d: Sum(rhs),rhsMax =  -8.74509251235243E+01  1.40226977756830E+00
(PID.TID 0000.0001)  ploadbar=  1.01043666510152E+05
 cg2d: Sum(rhs),rhsMax =  -8.68710923895751E+01  1.41125051263468E+00
(PID.TID 0000.0001)  ploadbar=  1.01043937637622E+05
 cg2d: Sum(rhs),rhsMax =  -8.64658137767681E+01  1.41750506534161E+00
(PID.TID 0000.0001)  ploadbar=  1.01044577937163E+05
 cg2d: Sum(rhs),rhsMax =  -8.61903158756919E+01  1.42169093058730E+00
(PID.TID 0000.0001)  ploadbar=  1.01045218236704E+05
 cg2d: Sum(rhs),rhsMax =  -8.60136635527086E+01  1.42428051271604E+00
(PID.TID 0000.0001)  ploadbar=  1.01045858536245E+05
 cg2d: Sum(rhs),rhsMax =  -8.58968726637720E+01  1.42590096791052E+00
(PID.TID 0000.0001)  ploadbar=  1.01046498835785E+05
 cg2d: Sum(rhs),rhsMax =  -8.58067883698573E+01  1.42709124603139E+00
(PID.TID 0000.0001)  ploadbar=  1.01047139135326E+05
 cg2d: Sum(rhs),rhsMax =  -8.57208952995634E+01  1.42822089709504E+00
(PID.TID 0000.0001)  ploadbar=  1.01047779434867E+05
 cg2d: Sum(rhs),rhsMax =  -8.55596904649408E+01  1.43058643039157E+00
(PID.TID 0000.0001)  ploadbar=  1.01048963318518E+05
 cg2d: Sum(rhs),rhsMax =  -8.53886475883983E+01  1.43309845727044E+00
(PID.TID 0000.0001)  ploadbar=  1.01050147202169E+05
 cg2d: Sum(rhs),rhsMax =  -8.52452686986640E+01  1.43512200287619E+00
(PID.TID 0000.0001)  ploadbar=  1.01051331085820E+05
 cg2d: Sum(rhs),rhsMax =  -8.51553701716362E+01  1.43621488730567E+00
(PID.TID 0000.0001)  ploadbar=  1.01052514969472E+05
 cg2d: Sum(rhs),rhsMax =  -8.51465549548833E+01  1.43590313561330E+00
(PID.TID 0000.0001)  ploadbar=  1.01053698853123E+05
 cg2d: Sum(rhs),rhsMax =  -8.52318491218929E+01  1.43396599230271E+00
(PID.TID 0000.0001)  ploadbar=  1.01054882736774E+05
 cg2d: Sum(rhs),rhsMax =  -8.53537706340200E+01  1.43145013265906E+00
(PID.TID 0000.0001)  ploadbar=  1.01054892950075E+05
 cg2d: Sum(rhs),rhsMax =  -8.55112991879138E+01  1.42837433426081E+00
(PID.TID 0000.0001)  ploadbar=  1.01054903163376E+05
 cg2d: Sum(rhs),rhsMax =  -8.56809529357689E+01  1.42513333515503E+00
(PID.TID 0000.0001)  ploadbar=  1.01054913376677E+05
 cg2d: Sum(rhs),rhsMax =  -8.58470106333569E+01  1.42198538000846E+00
(PID.TID 0000.0001)  ploadbar=  1.01054923589978E+05
 cg2d: Sum(rhs),rhsMax =  -8.60682418167703E+01  1.41795775729608E+00
(PID.TID 0000.0001)  ploadbar=  1.01054933803279E+05
 cg2d: Sum(rhs),rhsMax =  -8.63265565526249E+01  1.41335967139548E+00
(PID.TID 0000.0001)  ploadbar=  1.01054944016580E+05
 cg2d: Sum(rhs),rhsMax =  -8.66237528095602E+01  1.40814697042172E+00
(PID.TID 0000.0001)  ploadbar=  1.01056311396452E+05
 cg2d: Sum(rhs),rhsMax =  -8.70843549023185E+01  1.40032715725221E+00
(PID.TID 0000.0001)  ploadbar=  1.01057678776325E+05
 cg2d: Sum(rhs),rhsMax =  -8.86120253201130E+01  1.37580680769847E+00
(PID.TID 0000.0001)  ploadbar=  1.01059046156197E+05
 cg2d: Sum(rhs),rhsMax =  -9.01271768786128E+01  1.35229183669655E+00
(PID.TID 0000.0001)  ploadbar=  1.01060413536069E+05
 cg2d: Sum(rhs),rhsMax =  -9.15783525932968E+01  1.33046873059649E+00
(PID.TID 0000.0001)  ploadbar=  1.01061780915941E+05
 cg2d: Sum(rhs),rhsMax =  -9.23833367159065E+01  1.31846941646878E+00
(PID.TID 0000.0001)  ploadbar=  1.01063148295813E+05
 cg2d: Sum(rhs),rhsMax =  -9.22443027663512E+01  1.32005488049772E+00
(PID.TID 0000.0001)  ploadbar=  1.01064158484978E+05
 cg2d: Sum(rhs),rhsMax =  -9.19319711890384E+01  1.32413796918462E+00
(PID.TID 0000.0001)  ploadbar=  1.01065168674142E+05
 cg2d: Sum(rhs),rhsMax =  -9.12683530469625E+01  1.33336070915519E+00
(PID.TID 0000.0001)  ploadbar=  1.01066178863307E+05
 cg2d: Sum(rhs),rhsMax =  -9.04376991655741E+01  1.34519690446730E+00
(PID.TID 0000.0001)  ploadbar=  1.01067189052471E+05
 cg2d: Sum(rhs),rhsMax =  -8.95862997997154E+01  1.35756357746917E+00
(PID.TID 0000.0001)  ploadbar=  1.01068199241636E+05
 cg2d: Sum(rhs),rhsMax =  -8.88951265680537E+01  1.36769279272153E+00
(PID.TID 0000.0001)  ploadbar=  1.01069209430800E+05
 cg2d: Sum(rhs),rhsMax =  -8.83353681414376E+01  1.37588423229806E+00
(PID.TID 0000.0001)  ploadbar=  1.01069242967156E+05
 cg2d: Sum(rhs),rhsMax =  -8.79680702630162E+01  1.38110060013618E+00
(PID.TID 0000.0001)  ploadbar=  1.01069276503512E+05
 cg2d: Sum(rhs),rhsMax =  -8.78037488443049E+01  1.38310181088387E+00
(PID.TID 0000.0001)  ploadbar=  1.01069310039867E+05
 cg2d: Sum(rhs),rhsMax =  -8.78306826968794E+01  1.38203971443415E+00
(PID.TID 0000.0001)  ploadbar=  1.01069343576223E+05
 cg2d: Sum(rhs),rhsMax =  -8.80499286394146E+01  1.37790551334721E+00
(PID.TID 0000.0001)  ploadbar=  1.01069377112578E+05
 cg2d: Sum(rhs),rhsMax =  -8.84173273306374E+01  1.37143214699254E+00
(PID.TID 0000.0001)  ploadbar=  1.01069410648934E+05
 cg2d: Sum(rhs),rhsMax =  -8.87305271733209E+01  1.36589267481458E+00
(PID.TID 0000.0001)  ploadbar=  1.01069012949011E+05
 cg2d: Sum(rhs),rhsMax =  -8.88921109791335E+01  1.36275600286551E+00
(PID.TID 0000.0001)  ploadbar=  1.01068615249089E+05
 cg2d: Sum(rhs),rhsMax =  -8.87741239553827E+01  1.36395385071038E+00
(PID.TID 0000.0001)  ploadbar=  1.01068217549166E+05
 cg2d: Sum(rhs),rhsMax =  -8.82754306544221E+01  1.37108117669444E+00
(PID.TID 0000.0001)  ploadbar=  1.01067819849243E+05
 cg2d: Sum(rhs),rhsMax =  -8.75565345599083E+01  1.38179200051065E+00
(PID.TID 0000.0001)  ploadbar=  1.01067422149321E+05
 cg2d: Sum(rhs),rhsMax =  -8.67322427670229E+01  1.39440455180984E+00
(PID.TID 0000.0001)  ploadbar=  1.01067024449398E+05
 cg2d: Sum(rhs),rhsMax =  -8.58762209456006E+01  1.40777229422070E+00
(PID.TID 0000.0001)  ploadbar=  1.01066709699359E+05
 cg2d: Sum(rhs),rhsMax =  -8.50107379778750E+01  1.42155749299434E+00
(PID.TID 0000.0001)  ploadbar=  1.01066394949320E+05
 cg2d: Sum(rhs),rhsMax =  -8.41548990777055E+01  1.43544895237856E+00
(PID.TID 0000.0001)  ploadbar=  1.01066080199281E+05
 cg2d: Sum(rhs),rhsMax =  -8.33122551397996E+01  1.44938199689384E+00
(PID.TID 0000.0001)  ploadbar=  1.01065765449242E+05
 cg2d: Sum(rhs),rhsMax =  -8.24671446312780E+01  1.46362979859912E+00
(PID.TID 0000.0001)  ploadbar=  1.01065450699203E+05
 cg2d: Sum(rhs),rhsMax =  -8.15905232653984E+01  1.47873195225778E+00
(PID.TID 0000.0001)  ploadbar=  1.01065135949164E+05
 cg2d: Sum(rhs),rhsMax =  -8.06938982778763E+01  1.49455867680100E+00
(PID.TID 0000.0001)  ploadbar=  1.01065133642198E+05
 cg2d: Sum(rhs),rhsMax =  -7.97700712490213E+01  1.51127757786495E+00
(PID.TID 0000.0001)  ploadbar=  1.01065131335232E+05
 cg2d: Sum(rhs),rhsMax =  -7.88119100135504E+01  1.52907450599524E+00
(PID.TID 0000.0001)  ploadbar=  1.01065129028266E+05
 cg2d: Sum(rhs),rhsMax =  -7.78261534572650E+01  1.54787896421446E+00
(PID.TID 0000.0001)  ploadbar=  1.01065126721300E+05
 cg2d: Sum(rhs),rhsMax =  -7.68253035795523E+01  1.56749350645283E+00
(PID.TID 0000.0001)  ploadbar=  1.01065124414334E+05
 cg2d: Sum(rhs),rhsMax =  -7.59463018692001E+01  1.58509583094682E+00
(PID.TID 0000.0001)  ploadbar=  1.01065122107368E+05
 cg2d: Sum(rhs),rhsMax =  -7.51456612760592E+01  1.60143775302312E+00
(PID.TID 0000.0001)  ploadbar=  1.01064591708467E+05
 cg2d: Sum(rhs),rhsMax =  -7.44442397567096E+01  1.61596792963727E+00
(PID.TID 0000.0001)  ploadbar=  1.01064061309565E+05
 cg2d: Sum(rhs),rhsMax =  -7.38566610321216E+01  1.62825104908975E+00
(PID.TID 0000.0001)  ploadbar=  1.01063530910664E+05
 cg2d: Sum(rhs),rhsMax =  -7.33953605754783E+01  1.63789482130946E+00
(PID.TID 0000.0001)  ploadbar=  1.01063000511762E+05
 cg2d: Sum(rhs),rhsMax =  -7.30592695796309E+01  1.64481866601254E+00
(PID.TID 0000.0001)  ploadbar=  1.01062470112861E+05
 cg2d: Sum(rhs),rhsMax =  -7.28303339486801E+01  1.64935456689552E+00
(PID.TID 0000.0001)  ploadbar=  1.01061939713959E+05
 cg2d: Sum(rhs),rhsMax =  -7.25663740790225E+01  1.65475267708435E+00
(PID.TID 0000.0001)  ploadbar=  1.01060458265657E+05
 cg2d: Sum(rhs),rhsMax =  -7.21918040203782E+01  1.66276297371851E+00
(PID.TID 0000.0001)  ploadbar=  1.01058976817355E+05
 cg2d: Sum(rhs),rhsMax =  -7.16938237698937E+01  1.67375665223472E+00
(PID.TID 0000.0001)  ploadbar=  1.01057495369054E+05
 cg2d: Sum(rhs),rhsMax =  -7.10920253526715E+01  1.68738431639006E+00
(PID.TID 0000.0001)  ploadbar=  1.01056013920752E+05
 cg2d: Sum(rhs),rhsMax =  -7.04395633831243E+01  1.70248218232997E+00
(PID.TID 0000.0001)  ploadbar=  1.01054532472450E+05
 cg2d: Sum(rhs),rhsMax =  -6.97453133528286E+01  1.71890594820144E+00
(PID.TID 0000.0001)  ploadbar=  1.01053051024148E+05
 cg2d: Sum(rhs),rhsMax =  -6.89902942687196E+01  1.73716326699758E+00
(PID.TID 0000.0001)  ploadbar=  1.01051121961370E+05
 cg2d: Sum(rhs),rhsMax =  -6.87669660284716E+01  1.74221842925033E+00
(PID.TID 0000.0001)  ploadbar=  1.01049192898592E+05
 cg2d: Sum(rhs),rhsMax =  -6.85449913464361E+01  1.74723827208933E+00
(PID.TID 0000.0001)  ploadbar=  1.01047263835813E+05
 cg2d: Sum(rhs),rhsMax =  -6.82944282035620E+01  1.75298649358544E+00
(PID.TID 0000.0001)  ploadbar=  1.01045334773035E+05
 cg2d: Sum(rhs),rhsMax =  -6.80151527274497E+01  1.75947747179861E+00
(PID.TID 0000.0001)  ploadbar=  1.01043405710257E+05
 cg2d: Sum(rhs),rhsMax =  -6.77115654204624E+01  1.76661351939467E+00
(PID.TID 0000.0001)  ploadbar=  1.01041476647479E+05
 cg2d: Sum(rhs),rhsMax =  -6.73944085244088E+01  1.77416732499561E+00
(PID.TID 0000.0001)  ploadbar=  1.01038593197918E+05
 cg2d: Sum(rhs),rhsMax =  -6.70780782135173E+01  1.78175976117642E+00
(PID.TID 0000.0001)  ploadbar=  1.01035709748358E+05
 cg2d: Sum(rhs),rhsMax =  -6.67731375711425E+01  1.78910593155047E+00
(PID.TID 0000.0001)  ploadbar=  1.01032826298798E+05
 cg2d: Sum(rhs),rhsMax =  -6.64876115875420E+01  1.79597669277379E+00
(PID.TID 0000.0001)  ploadbar=  1.01029942849238E+05
 cg2d: Sum(rhs),rhsMax =  -6.62248512412808E+01  1.80226286621526E+00
(PID.TID 0000.0001)  ploadbar=  1.01027059399677E+05
 cg2d: Sum(rhs),rhsMax =  -6.59867686176848E+01  1.80789600156822E+00
(PID.TID 0000.0001)  ploadbar=  1.01024175950117E+05
 cg2d: Sum(rhs),rhsMax =  -6.57521813797040E+01  1.81347284626001E+00
(PID.TID 0000.0001)  ploadbar=  1.01022304886696E+05
 cg2d: Sum(rhs),rhsMax =  -6.55065838358888E+01  1.81939263466930E+00
(PID.TID 0000.0001)  ploadbar=  1.01020433823275E+05
 cg2d: Sum(rhs),rhsMax =  -6.52568175985267E+01  1.82546809041761E+00
(PID.TID 0000.0001)  ploadbar=  1.01018562759854E+05
 cg2d: Sum(rhs),rhsMax =  -6.50350204811266E+01  1.83079297733285E+00
(PID.TID 0000.0001)  ploadbar=  1.01016691696434E+05
 cg2d: Sum(rhs),rhsMax =  -6.47544739694410E+01  1.83780578011585E+00
(PID.TID 0000.0001)  ploadbar=  1.01014820633013E+05
 cg2d: Sum(rhs),rhsMax =  -6.45227977132633E+01  1.84346448568214E+00
(PID.TID 0000.0001)  ploadbar=  1.01012949569592E+05
 cg2d: Sum(rhs),rhsMax =  -6.42108349305634E+01  1.85153195509058E+00
(PID.TID 0000.0001)  ploadbar=  1.01012149004527E+05
 cg2d: Sum(rhs),rhsMax =  -6.38053377819296E+01  1.86245441165850E+00
(PID.TID 0000.0001)  ploadbar=  1.01011348439463E+05
 cg2d: Sum(rhs),rhsMax =  -6.33433917955949E+01  1.87522561625683E+00
(PID.TID 0000.0001)  ploadbar=  1.01010547874398E+05
 cg2d: Sum(rhs),rhsMax =  -6.28851130221907E+01  1.88810725043270E+00
(PID.TID 0000.0001)  ploadbar=  1.01009747309334E+05
 cg2d: Sum(rhs),rhsMax =  -6.24304495811155E+01  1.90109875096226E+00
(PID.TID 0000.0001)  ploadbar=  1.01008946744269E+05
 cg2d: Sum(rhs),rhsMax =  -6.20701459840157E+01  1.91139924254023E+00
(PID.TID 0000.0001)  ploadbar=  1.01008146179205E+05
 cg2d: Sum(rhs),rhsMax =  -6.17144235475844E+01  1.92168160624904E+00
(PID.TID 0000.0001)  ploadbar=  1.01007017803217E+05
 cg2d: Sum(rhs),rhsMax =  -6.13704893814124E+01  1.93170976170215E+00
(PID.TID 0000.0001)  ploadbar=  1.01005889427228E+05
 cg2d: Sum(rhs),rhsMax =  -6.10486778402581E+01  1.94113825740636E+00
(PID.TID 0000.0001)  ploadbar=  1.01004761051240E+05
 cg2d: Sum(rhs),rhsMax =  -6.07561258323239E+01  1.94970959114863E+00
(PID.TID 0000.0001)  ploadbar=  1.01003632675252E+05
 cg2d: Sum(rhs),rhsMax =  -6.05050130401275E+01  1.95700090493791E+00
(PID.TID 0000.0001)  ploadbar=  1.01002504299264E+05
 cg2d: Sum(rhs),rhsMax =  -6.03023468741184E+01  1.96274832722972E+00
(PID.TID 0000.0001)  ploadbar=  1.01001375923276E+05
 cg2d: Sum(rhs),rhsMax =  -6.01125270494856E+01  1.96812208787678E+00
(PID.TID 0000.0001)  ploadbar=  1.01000018794054E+05
 cg2d: Sum(rhs),rhsMax =  -5.99142610134701E+01  1.97380859271239E+00
(PID.TID 0000.0001)  ploadbar=  1.00998661664831E+05
 cg2d: Sum(rhs),rhsMax =  -5.97180045050112E+01  1.97946504208938E+00
(PID.TID 0000.0001)  ploadbar=  1.00997304535609E+05
 cg2d: Sum(rhs),rhsMax =  -5.96551705196188E+01  1.98071827056779E+00
(PID.TID 0000.0001)  ploadbar=  1.00995947406387E+05
 cg2d: Sum(rhs),rhsMax =  -5.96777093671016E+01  1.97913219273410E+00
(PID.TID 0000.0001)  ploadbar=  1.00994590277164E+05
 cg2d: Sum(rhs),rhsMax =  -5.97616293478906E+01  1.97550444275776E+00
(PID.TID 0000.0001)  ploadbar=  1.00993233147942E+05
 cg2d: Sum(rhs),rhsMax =  -5.98575638945952E+01  1.97148623752849E+00
(PID.TID 0000.0001)  ploadbar=  1.00993337934992E+05
 cg2d: Sum(rhs),rhsMax =  -5.99394453795852E+01  1.96792855954240E+00
(PID.TID 0000.0001)  ploadbar=  1.00993442722041E+05
 cg2d: Sum(rhs),rhsMax =  -5.99928727934273E+01  1.96529485709552E+00
(PID.TID 0000.0001)  ploadbar=  1.00993547509091E+05
 cg2d: Sum(rhs),rhsMax =  -6.00274290293019E+01  1.96325709582270E+00
(PID.TID 0000.0001)  ploadbar=  1.00993652296141E+05
 cg2d: Sum(rhs),rhsMax =  -6.00073339843693E+01  1.96297641659090E+00
(PID.TID 0000.0001)  ploadbar=  1.00993757083190E+05
 cg2d: Sum(rhs),rhsMax =  -5.99671497375551E+01  1.96331623035508E+00
(PID.TID 0000.0001)  ploadbar=  1.00993861870240E+05
 cg2d: Sum(rhs),rhsMax =  -5.98785649223720E+01  1.96530472228007E+00
(PID.TID 0000.0001)  ploadbar=  1.00994479700521E+05
 cg2d: Sum(rhs),rhsMax =  -5.98194812494364E+01  1.96638289260553E+00
(PID.TID 0000.0001)  ploadbar=  1.00995097530803E+05
 cg2d: Sum(rhs),rhsMax =  -5.99511685219214E+01  1.96125197212018E+00
(PID.TID 0000.0001)  ploadbar=  1.00995715361085E+05
 cg2d: Sum(rhs),rhsMax =  -6.01694989143233E+01  1.95337042920837E+00
(PID.TID 0000.0001)  ploadbar=  1.00996333191366E+05
 cg2d: Sum(rhs),rhsMax =  -6.04740993878277E+01  1.94281296175951E+00
(PID.TID 0000.0001)  ploadbar=  1.00996951021648E+05
 cg2d: Sum(rhs),rhsMax =  -6.08535822502385E+01  1.93002260486590E+00
(PID.TID 0000.0001)  ploadbar=  1.00997568851930E+05
 cg2d: Sum(rhs),rhsMax =  -6.13212857116328E+01  1.91463297277928E+00
(PID.TID 0000.0001)  ploadbar=  1.00998598852733E+05
 cg2d: Sum(rhs),rhsMax =  -6.18656885455469E+01  1.89711814050767E+00
(PID.TID 0000.0001)  ploadbar=  1.00999628853536E+05
 cg2d: Sum(rhs),rhsMax =  -6.24743390595914E+01  1.87796930240197E+00
(PID.TID 0000.0001)  ploadbar=  1.01000658854339E+05
 cg2d: Sum(rhs),rhsMax =  -6.31386290033074E+01  1.85754197915439E+00
(PID.TID 0000.0001)  ploadbar=  1.01001688855142E+05
 cg2d: Sum(rhs),rhsMax =  -6.38564670108843E+01  1.83598277199261E+00
(PID.TID 0000.0001)  ploadbar=  1.01002718855945E+05
 cg2d: Sum(rhs),rhsMax =  -6.46351112517326E+01  1.81317530074977E+00
(PID.TID 0000.0001)  ploadbar=  1.01003748856748E+05
 cg2d: Sum(rhs),rhsMax =  -6.54695747885505E+01  1.78941134709718E+00
(PID.TID 0000.0001)  ploadbar=  1.01003476315386E+05
 cg2d: Sum(rhs),rhsMax =  -6.63772897425078E+01  1.76431979492951E+00
(PID.TID 0000.0001)  ploadbar=  1.01003203774023E+05
 cg2d: Sum(rhs),rhsMax =  -6.73716714800914E+01  1.73768716017829E+00
(PID.TID 0000.0001)  ploadbar=  1.01002931232660E+05
 cg2d: Sum(rhs),rhsMax =  -6.84648815071984E+01  1.70937611581824E+00
(PID.TID 0000.0001)  ploadbar=  1.01002658691297E+05
 cg2d: Sum(rhs),rhsMax =  -6.96643156725832E+01  1.67940616570680E+00
(PID.TID 0000.0001)  ploadbar=  1.01002386149934E+05
 cg2d: Sum(rhs),rhsMax =  -7.09700778938091E+01  1.64798515779961E+00
(PID.TID 0000.0001)  ploadbar=  1.01002113608571E+05
 cg2d: Sum(rhs),rhsMax =  -7.23220985887211E+01  1.61663087707861E+00
(PID.TID 0000.0001)  ploadbar=  1.01002858278813E+05
 cg2d: Sum(rhs),rhsMax =  -7.37021080823421E+01  1.58578899930578E+00
(PID.TID 0000.0001)  ploadbar=  1.01003602949055E+05
 cg2d: Sum(rhs),rhsMax =  -7.50927423406724E+01  1.55582248827636E+00
(PID.TID 0000.0001)  ploadbar=  1.01004347619297E+05
 cg2d: Sum(rhs),rhsMax =  -7.64834083461959E+01  1.52690279216688E+00
(PID.TID 0000.0001)  ploadbar=  1.01005092289538E+05
 cg2d: Sum(rhs),rhsMax =  -7.78720536592147E+01  1.49900901054717E+00
(PID.TID 0000.0001)  ploadbar=  1.01005836959780E+05
 cg2d: Sum(rhs),rhsMax =  -7.93255801033627E+01  1.47084013852409E+00
(PID.TID 0000.0001)  ploadbar=  1.01006581630022E+05
 cg2d: Sum(rhs),rhsMax =  -8.06847213569025E+01  1.44542635153744E+00
(PID.TID 0000.0001)  ploadbar=  1.01006901708736E+05
 cg2d: Sum(rhs),rhsMax =  -8.21791990336889E+01  1.41856383943449E+00
(PID.TID 0000.0001)  ploadbar=  1.01007221787450E+05
 cg2d: Sum(rhs),rhsMax =  -8.37404362472566E+01  1.39159661708386E+00
(PID.TID 0000.0001)  ploadbar=  1.01007541866165E+05
 cg2d: Sum(rhs),rhsMax =  -8.31414824812952E+01  1.40114294900201E+00
(PID.TID 0000.0001)  ploadbar=  1.01007861944879E+05
 cg2d: Sum(rhs),rhsMax =  -8.11585605553359E+01  1.43493016869892E+00
(PID.TID 0000.0001)  ploadbar=  1.01008182023594E+05
 cg2d: Sum(rhs),rhsMax =  -7.92873335447099E+01  1.46838253388624E+00
(PID.TID 0000.0001)  ploadbar=  1.01008502102308E+05
 cg2d: Sum(rhs),rhsMax =  -7.75839152740483E+01  1.50019966439887E+00
(PID.TID 0000.0001)  ploadbar=  1.01009225040694E+05
 cg2d: Sum(rhs),rhsMax =  -7.60649605279271E+01  1.52972023976540E+00
(PID.TID 0000.0001)  ploadbar=  1.01009947979081E+05
 cg2d: Sum(rhs),rhsMax =  -7.47302583642681E+01  1.55658588939614E+00
(PID.TID 0000.0001)  ploadbar=  1.01010670917467E+05
 cg2d: Sum(rhs),rhsMax =  -7.35727387835154E+01  1.58059648754354E+00
(PID.TID 0000.0001)  ploadbar=  1.01011393855853E+05
 cg2d: Sum(rhs),rhsMax =  -7.25801961980598E+01  1.60170275395802E+00
(PID.TID 0000.0001)  ploadbar=  1.01012116794240E+05
 cg2d: Sum(rhs),rhsMax =  -7.17346971710703E+01  1.62003872546486E+00
(PID.TID 0000.0001)  ploadbar=  1.01012839732626E+05
 cg2d: Sum(rhs),rhsMax =  -7.08807506826633E+01  1.63904543312466E+00
(PID.TID 0000.0001)  ploadbar=  1.01013356025030E+05
 cg2d: Sum(rhs),rhsMax =  -7.00042811720527E+01  1.65908541613778E+00
(PID.TID 0000.0001)  ploadbar=  1.01013872317434E+05
 cg2d: Sum(rhs),rhsMax =  -6.91196879997960E+01  1.67986562748072E+00
(PID.TID 0000.0001)  ploadbar=  1.01014388609838E+05
 cg2d: Sum(rhs),rhsMax =  -6.82622991705979E+01  1.70054086718636E+00
(PID.TID 0000.0001)  ploadbar=  1.01014904902242E+05
 cg2d: Sum(rhs),rhsMax =  -6.74548880677436E+01  1.72049737155114E+00
(PID.TID 0000.0001)  ploadbar=  1.01015421194646E+05
 cg2d: Sum(rhs),rhsMax =  -6.66767894110877E+01  1.74019686886621E+00
(PID.TID 0000.0001)  ploadbar=  1.01015937487050E+05
 cg2d: Sum(rhs),rhsMax =  -6.59561132428863E+01  1.75877440991408E+00
(PID.TID 0000.0001)  ploadbar=  1.01016084950134E+05
 cg2d: Sum(rhs),rhsMax =  -6.50418845599661E+01  1.78299243099256E+00
(PID.TID 0000.0001)  ploadbar=  1.01016232413218E+05
 cg2d: Sum(rhs),rhsMax =  -6.37395262013841E+01  1.81884445323903E+00
(PID.TID 0000.0001)  ploadbar=  1.01016379876301E+05
 cg2d: Sum(rhs),rhsMax =  -6.21010601476438E+01  1.86616626604459E+00
(PID.TID 0000.0001)  ploadbar=  1.01016527339385E+05
 cg2d: Sum(rhs),rhsMax =  -6.02077006617707E+01  1.92408284561826E+00
(PID.TID 0000.0001)  ploadbar=  1.01016674802469E+05
 cg2d: Sum(rhs),rhsMax =  -5.81405688517256E+01  1.99160747195854E+00
(PID.TID 0000.0001)  ploadbar=  1.01016822265552E+05
 cg2d: Sum(rhs),rhsMax =  -5.62485251149383E+01  2.05774310266993E+00
(PID.TID 0000.0001)  ploadbar=  1.01016306178668E+05
 cg2d: Sum(rhs),rhsMax =  -5.45867143818652E+01  2.11955701440756E+00
(PID.TID 0000.0001)  ploadbar=  1.01015790091784E+05
 cg2d: Sum(rhs),rhsMax =  -5.32015045410399E+01  2.17393884965167E+00
(PID.TID 0000.0001)  ploadbar=  1.01015274004900E+05
 cg2d: Sum(rhs),rhsMax =  -5.20118240993135E+01  2.22288315422079E+00
(PID.TID 0000.0001)  ploadbar=  1.01014757918016E+05
 cg2d: Sum(rhs),rhsMax =  -5.09794514838508E+01  2.26713765375136E+00
(PID.TID 0000.0001)  ploadbar=  1.01014241831132E+05
 cg2d: Sum(rhs),rhsMax =  -5.00608057749180E+01  2.30799436361129E+00
(PID.TID 0000.0001)  ploadbar=  1.01013725744248E+05
 cg2d: Sum(rhs),rhsMax =  -4.91985940528777E+01  2.34767372140862E+00
(PID.TID 0000.0001)  ploadbar=  1.01013399963812E+05
 cg2d: Sum(rhs),rhsMax =  -4.83030141740368E+01  2.39039832689471E+00
(PID.TID 0000.0001)  ploadbar=  1.01013074183375E+05
 cg2d: Sum(rhs),rhsMax =  -4.74043259470434E+01  2.43486806096614E+00
(PID.TID 0000.0001)  ploadbar=  1.01012748402939E+05
 cg2d: Sum(rhs),rhsMax =  -4.64810652859931E+01  2.48233021229385E+00
(PID.TID 0000.0001)  ploadbar=  1.01012422622503E+05
 cg2d: Sum(rhs),rhsMax =  -4.56966986242627E+01  2.52397409491601E+00
(PID.TID 0000.0001)  ploadbar=  1.01012096842067E+05
 cg2d: Sum(rhs),rhsMax =  -4.46002274684434E+01  2.58497998324828E+00
(PID.TID 0000.0001)  ploadbar=  1.01011771061631E+05
 cg2d: Sum(rhs),rhsMax =  -4.34097430887567E+01  2.65485469111755E+00
(PID.TID 0000.0001)  ploadbar=  1.01011712036117E+05
 cg2d: Sum(rhs),rhsMax =  -4.26068441396816E+01  2.70389870342295E+00
(PID.TID 0000.0001)  ploadbar=  1.01011653010603E+05
 cg2d: Sum(rhs),rhsMax =  -4.17295811643389E+01  2.75978656556753E+00
(PID.TID 0000.0001)  ploadbar=  1.01011593985089E+05
 cg2d: Sum(rhs),rhsMax =  -4.08232240590831E+01  2.82013096127657E+00
(PID.TID 0000.0001)  ploadbar=  1.01011534959575E+05
 cg2d: Sum(rhs),rhsMax =  -3.97724581082303E+01  2.89372597386678E+00
(PID.TID 0000.0001)  ploadbar=  1.01011475934061E+05
 cg2d: Sum(rhs),rhsMax =  -3.86431427364269E+01  2.97739125728280E+00
(PID.TID 0000.0001)  ploadbar=  1.01011416908546E+05
 cg2d: Sum(rhs),rhsMax =  -3.75904974349838E+01  3.05981171456552E+00
(PID.TID 0000.0001)  ploadbar=  1.01010561734914E+05
 cg2d: Sum(rhs),rhsMax =  -3.66545945904219E+01  3.13691610898277E+00
(PID.TID 0000.0001)  ploadbar=  1.01009706561282E+05
 cg2d: Sum(rhs),rhsMax =  -3.63082974206827E+01  3.16575146056803E+00
(PID.TID 0000.0001)  ploadbar=  1.01008851387650E+05
 cg2d: Sum(rhs),rhsMax =  -3.64880684074223E+01  3.14901442938113E+00
(PID.TID 0000.0001)  ploadbar=  1.01007996214017E+05
 cg2d: Sum(rhs),rhsMax =  -3.71131330241624E+01  3.09478668374099E+00
(PID.TID 0000.0001)  ploadbar=  1.01007141040385E+05
 cg2d: Sum(rhs),rhsMax =  -3.82072286618423E+01  3.00493638661071E+00
(PID.TID 0000.0001)  ploadbar=  1.01006285866753E+05
 cg2d: Sum(rhs),rhsMax =  -3.97637027636641E+01  2.88625287093400E+00
(PID.TID 0000.0001)  ploadbar=  1.01005967279588E+05
 cg2d: Sum(rhs),rhsMax =  -4.14010781091501E+01  2.77118974462073E+00
(PID.TID 0000.0001)  ploadbar=  1.01005648692423E+05
 cg2d: Sum(rhs),rhsMax =  -4.24149392056788E+01  2.70414851345003E+00
(PID.TID 0000.0001)  ploadbar=  1.01005330105258E+05
 cg2d: Sum(rhs),rhsMax =  -4.17402736851233E+01  2.74713015018855E+00
(PID.TID 0000.0001)  ploadbar=  1.01005011518093E+05
 cg2d: Sum(rhs),rhsMax =  -4.05054109681482E+01  2.83021286869002E+00
(PID.TID 0000.0001)  ploadbar=  1.01004692930928E+05
 cg2d: Sum(rhs),rhsMax =  -3.92544841665005E+01  2.91979552917141E+00
(PID.TID 0000.0001)  ploadbar=  1.01004374343763E+05
 cg2d: Sum(rhs),rhsMax =  -3.86044822916954E+01  2.96826602151418E+00
(PID.TID 0000.0001)  ploadbar=  1.01004343837530E+05
 cg2d: Sum(rhs),rhsMax =  -3.80943451316138E+01  3.00723596253984E+00
(PID.TID 0000.0001)  ploadbar=  1.01004313331297E+05
 cg2d: Sum(rhs),rhsMax =  -3.77794318339768E+01  3.03143176654612E+00
(PID.TID 0000.0001)  ploadbar=  1.01004282825064E+05
 cg2d: Sum(rhs),rhsMax =  -3.76131510175674E+01  3.04386445452655E+00
(PID.TID 0000.0001)  ploadbar=  1.01004252318831E+05
 cg2d: Sum(rhs),rhsMax =  -3.75607459020845E+01  3.04703769022637E+00
(PID.TID 0000.0001)  ploadbar=  1.01004221812598E+05
 cg2d: Sum(rhs),rhsMax =  -3.73625129830242E+01  3.06202326875239E+00
(PID.TID 0000.0001)  ploadbar=  1.01004191306364E+05
 cg2d: Sum(rhs),rhsMax =  -3.70745215913735E+01  3.08468664738570E+00
(PID.TID 0000.0001)  ploadbar=  1.01005551507471E+05
 cg2d: Sum(rhs),rhsMax =  -3.70524766175771E+01  3.08546000991890E+00
(PID.TID 0000.0001)  ploadbar=  1.01006911708578E+05
 cg2d: Sum(rhs),rhsMax =  -3.73045821115994E+01  3.06360900771115E+00
(PID.TID 0000.0001)  ploadbar=  1.01008271909685E+05
 cg2d: Sum(rhs),rhsMax =  -3.75972984353095E+01  3.03881990041058E+00
(PID.TID 0000.0001)  ploadbar=  1.01009632110791E+05
 cg2d: Sum(rhs),rhsMax =  -3.77284597440146E+01  3.02736911043208E+00
(PID.TID 0000.0001)  ploadbar=  1.01010992311898E+05
 cg2d: Sum(rhs),rhsMax =  -3.81254233504656E+01  2.99501399963933E+00
(PID.TID 0000.0001)  ploadbar=  1.01012352513005E+05
 cg2d: Sum(rhs),rhsMax =  -3.85106421090097E+01  2.96421301124826E+00
(PID.TID 0000.0001)  ploadbar=  1.01012593443208E+05
 cg2d: Sum(rhs),rhsMax =  -3.91652226025602E+01  2.91381744607356E+00
(PID.TID 0000.0001)  ploadbar=  1.01012834373411E+05
 cg2d: Sum(rhs),rhsMax =  -4.00062245626856E+01  2.85169711400518E+00
(PID.TID 0000.0001)  ploadbar=  1.01013075303615E+05
 cg2d: Sum(rhs),rhsMax =  -4.07574909910712E+01  2.79824809333701E+00
(PID.TID 0000.0001)  ploadbar=  1.01013316233818E+05
 cg2d: Sum(rhs),rhsMax =  -4.13886735687996E+01  2.75466030189889E+00
(PID.TID 0000.0001)  ploadbar=  1.01013557164021E+05
 cg2d: Sum(rhs),rhsMax =  -4.18973902338917E+01  2.72026684990663E+00
(PID.TID 0000.0001)  ploadbar=  1.01013798094224E+05
 cg2d: Sum(rhs),rhsMax =  -4.22682321913477E+01  2.69551095019889E+00
(PID.TID 0000.0001)  ploadbar=  1.01016350008917E+05
 cg2d: Sum(rhs),rhsMax =  -4.25244544129836E+01  2.67842612764785E+00
(PID.TID 0000.0001)  ploadbar=  1.01018901923610E+05
 cg2d: Sum(rhs),rhsMax =  -4.27224914527248E+01  2.66520559831801E+00
(PID.TID 0000.0001)  ploadbar=  1.01021453838303E+05
 cg2d: Sum(rhs),rhsMax =  -4.30174631594598E+01  2.64616396211874E+00
(PID.TID 0000.0001)  ploadbar=  1.01024005752995E+05
 cg2d: Sum(rhs),rhsMax =  -4.36983631775340E+01  2.60420680002016E+00
(PID.TID 0000.0001)  ploadbar=  1.01026557667688E+05
 cg2d: Sum(rhs),rhsMax =  -4.46326870528766E+01  2.54901047698134E+00
(PID.TID 0000.0001)  ploadbar=  1.01029109582381E+05
 cg2d: Sum(rhs),rhsMax =  -4.57345954821580E+01  2.48696507169178E+00
(PID.TID 0000.0001)  ploadbar=  1.01031451268125E+05
 cg2d: Sum(rhs),rhsMax =  -4.69431368469756E+01  2.42235114109433E+00
(PID.TID 0000.0001)  ploadbar=  1.01033792953870E+05
 cg2d: Sum(rhs),rhsMax =  -4.61751962045028E+01  2.46205761324473E+00
(PID.TID 0000.0001)  ploadbar=  1.01036134639614E+05
 cg2d: Sum(rhs),rhsMax =  -4.41858472590645E+01  2.57231025513721E+00
(PID.TID 0000.0001)  ploadbar=  1.01038476325359E+05
 cg2d: Sum(rhs),rhsMax =  -4.24210735733812E+01  2.67870141749373E+00
(PID.TID 0000.0001)  ploadbar=  1.01040818011103E+05
 cg2d: Sum(rhs),rhsMax =  -4.08504188170704E+01  2.78104260948315E+00
(PID.TID 0000.0001)  ploadbar=  1.01043159696848E+05
 cg2d: Sum(rhs),rhsMax =  -3.94626457978466E+01  2.87819737581323E+00
(PID.TID 0000.0001)  ploadbar=  1.01045521240953E+05
 cg2d: Sum(rhs),rhsMax =  -3.82697754849061E+01  2.96727246734126E+00
(PID.TID 0000.0001)  ploadbar=  1.01047882785058E+05
 cg2d: Sum(rhs),rhsMax =  -3.72683402080209E+01  3.04637320106092E+00
(PID.TID 0000.0001)  ploadbar=  1.01050244329163E+05
 cg2d: Sum(rhs),rhsMax =  -3.64516478338828E+01  3.11399826555244E+00
(PID.TID 0000.0001)  ploadbar=  1.01052605873268E+05
 cg2d: Sum(rhs),rhsMax =  -3.57751986880329E+01  3.17224964231881E+00
(PID.TID 0000.0001)  ploadbar=  1.01054967417373E+05
 cg2d: Sum(rhs),rhsMax =  -3.52417775962116E+01  3.21963112566772E+00
(PID.TID 0000.0001)  ploadbar=  1.01057328961479E+05
 cg2d: Sum(rhs),rhsMax =  -3.48802758621465E+01  3.25230487547546E+00
(PID.TID 0000.0001)  ploadbar=  1.01058414463417E+05
 cg2d: Sum(rhs),rhsMax =  -3.46287853990101E+01  3.27515824939467E+00
(PID.TID 0000.0001)  ploadbar=  1.01059499965356E+05
 cg2d: Sum(rhs),rhsMax =  -3.44809268520462E+01  3.28835990305149E+00
(PID.TID 0000.0001)  ploadbar=  1.01060585467295E+05
 cg2d: Sum(rhs),rhsMax =  -3.44184321195634E+01  3.29340609721616E+00
(PID.TID 0000.0001)  ploadbar=  1.01061670969234E+05
 cg2d: Sum(rhs),rhsMax =  -3.44199308530000E+01  3.29224570823890E+00
(PID.TID 0000.0001)  ploadbar=  1.01062756471173E+05
 cg2d: Sum(rhs),rhsMax =  -3.44682817482822E+01  3.28650590576936E+00
(PID.TID 0000.0001)  ploadbar=  1.01063841973112E+05
 cg2d: Sum(rhs),rhsMax =  -3.45554984358386E+01  3.27717717856379E+00
(PID.TID 0000.0001)  ploadbar=  1.01063451579496E+05
 cg2d: Sum(rhs),rhsMax =  -3.46739077336561E+01  3.26503250586844E+00
(PID.TID 0000.0001)  ploadbar=  1.01063061185879E+05
 cg2d: Sum(rhs),rhsMax =  -3.48279405256557E+01  3.24971339300778E+00
(PID.TID 0000.0001)  ploadbar=  1.01062670792263E+05
 cg2d: Sum(rhs),rhsMax =  -3.50214944344720E+01  3.23093676480049E+00
(PID.TID 0000.0001)  ploadbar=  1.01062280398647E+05
 cg2d: Sum(rhs),rhsMax =  -3.52574981178938E+01  3.20855111594127E+00
(PID.TID 0000.0001)  ploadbar=  1.01061890005031E+05
 cg2d: Sum(rhs),rhsMax =  -3.55396501033208E+01  3.18237247832893E+00
(PID.TID 0000.0001)  ploadbar=  1.01061499611414E+05
 cg2d: Sum(rhs),rhsMax =  -3.58484653155030E+01  3.15421983747924E+00
(PID.TID 0000.0001)  ploadbar=  1.01061195176100E+05
 cg2d: Sum(rhs),rhsMax =  -3.61830830764334E+01  3.12426929354341E+00
(PID.TID 0000.0001)  ploadbar=  1.01060890740785E+05
 cg2d: Sum(rhs),rhsMax =  -3.65410138632560E+01  3.09283832951779E+00
(PID.TID 0000.0001)  ploadbar=  1.01060586305470E+05
 cg2d: Sum(rhs),rhsMax =  -3.69172696168607E+01  3.06044023205981E+00
(PID.TID 0000.0001)  ploadbar=  1.01060281870155E+05
 cg2d: Sum(rhs),rhsMax =  -3.73096731560896E+01  3.02731521944228E+00
(PID.TID 0000.0001)  ploadbar=  1.01059977434840E+05
 cg2d: Sum(rhs),rhsMax =  -3.77178646239685E+01  2.99354625247873E+00
(PID.TID 0000.0001)  ploadbar=  1.01059672999526E+05
 cg2d: Sum(rhs),rhsMax =  -3.81227467074218E+01  2.96081147690708E+00
(PID.TID 0000.0001)  ploadbar=  1.01059262190127E+05
 cg2d: Sum(rhs),rhsMax =  -3.85373699826210E+01  2.92807291491071E+00
(PID.TID 0000.0001)  ploadbar=  1.01058851380729E+05
 cg2d: Sum(rhs),rhsMax =  -3.89592027297145E+01  2.89553928761412E+00
(PID.TID 0000.0001)  ploadbar=  1.01058440571330E+05
 cg2d: Sum(rhs),rhsMax =  -3.93838228320545E+01  2.86353791429636E+00
(PID.TID 0000.0001)  ploadbar=  1.01058029761932E+05
 cg2d: Sum(rhs),rhsMax =  -3.98070407280859E+01  2.83234579914208E+00
(PID.TID 0000.0001)  ploadbar=  1.01057618952533E+05
 cg2d: Sum(rhs),rhsMax =  -4.02241603127989E+01  2.80224775003696E+00
(PID.TID 0000.0001)  ploadbar=  1.01057208143135E+05
 cg2d: Sum(rhs),rhsMax =  -4.06379158499842E+01  2.77296995150883E+00
(PID.TID 0000.0001)  ploadbar=  1.01057744515797E+05
 cg2d: Sum(rhs),rhsMax =  -4.10600996611730E+01  2.74368219841973E+00
(PID.TID 0000.0001)  ploadbar=  1.01058280888458E+05
 cg2d: Sum(rhs),rhsMax =  -4.15024848608674E+01  2.71362677791656E+00
(PID.TID 0000.0001)  ploadbar=  1.01058817261120E+05
 cg2d: Sum(rhs),rhsMax =  -4.19702312465960E+01  2.68253552981101E+00
(PID.TID 0000.0001)  ploadbar=  1.01059353633782E+05
 cg2d: Sum(rhs),rhsMax =  -4.24645748197735E+01  2.65041170245945E+00
(PID.TID 0000.0001)  ploadbar=  1.01059890006443E+05
 cg2d: Sum(rhs),rhsMax =  -4.29822669011140E+01  2.61753790891967E+00
(PID.TID 0000.0001)  ploadbar=  1.01060426379105E+05
 cg2d: Sum(rhs),rhsMax =  -4.34996306815622E+01  2.58553183768846E+00
(PID.TID 0000.0001)  ploadbar=  1.01060609737929E+05
 cg2d: Sum(rhs),rhsMax =  -4.40051211280912E+01  2.55502886260938E+00
(PID.TID 0000.0001)  ploadbar=  1.01060793096753E+05
 cg2d: Sum(rhs),rhsMax =  -4.44845620442211E+01  2.52675318249174E+00
(PID.TID 0000.0001)  ploadbar=  1.01060976455577E+05
 cg2d: Sum(rhs),rhsMax =  -4.49356299750599E+01  2.50070496892403E+00
(PID.TID 0000.0001)  ploadbar=  1.01061159814401E+05
 cg2d: Sum(rhs),rhsMax =  -4.53605572074094E+01  2.47664010387974E+00
(PID.TID 0000.0001)  ploadbar=  1.01061343173225E+05
 cg2d: Sum(rhs),rhsMax =  -4.57628924848833E+01  2.45426384471843E+00
(PID.TID 0000.0001)  ploadbar=  1.01061526532049E+05
 cg2d: Sum(rhs),rhsMax =  -4.61582218558161E+01  2.43264476701182E+00
(PID.TID 0000.0001)  ploadbar=  1.01060913040664E+05
 cg2d: Sum(rhs),rhsMax =  -4.65471192243360E+01  2.41171480878070E+00
(PID.TID 0000.0001)  ploadbar=  1.01060299549280E+05
 cg2d: Sum(rhs),rhsMax =  -4.69388020380149E+01  2.39097259679043E+00
(PID.TID 0000.0001)  ploadbar=  1.01059686057896E+05
 cg2d: Sum(rhs),rhsMax =  -4.73351285772194E+01  2.37031437681517E+00
(PID.TID 0000.0001)  ploadbar=  1.01059072566512E+05
 cg2d: Sum(rhs),rhsMax =  -4.77360545064585E+01  2.34973611183448E+00
(PID.TID 0000.0001)  ploadbar=  1.01058459075128E+05
 cg2d: Sum(rhs),rhsMax =  -4.81401428401071E+01  2.32930343627424E+00
(PID.TID 0000.0001)  ploadbar=  1.01057845583744E+05
 cg2d: Sum(rhs),rhsMax =  -4.85380238203544E+01  2.30956105361733E+00
(PID.TID 0000.0001)  ploadbar=  1.01057382400916E+05
 cg2d: Sum(rhs),rhsMax =  -4.89441042063991E+01  2.28980554460154E+00
(PID.TID 0000.0001)  ploadbar=  1.01056919218087E+05
 cg2d: Sum(rhs),rhsMax =  -4.93239055461372E+01  2.27163322593967E+00
(PID.TID 0000.0001)  ploadbar=  1.01056456035258E+05
 cg2d: Sum(rhs),rhsMax =  -4.94380321700535E+01  2.26589344939218E+00
(PID.TID 0000.0001)  ploadbar=  1.01055992852430E+05
 cg2d: Sum(rhs),rhsMax =  -4.94496467034996E+01  2.26490241000757E+00
(PID.TID 0000.0001)  ploadbar=  1.01055529669601E+05
 cg2d: Sum(rhs),rhsMax =  -4.94656227002489E+01  2.26374255069468E+00
(PID.TID 0000.0001)  ploadbar=  1.01055066486772E+05
 cg2d: Sum(rhs),rhsMax =  -4.94849391570532E+01  2.26242857002392E+00
(PID.TID 0000.0001)  ploadbar=  1.01054246324216E+05
 cg2d: Sum(rhs),rhsMax =  -4.95050177010458E+01  2.26106953185339E+00
(PID.TID 0000.0001)  ploadbar=  1.01053426161659E+05
 cg2d: Sum(rhs),rhsMax =  -4.95224864000465E+01  2.25981453340558E+00
(PID.TID 0000.0001)  ploadbar=  1.01052605999103E+05
 cg2d: Sum(rhs),rhsMax =  -4.95372419380563E+01  2.25866486071396E+00
(PID.TID 0000.0001)  ploadbar=  1.01051785836546E+05
 cg2d: Sum(rhs),rhsMax =  -4.95494784011725E+01  2.25760578242156E+00
(PID.TID 0000.0001)  ploadbar=  1.01050965673990E+05
 cg2d: Sum(rhs),rhsMax =  -4.95595286550052E+01  2.25661716791143E+00
(PID.TID 0000.0001)  ploadbar=  1.01050145511433E+05
 cg2d: Sum(rhs),rhsMax =  -4.95614301290420E+01  2.25602880552673E+00
(PID.TID 0000.0001)  ploadbar=  1.01048355450267E+05
 cg2d: Sum(rhs),rhsMax =  -4.95642908440196E+01  2.25542495021149E+00
(PID.TID 0000.0001)  ploadbar=  1.01046565389101E+05
 cg2d: Sum(rhs),rhsMax =  -4.95670241061530E+01  2.25485263975548E+00
(PID.TID 0000.0001)  ploadbar=  1.01044775327935E+05
 cg2d: Sum(rhs),rhsMax =  -4.95690740581591E+01  2.25433320633057E+00
(PID.TID 0000.0001)  ploadbar=  1.01042985266769E+05
 cg2d: Sum(rhs),rhsMax =  -4.95697736443231E+01  2.25389110296882E+00
(PID.TID 0000.0001)  ploadbar=  1.01041195205604E+05
 cg2d: Sum(rhs),rhsMax =  -4.95753694292211E+01  2.25323804860175E+00
(PID.TID 0000.0001)  ploadbar=  1.01039405144438E+05
 cg2d: Sum(rhs),rhsMax =  -4.95698687688453E+01  2.25306501687467E+00
(PID.TID 0000.0001)  ploadbar=  1.01037768616506E+05
 cg2d: Sum(rhs),rhsMax =  -4.95507880627748E+01  2.25348047484596E+00
(PID.TID 0000.0001)  ploadbar=  1.01036132088575E+05
 cg2d: Sum(rhs),rhsMax =  -4.95239924402192E+01  2.25421349083285E+00
(PID.TID 0000.0001)  ploadbar=  1.01034495560643E+05
 cg2d: Sum(rhs),rhsMax =  -4.94899480168694E+01  2.25523938755588E+00
(PID.TID 0000.0001)  ploadbar=  1.01032859032712E+05
 cg2d: Sum(rhs),rhsMax =  -4.94488431343449E+01  2.25654453898356E+00
(PID.TID 0000.0001)  ploadbar=  1.01031222504780E+05
 cg2d: Sum(rhs),rhsMax =  -4.94015592997621E+01  2.25808245895968E+00
(PID.TID 0000.0001)  ploadbar=  1.01029585976849E+05
 cg2d: Sum(rhs),rhsMax =  -4.93497913179399E+01  2.25987593161336E+00
(PID.TID 0000.0001)  ploadbar=  1.01028903624495E+05
 cg2d: Sum(rhs),rhsMax =  -4.92918000604306E+01  2.26200107152666E+00
(PID.TID 0000.0001)  ploadbar=  1.01028221272140E+05
 cg2d: Sum(rhs),rhsMax =  -4.92330955198616E+01  2.26420836614625E+00
(PID.TID 0000.0001)  ploadbar=  1.01027538919786E+05
 cg2d: Sum(rhs),rhsMax =  -4.91763382723134E+01  2.26636985982686E+00
(PID.TID 0000.0001)  ploadbar=  1.01026856567431E+05
 cg2d: Sum(rhs),rhsMax =  -4.91222817158724E+01  2.26844644457597E+00
(PID.TID 0000.0001)  ploadbar=  1.01026174215077E+05
 cg2d: Sum(rhs),rhsMax =  -4.90715415939307E+01  2.27040405769937E+00
(PID.TID 0000.0001)  ploadbar=  1.01025491862722E+05
 cg2d: Sum(rhs),rhsMax =  -4.90253305938035E+01  2.27213014128937E+00
(PID.TID 0000.0001)  ploadbar=  1.01025047937463E+05
 cg2d: Sum(rhs),rhsMax =  -4.89836986615875E+01  2.27361513008964E+00
(PID.TID 0000.0001)  ploadbar=  1.01024604012204E+05
 cg2d: Sum(rhs),rhsMax =  -4.89511956335016E+01  2.27464151404493E+00
(PID.TID 0000.0001)  ploadbar=  1.01024160086945E+05
 cg2d: Sum(rhs),rhsMax =  -4.89291068803855E+01  2.27514540033908E+00
(PID.TID 0000.0001)  ploadbar=  1.01023716161686E+05
 cg2d: Sum(rhs),rhsMax =  -4.89183313532713E+01  2.27508258844463E+00
(PID.TID 0000.0001)  ploadbar=  1.01023272236427E+05
 cg2d: Sum(rhs),rhsMax =  -4.89197933649139E+01  2.27440259660351E+00
(PID.TID 0000.0001)  ploadbar=  1.01022828311168E+05
 cg2d: Sum(rhs),rhsMax =  -4.89404782054012E+01  2.27285463557831E+00
(PID.TID 0000.0001)  ploadbar=  1.01023412649126E+05
 cg2d: Sum(rhs),rhsMax =  -4.89759923463589E+01  2.27064187100085E+00
(PID.TID 0000.0001)  ploadbar=  1.01023996987084E+05
 cg2d: Sum(rhs),rhsMax =  -4.90238859285791E+01  2.26787608276479E+00
(PID.TID 0000.0001)  ploadbar=  1.01024581325043E+05
 cg2d: Sum(rhs),rhsMax =  -4.90823531970056E+01  2.26463754181665E+00
(PID.TID 0000.0001)  ploadbar=  1.01025165663001E+05
 cg2d: Sum(rhs),rhsMax =  -4.91499681101925E+01  2.26098489511850E+00
(PID.TID 0000.0001)  ploadbar=  1.01025750000959E+05
 cg2d: Sum(rhs),rhsMax =  -4.92252401958349E+01  2.25698236496842E+00
(PID.TID 0000.0001)  ploadbar=  1.01026334338917E+05
 cg2d: Sum(rhs),rhsMax =  -4.93108157152006E+01  2.25251161422040E+00
(PID.TID 0000.0001)  ploadbar=  1.01026465902956E+05
 cg2d: Sum(rhs),rhsMax =  -4.94063625597786E+01  2.24758693259947E+00
(PID.TID 0000.0001)  ploadbar=  1.01026597466995E+05
 cg2d: Sum(rhs),rhsMax =  -4.95092902350190E+01  2.24232513619513E+00
(PID.TID 0000.0001)  ploadbar=  1.01026729031034E+05
 cg2d: Sum(rhs),rhsMax =  -4.96167092718995E+01  2.23685668889824E+00
(PID.TID 0000.0001)  ploadbar=  1.01026860595073E+05
 cg2d: Sum(rhs),rhsMax =  -4.97266123674064E+01  2.23126917692393E+00
(PID.TID 0000.0001)  ploadbar=  1.01026992159112E+05
 cg2d: Sum(rhs),rhsMax =  -4.98367073909828E+01  2.22566172264805E+00
(PID.TID 0000.0001)  ploadbar=  1.01027123723151E+05
 cg2d: Sum(rhs),rhsMax =  -4.99489581800056E+01  2.21999441725186E+00
(PID.TID 0000.0001)  ploadbar=  1.01026758008447E+05
 cg2d: Sum(rhs),rhsMax =  -5.00578495471947E+01  2.21450486164268E+00
(PID.TID 0000.0001)  ploadbar=  1.01026392293742E+05
 cg2d: Sum(rhs),rhsMax =  -5.01615648435028E+01  2.20926525563008E+00
(PID.TID 0000.0001)  ploadbar=  1.01026026579038E+05
 cg2d: Sum(rhs),rhsMax =  -5.02571855692996E+01  2.20439441986292E+00
(PID.TID 0000.0001)  ploadbar=  1.01025660864334E+05
 cg2d: Sum(rhs),rhsMax =  -5.03456024661568E+01  2.19983784046994E+00
(PID.TID 0000.0001)  ploadbar=  1.01025295149629E+05
 cg2d: Sum(rhs),rhsMax =  -5.04254345052246E+01  2.19564608264743E+00
(PID.TID 0000.0001)  ploadbar=  1.01024929434925E+05
 cg2d: Sum(rhs),rhsMax =  -5.05003982910762E+01  2.19170731503442E+00
(PID.TID 0000.0001)  ploadbar=  1.01024534132106E+05
 cg2d: Sum(rhs),rhsMax =  -5.05755737302873E+01  2.18779406198575E+00
(PID.TID 0000.0001)  ploadbar=  1.01024138829286E+05
 cg2d: Sum(rhs),rhsMax =  -5.06472436109525E+01  2.18406162451426E+00
(PID.TID 0000.0001)  ploadbar=  1.01023743526467E+05
 cg2d: Sum(rhs),rhsMax =  -5.07147166422037E+01  2.18052824424348E+00
(PID.TID 0000.0001)  ploadbar=  1.01023348223647E+05
 cg2d: Sum(rhs),rhsMax =  -5.07807957164630E+01  2.17706508823307E+00
(PID.TID 0000.0001)  ploadbar=  1.01022952920828E+05
 cg2d: Sum(rhs),rhsMax =  -5.08517896471512E+01  2.17339485229426E+00
(PID.TID 0000.0001)  ploadbar=  1.01022557618008E+05
 cg2d: Sum(rhs),rhsMax =  -5.09467980929113E+01  2.16876116494194E+00
(PID.TID 0000.0001)  ploadbar=  1.01023299677392E+05
 cg2d: Sum(rhs),rhsMax =  -5.10790542104232E+01  2.16261137352198E+00
(PID.TID 0000.0001)  ploadbar=  1.01024041736776E+05
 cg2d: Sum(rhs),rhsMax =  -5.12495383327534E+01  2.15492448227948E+00
(PID.TID 0000.0001)  ploadbar=  1.01024783796161E+05
 cg2d: Sum(rhs),rhsMax =  -5.14569369882785E+01  2.14578111268513E+00
(PID.TID 0000.0001)  ploadbar=  1.01025525855545E+05
 cg2d: Sum(rhs),rhsMax =  -5.16994575536656E+01  2.13528536574283E+00
(PID.TID 0000.0001)  ploadbar=  1.01026267914929E+05
 cg2d: Sum(rhs),rhsMax =  -5.19768607185155E+01  2.12347851765498E+00
(PID.TID 0000.0001)  ploadbar=  1.01027009974313E+05
 cg2d: Sum(rhs),rhsMax =  -5.22844402802745E+01  2.11061568564006E+00
(PID.TID 0000.0001)  ploadbar=  1.01026606544881E+05
 cg2d: Sum(rhs),rhsMax =  -5.26220757268596E+01  2.09673679524275E+00
(PID.TID 0000.0001)  ploadbar=  1.01026203115448E+05
 cg2d: Sum(rhs),rhsMax =  -5.29712534094054E+01  2.08260697276111E+00
(PID.TID 0000.0001)  ploadbar=  1.01025799686016E+05
 cg2d: Sum(rhs),rhsMax =  -5.33254930215974E+01  2.06848443769945E+00
(PID.TID 0000.0001)  ploadbar=  1.01025396256584E+05
 cg2d: Sum(rhs),rhsMax =  -5.36804743290094E+01  2.05453412618187E+00
(PID.TID 0000.0001)  ploadbar=  1.01024992827152E+05
 cg2d: Sum(rhs),rhsMax =  -5.40287027373478E+01  2.04103036869916E+00
(PID.TID 0000.0001)  ploadbar=  1.01024589397719E+05
 cg2d: Sum(rhs),rhsMax =  -5.43356627302146E+01  2.02923088933868E+00
(PID.TID 0000.0001)  ploadbar=  1.01023975649582E+05
 cg2d: Sum(rhs),rhsMax =  -5.46020414030910E+01  2.01905893235272E+00
(PID.TID 0000.0001)  ploadbar=  1.01023361901445E+05
 cg2d: Sum(rhs),rhsMax =  -5.48133030024595E+01  2.01099730455984E+00
(PID.TID 0000.0001)  ploadbar=  1.01022748153308E+05
 cg2d: Sum(rhs),rhsMax =  -5.49727730489661E+01  2.00487321398322E+00
(PID.TID 0000.0001)  ploadbar=  1.01022134405171E+05
 cg2d: Sum(rhs),rhsMax =  -5.50929374269371E+01  2.00019420703788E+00
(PID.TID 0000.0001)  ploadbar=  1.01021520657034E+05
 cg2d: Sum(rhs),rhsMax =  -5.51883728217061E+01  1.99640720587303E+00
(PID.TID 0000.0001)  ploadbar=  1.01020906908897E+05
 cg2d: Sum(rhs),rhsMax =  -5.52658784392567E+01  1.99331735456226E+00
(PID.TID 0000.0001)  ploadbar=  1.01020955911927E+05
 cg2d: Sum(rhs),rhsMax =  -5.53365711282826E+01  1.99051544407502E+00
(PID.TID 0000.0001)  ploadbar=  1.01021004914958E+05
 cg2d: Sum(rhs),rhsMax =  -5.53967103374359E+01  1.98812827227303E+00
(PID.TID 0000.0001)  ploadbar=  1.01021053917988E+05
 cg2d: Sum(rhs),rhsMax =  -5.54359619697593E+01  1.98651565129658E+00
(PID.TID 0000.0001)  ploadbar=  1.01021102921018E+05
 cg2d: Sum(rhs),rhsMax =  -5.54363008184075E+01  1.98631376314428E+00
(PID.TID 0000.0001)  ploadbar=  1.01021151924048E+05
 cg2d: Sum(rhs),rhsMax =  -5.53774910675864E+01  1.98823998510482E+00
(PID.TID 0000.0001)  ploadbar=  1.01021200927078E+05
 cg2d: Sum(rhs),rhsMax =  -5.52339414507071E+01  1.99325229049160E+00
(PID.TID 0000.0001)  ploadbar=  1.01021240021388E+05
 cg2d: Sum(rhs),rhsMax =  -5.50118116460758E+01  2.00117055776075E+00
(PID.TID 0000.0001)  ploadbar=  1.01021279115698E+05
 cg2d: Sum(rhs),rhsMax =  -5.47510647852129E+01  2.01059111349894E+00
(PID.TID 0000.0001)  ploadbar=  1.01021318210009E+05
 cg2d: Sum(rhs),rhsMax =  -5.44521911671723E+01  2.02153303399845E+00
(PID.TID 0000.0001)  ploadbar=  1.01021357304319E+05
 cg2d: Sum(rhs),rhsMax =  -5.41253336714612E+01  2.03365881036963E+00
(PID.TID 0000.0001)  ploadbar=  1.01021396398629E+05
 cg2d: Sum(rhs),rhsMax =  -5.37844196325006E+01  2.04647242527300E+00
(PID.TID 0000.0001)  ploadbar=  1.01021435492939E+05
 cg2d: Sum(rhs),rhsMax =  -5.34969223071360E+01  2.05741064368132E+00
(PID.TID 0000.0001)  ploadbar=  1.01022319737040E+05
 cg2d: Sum(rhs),rhsMax =  -5.32346030681409E+01  2.06750484752218E+00
(PID.TID 0000.0001)  ploadbar=  1.01023203981140E+05
 cg2d: Sum(rhs),rhsMax =  -5.30115640148284E+01  2.07616662129041E+00
(PID.TID 0000.0001)  ploadbar=  1.01024088225240E+05
 cg2d: Sum(rhs),rhsMax =  -5.28299354114481E+01  2.08326979393249E+00
(PID.TID 0000.0001)  ploadbar=  1.01024972469341E+05
 cg2d: Sum(rhs),rhsMax =  -5.26841154951709E+01  2.08899672305419E+00
(PID.TID 0000.0001)  ploadbar=  1.01025856713441E+05
 cg2d: Sum(rhs),rhsMax =  -5.25719040166163E+01  2.09340818744674E+00
(PID.TID 0000.0001)  ploadbar=  1.01026740957541E+05
 cg2d: Sum(rhs),rhsMax =  -5.24980745657542E+01  2.09631077547804E+00
(PID.TID 0000.0001)  ploadbar=  1.01028171995960E+05
 cg2d: Sum(rhs),rhsMax =  -5.24481172527154E+01  2.09826706110854E+00
(PID.TID 0000.0001)  ploadbar=  1.01029603034379E+05
 cg2d: Sum(rhs),rhsMax =  -5.24103972600230E+01  2.09973404246620E+00
(PID.TID 0000.0001)  ploadbar=  1.01031034072798E+05
 cg2d: Sum(rhs),rhsMax =  -5.23841008876142E+01  2.10073294731966E+00
(PID.TID 0000.0001)  ploadbar=  1.01032465111217E+05
 cg2d: Sum(rhs),rhsMax =  -5.23716113088678E+01  2.10115951861457E+00
(PID.TID 0000.0001)  ploadbar=  1.01033896149636E+05
 cg2d: Sum(rhs),rhsMax =  -5.23767533552322E+01  2.10085330036477E+00
(PID.TID 0000.0001)  ploadbar=  1.01035327188055E+05
 cg2d: Sum(rhs),rhsMax =  -5.24114407875661E+01  2.09937452899720E+00
(PID.TID 0000.0001)  ploadbar=  1.01036201908655E+05
 cg2d: Sum(rhs),rhsMax =  -5.24735972732054E+01  2.09680697794013E+00
(PID.TID 0000.0001)  ploadbar=  1.01037076629255E+05
 cg2d: Sum(rhs),rhsMax =  -5.25541157593044E+01  2.09351541353440E+00
(PID.TID 0000.0001)  ploadbar=  1.01037951349855E+05
 cg2d: Sum(rhs),rhsMax =  -5.26485261369797E+01  2.08967554795529E+00
(PID.TID 0000.0001)  ploadbar=  1.01038826070455E+05
 cg2d: Sum(rhs),rhsMax =  -5.27528615508541E+01  2.08545105949328E+00
(PID.TID 0000.0001)  ploadbar=  1.01039700791055E+05
 cg2d: Sum(rhs),rhsMax =  -5.28658052751835E+01  2.08089047207349E+00
(PID.TID 0000.0001)  ploadbar=  1.01040575511655E+05
 cg2d: Sum(rhs),rhsMax =  -5.29758194150595E+01  2.07649277007088E+00
(PID.TID 0000.0001)  ploadbar=  1.01041320139312E+05
 cg2d: Sum(rhs),rhsMax =  -5.31021589633994E+01  2.07149776497384E+00
(PID.TID 0000.0001)  ploadbar=  1.01042064766970E+05
 cg2d: Sum(rhs),rhsMax =  -5.32449477851961E+01  2.06590394895284E+00
(PID.TID 0000.0001)  ploadbar=  1.01042809394628E+05
 cg2d: Sum(rhs),rhsMax =  -5.34023521458288E+01  2.05979339769320E+00
(PID.TID 0000.0001)  ploadbar=  1.01043554022286E+05
 cg2d: Sum(rhs),rhsMax =  -5.35747142571578E+01  2.05315926870860E+00
(PID.TID 0000.0001)  ploadbar=  1.01044298649944E+05
 cg2d: Sum(rhs),rhsMax =  -5.37655777680130E+01  2.04587558196781E+00
(PID.TID 0000.0001)  ploadbar=  1.01045043277601E+05
 cg2d: Sum(rhs),rhsMax =  -5.39600369054586E+01  2.03853750182270E+00
(PID.TID 0000.0001)  ploadbar=  1.01045631316328E+05
 cg2d: Sum(rhs),rhsMax =  -5.41692600753389E+01  2.03072629855918E+00
(PID.TID 0000.0001)  ploadbar=  1.01046219355054E+05
 cg2d: Sum(rhs),rhsMax =  -5.43879555977931E+01  2.02264642116509E+00
(PID.TID 0000.0001)  ploadbar=  1.01046807393781E+05
 cg2d: Sum(rhs),rhsMax =  -5.46139022810704E+01  2.01438325855809E+00
(PID.TID 0000.0001)  ploadbar=  1.01047395432507E+05
 cg2d: Sum(rhs),rhsMax =  -5.48454633766091E+01  2.00599813002170E+00
(PID.TID 0000.0001)  ploadbar=  1.01047983471233E+05
 cg2d: Sum(rhs),rhsMax =  -5.50813355523324E+01  1.99754067784734E+00
(PID.TID 0000.0001)  ploadbar=  1.01048571509960E+05
 cg2d: Sum(rhs),rhsMax =  -5.53078829793599E+01  1.98948468835425E+00
(PID.TID 0000.0001)  ploadbar=  1.01049954984982E+05
 cg2d: Sum(rhs),rhsMax =  -5.55374369713351E+01  1.98137323715892E+00
(PID.TID 0000.0001)  ploadbar=  1.01051338460005E+05
 cg2d: Sum(rhs),rhsMax =  -5.57671782263075E+01  1.97330247691332E+00
(PID.TID 0000.0001)  ploadbar=  1.01052721935027E+05
 cg2d: Sum(rhs),rhsMax =  -5.59946212437904E+01  1.96535399626376E+00
(PID.TID 0000.0001)  ploadbar=  1.01054105410049E+05
 cg2d: Sum(rhs),rhsMax =  -5.62178855536682E+01  1.95758767485945E+00
(PID.TID 0000.0001)  ploadbar=  1.01055488885072E+05
 cg2d: Sum(rhs),rhsMax =  -5.64343973621883E+01  1.95008723997087E+00
(PID.TID 0000.0001)  ploadbar=  1.01056872360094E+05
 cg2d: Sum(rhs),rhsMax =  -5.66537919293906E+01  1.94255928517370E+00
(PID.TID 0000.0001)  ploadbar=  1.01056330413372E+05
 cg2d: Sum(rhs),rhsMax =  -5.68592273421157E+01  1.93557418579530E+00
(PID.TID 0000.0001)  ploadbar=  1.01055788466649E+05
 cg2d: Sum(rhs),rhsMax =  -5.70497886745584E+01  1.92914879473275E+00
(PID.TID 0000.0001)  ploadbar=  1.01055246519926E+05
 cg2d: Sum(rhs),rhsMax =  -5.72265800884654E+01  1.92323225906404E+00
(PID.TID 0000.0001)  ploadbar=  1.01054704573203E+05
 cg2d: Sum(rhs),rhsMax =  -5.73877441241149E+01  1.91787118405107E+00
(PID.TID 0000.0001)  ploadbar=  1.01054162626481E+05
 cg2d: Sum(rhs),rhsMax =  -5.75336688076698E+01  1.91303735806938E+00
(PID.TID 0000.0001)  ploadbar=  1.01053620679758E+05
 cg2d: Sum(rhs),rhsMax =  -5.76658890331324E+01  1.90870815087809E+00
(PID.TID 0000.0001)  ploadbar=  1.01052442602887E+05
 cg2d: Sum(rhs),rhsMax =  -5.77881005146607E+01  1.90475159018098E+00
(PID.TID 0000.0001)  ploadbar=  1.01051264526016E+05
 cg2d: Sum(rhs),rhsMax =  -5.79097912882601E+01  1.90085047930559E+00
(PID.TID 0000.0001)  ploadbar=  1.01050086449145E+05
 cg2d: Sum(rhs),rhsMax =  -5.80302551995074E+01  1.89702438494995E+00
(PID.TID 0000.0001)  ploadbar=  1.01048908372274E+05
 cg2d: Sum(rhs),rhsMax =  -5.81508667182414E+01  1.89322090628730E+00
(PID.TID 0000.0001)  ploadbar=  1.01047730295403E+05
 cg2d: Sum(rhs),rhsMax =  -5.82717758619221E+01  1.88943425696809E+00
(PID.TID 0000.0001)  ploadbar=  1.01046552218532E+05
 cg2d: Sum(rhs),rhsMax =  -5.83722858382099E+01  1.88630413104059E+00
(PID.TID 0000.0001)  ploadbar=  1.01045263603393E+05
 cg2d: Sum(rhs),rhsMax =  -5.84668348194823E+01  1.88335512188104E+00
(PID.TID 0000.0001)  ploadbar=  1.01043974988254E+05
 cg2d: Sum(rhs),rhsMax =  -5.85603097684865E+01  1.88042466069294E+00
(PID.TID 0000.0001)  ploadbar=  1.01042686373115E+05
 cg2d: Sum(rhs),rhsMax =  -5.86530862541399E+01  1.87749304955751E+00
(PID.TID 0000.0001)  ploadbar=  1.01041397757976E+05
 cg2d: Sum(rhs),rhsMax =  -5.87456868617636E+01  1.87453924676137E+00
(PID.TID 0000.0001)  ploadbar=  1.01040109142838E+05
 cg2d: Sum(rhs),rhsMax =  -5.88382605535544E+01  1.87155477099146E+00
(PID.TID 0000.0001)  ploadbar=  1.01038820527699E+05
 cg2d: Sum(rhs),rhsMax =  -5.89361434339920E+01  1.86841162870454E+00
(PID.TID 0000.0001)  ploadbar=  1.01038816408192E+05
 cg2d: Sum(rhs),rhsMax =  -5.90409649203856E+01  1.86505704453301E+00
(PID.TID 0000.0001)  ploadbar=  1.01038812288685E+05
 cg2d: Sum(rhs),rhsMax =  -5.91456807235467E+01  1.86171052956344E+00
(PID.TID 0000.0001)  ploadbar=  1.01038808169178E+05
 cg2d: Sum(rhs),rhsMax =  -5.92531018322252E+01  1.85828165147670E+00
(PID.TID 0000.0001)  ploadbar=  1.01038804049671E+05
 cg2d: Sum(rhs),rhsMax =  -5.93658538086262E+01  1.85468763271829E+00
(PID.TID 0000.0001)  ploadbar=  1.01038799930164E+05
 cg2d: Sum(rhs),rhsMax =  -5.94879861254807E+01  1.85079960753127E+00
(PID.TID 0000.0001)  ploadbar=  1.01038795810657E+05
 cg2d: Sum(rhs),rhsMax =  -5.96080031535307E+01  1.84696714628306E+00
(PID.TID 0000.0001)  ploadbar=  1.01038351506348E+05
 cg2d: Sum(rhs),rhsMax =  -5.97351774029483E+01  1.84290177999826E+00
(PID.TID 0000.0001)  ploadbar=  1.01037907202038E+05
 cg2d: Sum(rhs),rhsMax =  -5.98874424005902E+01  1.83805309223688E+00
(PID.TID 0000.0001)  ploadbar=  1.01037462897729E+05
 cg2d: Sum(rhs),rhsMax =  -6.00753484237672E+01  1.83210468904656E+00
(PID.TID 0000.0001)  ploadbar=  1.01037018593419E+05
 cg2d: Sum(rhs),rhsMax =  -6.03087643109558E+01  1.82477652510025E+00
(PID.TID 0000.0001)  ploadbar=  1.01036574289110E+05
 cg2d: Sum(rhs),rhsMax =  -6.05849432888905E+01  1.81618043124143E+00
(PID.TID 0000.0001)  ploadbar=  1.01036129984801E+05
 cg2d: Sum(rhs),rhsMax =  -6.08955644760099E+01  1.80667873087306E+00
(PID.TID 0000.0001)  ploadbar=  1.01035254698044E+05
 cg2d: Sum(rhs),rhsMax =  -6.11864234260321E+01  1.79789409899013E+00
(PID.TID 0000.0001)  ploadbar=  1.01034379411288E+05
 cg2d: Sum(rhs),rhsMax =  -6.14803034417400E+01  1.78914196740548E+00
(PID.TID 0000.0001)  ploadbar=  1.01033504124531E+05
 cg2d: Sum(rhs),rhsMax =  -6.17041025498990E+01  1.78253379343613E+00
(PID.TID 0000.0001)  ploadbar=  1.01032628837775E+05
 cg2d: Sum(rhs),rhsMax =  -6.18235262663952E+01  1.77901283092724E+00
(PID.TID 0000.0001)  ploadbar=  1.01031753551018E+05
 cg2d: Sum(rhs),rhsMax =  -6.18888451285676E+01  1.77710100366064E+00
(PID.TID 0000.0001)  ploadbar=  1.01030878264262E+05
 cg2d: Sum(rhs),rhsMax =  -6.18939792637129E+01  1.77692154544274E+00
(PID.TID 0000.0001)  ploadbar=  1.01029722958956E+05
 cg2d: Sum(rhs),rhsMax =  -6.17702898404514E+01  1.78044823875469E+00
(PID.TID 0000.0001)  ploadbar=  1.01028567653649E+05
 cg2d: Sum(rhs),rhsMax =  -6.14328678825548E+01  1.79019411323270E+00
(PID.TID 0000.0001)  ploadbar=  1.01027412348343E+05
 cg2d: Sum(rhs),rhsMax =  -6.10719457264030E+01  1.80073416958467E+00
(PID.TID 0000.0001)  ploadbar=  1.01026257043037E+05
 cg2d: Sum(rhs),rhsMax =  -6.08307929025747E+01  1.80782280223680E+00
(PID.TID 0000.0001)  ploadbar=  1.01025101737730E+05
 cg2d: Sum(rhs),rhsMax =  -6.06291767728668E+01  1.81377057379607E+00
(PID.TID 0000.0001)  ploadbar=  1.01023946432424E+05
 cg2d: Sum(rhs),rhsMax =  -6.04399223703611E+01  1.81937633626771E+00
(PID.TID 0000.0001)  ploadbar=  1.01024357943090E+05
 cg2d: Sum(rhs),rhsMax =  -6.02663438766190E+01  1.82453055614754E+00
(PID.TID 0000.0001)  ploadbar=  1.01024769453755E+05
 cg2d: Sum(rhs),rhsMax =  -6.00981400336158E+01  1.82953789080450E+00
(PID.TID 0000.0001)  ploadbar=  1.01025180964421E+05
 cg2d: Sum(rhs),rhsMax =  -5.99271395863049E+01  1.83463964818380E+00
(PID.TID 0000.0001)  ploadbar=  1.01025592475086E+05
 cg2d: Sum(rhs),rhsMax =  -5.97493468349984E+01  1.83995635192725E+00
(PID.TID 0000.0001)  ploadbar=  1.01026003985752E+05
 cg2d: Sum(rhs),rhsMax =  -5.95628288272964E+01  1.84554975119428E+00
(PID.TID 0000.0001)  ploadbar=  1.01026415496417E+05
 cg2d: Sum(rhs),rhsMax =  -5.93556640370197E+01  1.85180306070168E+00
(PID.TID 0000.0001)  ploadbar=  1.01027313136430E+05
 cg2d: Sum(rhs),rhsMax =  -5.91494138785469E+01  1.85804753247281E+00
(PID.TID 0000.0001)  ploadbar=  1.01028210776443E+05
 cg2d: Sum(rhs),rhsMax =  -5.89522089565215E+01  1.86402040437181E+00
(PID.TID 0000.0001)  ploadbar=  1.01029108416456E+05
 cg2d: Sum(rhs),rhsMax =  -5.87705756844294E+01  1.86950731542810E+00
(PID.TID 0000.0001)  ploadbar=  1.01030006056469E+05
 cg2d: Sum(rhs),rhsMax =  -5.86075854732416E+01  1.87439161380575E+00
(PID.TID 0000.0001)  ploadbar=  1.01030903696482E+05
 cg2d: Sum(rhs),rhsMax =  -5.84636578182438E+01  1.87864415924451E+00
(PID.TID 0000.0001)  ploadbar=  1.01031801336495E+05
 cg2d: Sum(rhs),rhsMax =  -5.83417438913131E+01  1.88222795853974E+00
(PID.TID 0000.0001)  ploadbar=  1.01033433228360E+05
 cg2d: Sum(rhs),rhsMax =  -5.82413118794383E+01  1.88514882354414E+00
(PID.TID 0000.0001)  ploadbar=  1.01035065120224E+05
 cg2d: Sum(rhs),rhsMax =  -5.81550102269603E+01  1.88763699118357E+00
(PID.TID 0000.0001)  ploadbar=  1.01036697012089E+05
 cg2d: Sum(rhs),rhsMax =  -5.80803502898560E+01  1.88976885306482E+00
(PID.TID 0000.0001)  ploadbar=  1.01038328903954E+05
 cg2d: Sum(rhs),rhsMax =  -5.80172200667276E+01  1.89153944032972E+00
(PID.TID 0000.0001)  ploadbar=  1.01039960795819E+05
 cg2d: Sum(rhs),rhsMax =  -5.79643310620594E+01  1.89298463615454E+00
(PID.TID 0000.0001)  ploadbar=  1.01041592687684E+05
 cg2d: Sum(rhs),rhsMax =  -5.79277517682122E+01  1.89390421898145E+00
(PID.TID 0000.0001)  ploadbar=  1.01042804702434E+05
 cg2d: Sum(rhs),rhsMax =  -5.78997512062661E+01  1.89454605280387E+00
(PID.TID 0000.0001)  ploadbar=  1.01044016717184E+05
 cg2d: Sum(rhs),rhsMax =  -5.78799928474891E+01  1.89491786849673E+00
(PID.TID 0000.0001)  ploadbar=  1.01045228731935E+05
 cg2d: Sum(rhs),rhsMax =  -5.78677406123265E+01  1.89503761143058E+00
(PID.TID 0000.0001)  ploadbar=  1.01046440746685E+05
 cg2d: Sum(rhs),rhsMax =  -5.78615508803806E+01  1.89494655265049E+00
(PID.TID 0000.0001)  ploadbar=  1.01047652761435E+05
 cg2d: Sum(rhs),rhsMax =  -5.78607882582919E+01  1.89466147257553E+00
(PID.TID 0000.0001)  ploadbar=  1.01048864776185E+05
 cg2d: Sum(rhs),rhsMax =  -5.78705205551760E+01  1.89406254720380E+00
(PID.TID 0000.0001)  ploadbar=  1.01050299676914E+05
 cg2d: Sum(rhs),rhsMax =  -5.78846286242423E+01  1.89334403559066E+00
(PID.TID 0000.0001)  ploadbar=  1.01051734577643E+05
 cg2d: Sum(rhs),rhsMax =  -5.79009579876889E+01  1.89257519853112E+00
(PID.TID 0000.0001)  ploadbar=  1.01053169478371E+05
 cg2d: Sum(rhs),rhsMax =  -5.79211678497792E+01  1.89169723660723E+00
(PID.TID 0000.0001)  ploadbar=  1.01054604379100E+05
 cg2d: Sum(rhs),rhsMax =  -5.79453665099171E+01  1.89069964249563E+00
(PID.TID 0000.0001)  ploadbar=  1.01056039279828E+05
 cg2d: Sum(rhs),rhsMax =  -5.79739508300748E+01  1.88956425325717E+00
(PID.TID 0000.0001)  ploadbar=  1.01057474180557E+05
 cg2d: Sum(rhs),rhsMax =  -5.79975214569363E+01  1.88858326017486E+00
(PID.TID 0000.0001)  ploadbar=  1.01058147640260E+05
 cg2d: Sum(rhs),rhsMax =  -5.80201952756567E+01  1.88761726400558E+00
(PID.TID 0000.0001)  ploadbar=  1.01058821099964E+05
 cg2d: Sum(rhs),rhsMax =  -5.80420195605079E+01  1.88665902065727E+00
(PID.TID 0000.0001)  ploadbar=  1.01059494559668E+05
 cg2d: Sum(rhs),rhsMax =  -5.80639454231526E+01  1.88567086049019E+00
(PID.TID 0000.0001)  ploadbar=  1.01060168019371E+05
 cg2d: Sum(rhs),rhsMax =  -5.80847753330388E+01  1.88468382873957E+00
(PID.TID 0000.0001)  ploadbar=  1.01060841479075E+05
 cg2d: Sum(rhs),rhsMax =  -5.81041352288994E+01  1.88370528834443E+00
(PID.TID 0000.0001)  ploadbar=  1.01061514938778E+05
 cg2d: Sum(rhs),rhsMax =  -5.81258755185987E+01  1.88267319286598E+00
(PID.TID 0000.0001)  ploadbar=  1.01062298042271E+05
 cg2d: Sum(rhs),rhsMax =  -5.81456696456809E+01  1.88172324045666E+00
(PID.TID 0000.0001)  ploadbar=  1.01063081145763E+05
 cg2d: Sum(rhs),rhsMax =  -5.81603835244481E+01  1.88095172744188E+00
(PID.TID 0000.0001)  ploadbar=  1.01063864249255E+05
 cg2d: Sum(rhs),rhsMax =  -5.81718039703042E+01  1.88029298934147E+00
(PID.TID 0000.0001)  ploadbar=  1.01064647352748E+05
 cg2d: Sum(rhs),rhsMax =  -5.81801952848835E+01  1.87973160069787E+00
(PID.TID 0000.0001)  ploadbar=  1.01065430456240E+05
 cg2d: Sum(rhs),rhsMax =  -5.81845420517014E+01  1.87929584116898E+00
(PID.TID 0000.0001)  ploadbar=  1.01066213559732E+05
 cg2d: Sum(rhs),rhsMax =  -5.81917992359781E+01  1.87876182041947E+00
(PID.TID 0000.0001)  ploadbar=  1.01067074828687E+05
 cg2d: Sum(rhs),rhsMax =  -5.81951954144132E+01  1.87834500765820E+00
(PID.TID 0000.0001)  ploadbar=  1.01067936097642E+05
 cg2d: Sum(rhs),rhsMax =  -5.82010522008663E+01  1.87783686478903E+00
(PID.TID 0000.0001)  ploadbar=  1.01068797366597E+05
 cg2d: Sum(rhs),rhsMax =  -5.82103389097287E+01  1.87720022428496E+00
(PID.TID 0000.0001)  ploadbar=  1.01069658635551E+05
 cg2d: Sum(rhs),rhsMax =  -5.82228290316830E+01  1.87643542726593E+00
(PID.TID 0000.0001)  ploadbar=  1.01070519904506E+05
 cg2d: Sum(rhs),rhsMax =  -5.82394930543760E+01  1.87550854063573E+00
(PID.TID 0000.0001)  ploadbar=  1.01071381173461E+05
 cg2d: Sum(rhs),rhsMax =  -5.82511585795152E+01  1.87474870759794E+00
(PID.TID 0000.0001)  ploadbar=  1.01071611254124E+05
 cg2d: Sum(rhs),rhsMax =  -5.82706195015060E+01  1.87374018897269E+00
(PID.TID 0000.0001)  ploadbar=  1.01071841334787E+05
 cg2d: Sum(rhs),rhsMax =  -5.83016748075546E+01  1.87235876178490E+00
(PID.TID 0000.0001)  ploadbar=  1.01072071415450E+05
 cg2d: Sum(rhs),rhsMax =  -5.83434992295613E+01  1.87062557355756E+00
(PID.TID 0000.0001)  ploadbar=  1.01072301496113E+05
 cg2d: Sum(rhs),rhsMax =  -5.83984691155323E+01  1.86845965994271E+00
(PID.TID 0000.0001)  ploadbar=  1.01072531576776E+05
 cg2d: Sum(rhs),rhsMax =  -5.84670249614254E+01  1.86584177515966E+00
(PID.TID 0000.0001)  ploadbar=  1.01072761657439E+05
 cg2d: Sum(rhs),rhsMax =  -5.85461496466072E+01  1.86290990734200E+00
(PID.TID 0000.0001)  ploadbar=  1.01074111242271E+05
 cg2d: Sum(rhs),rhsMax =  -5.86391619256369E+01  1.85955707584544E+00
(PID.TID 0000.0001)  ploadbar=  1.01075460827103E+05
 cg2d: Sum(rhs),rhsMax =  -5.87499006161966E+01  1.85566075291119E+00
(PID.TID 0000.0001)  ploadbar=  1.01076810411936E+05
 cg2d: Sum(rhs),rhsMax =  -5.88746690822365E+01  1.85133641550366E+00
(PID.TID 0000.0001)  ploadbar=  1.01078159996768E+05
 cg2d: Sum(rhs),rhsMax =  -5.90132009958402E+01  1.84659457870059E+00
(PID.TID 0000.0001)  ploadbar=  1.01079509581600E+05
 cg2d: Sum(rhs),rhsMax =  -5.91653863675480E+01  1.84144178408994E+00
(PID.TID 0000.0001)  ploadbar=  1.01080859166432E+05
 cg2d: Sum(rhs),rhsMax =  -5.93326544009873E+01  1.83586535634362E+00
(PID.TID 0000.0001)  ploadbar=  1.01082920753139E+05
 cg2d: Sum(rhs),rhsMax =  -5.95174782602041E+01  1.82979619926395E+00
(PID.TID 0000.0001)  ploadbar=  1.01084982339845E+05
 cg2d: Sum(rhs),rhsMax =  -5.97238850509056E+01  1.82311879169363E+00
(PID.TID 0000.0001)  ploadbar=  1.01087043926552E+05
 cg2d: Sum(rhs),rhsMax =  -5.99588041312152E+01  1.81563266637684E+00
(PID.TID 0000.0001)  ploadbar=  1.01089105513259E+05
 cg2d: Sum(rhs),rhsMax =  -6.02278540815818E+01  1.80718655313695E+00
(PID.TID 0000.0001)  ploadbar=  1.01091167099965E+05
 cg2d: Sum(rhs),rhsMax =  -6.05290334884093E+01  1.79786506801525E+00
(PID.TID 0000.0001)  ploadbar=  1.01093228686672E+05
 cg2d: Sum(rhs),rhsMax =  -6.08564652631081E+01  1.78787224662625E+00
(PID.TID 0000.0001)  ploadbar=  1.01094313657841E+05
 cg2d: Sum(rhs),rhsMax =  -6.12048704230924E+01  1.77738294958117E+00
(PID.TID 0000.0001)  ploadbar=  1.01095398629011E+05
 cg2d: Sum(rhs),rhsMax =  -6.15637282773283E+01  1.76671369971167E+00
(PID.TID 0000.0001)  ploadbar=  1.01096483600180E+05
 cg2d: Sum(rhs),rhsMax =  -6.19252121349370E+01  1.75608675737508E+00
(PID.TID 0000.0001)  ploadbar=  1.01097568571349E+05
 cg2d: Sum(rhs),rhsMax =  -6.22552632532120E+01  1.74645262081363E+00
(PID.TID 0000.0001)  ploadbar=  1.01098653542519E+05
 cg2d: Sum(rhs),rhsMax =  -6.25307824311586E+01  1.73842159176829E+00
(PID.TID 0000.0001)  ploadbar=  1.01099738513688E+05
 cg2d: Sum(rhs),rhsMax =  -6.27990442263934E+01  1.73065188036928E+00
(PID.TID 0000.0001)  ploadbar=  1.01099399417284E+05
 cg2d: Sum(rhs),rhsMax =  -6.30629244370690E+01  1.72305820261385E+00
(PID.TID 0000.0001)  ploadbar=  1.01099060320881E+05
 cg2d: Sum(rhs),rhsMax =  -6.33146122066721E+01  1.71584415635370E+00
(PID.TID 0000.0001)  ploadbar=  1.01098721224477E+05
 cg2d: Sum(rhs),rhsMax =  -6.35576006074677E+01  1.70890120724962E+00
(PID.TID 0000.0001)  ploadbar=  1.01098382128073E+05
 cg2d: Sum(rhs),rhsMax =  -6.37941480045297E+01  1.70215541813160E+00
(PID.TID 0000.0001)  ploadbar=  1.01098043031670E+05
 cg2d: Sum(rhs),rhsMax =  -6.40248105699885E+01  1.69558432708725E+00
(PID.TID 0000.0001)  ploadbar=  1.01097703935266E+05
 cg2d: Sum(rhs),rhsMax =  -6.42495834861156E+01  1.68923794931799E+00
(PID.TID 0000.0001)  ploadbar=  1.01097084696041E+05
 cg2d: Sum(rhs),rhsMax =  -6.44733973337222E+01  1.68298019598100E+00
(PID.TID 0000.0001)  ploadbar=  1.01096465456815E+05
 cg2d: Sum(rhs),rhsMax =  -6.36051863837913E+01  1.70557074292759E+00
(PID.TID 0000.0001)  ploadbar=  1.01095846217589E+05
 cg2d: Sum(rhs),rhsMax =  -6.23254904564108E+01  1.74021434042629E+00
(PID.TID 0000.0001)  ploadbar=  1.01095226978363E+05
 cg2d: Sum(rhs),rhsMax =  -6.11368558965172E+01  1.77367680068994E+00
(PID.TID 0000.0001)  ploadbar=  1.01094607739137E+05
 cg2d: Sum(rhs),rhsMax =  -6.00316402778621E+01  1.80596452523711E+00
(PID.TID 0000.0001)  ploadbar=  1.01093988499912E+05
 cg2d: Sum(rhs),rhsMax =  -5.89946678758533E+01  1.83736698854376E+00
(PID.TID 0000.0001)  ploadbar=  1.01092887726821E+05
 cg2d: Sum(rhs),rhsMax =  -5.80253603945980E+01  1.86774522513715E+00
(PID.TID 0000.0001)  ploadbar=  1.01091786953730E+05
 cg2d: Sum(rhs),rhsMax =  -5.71130582675773E+01  1.89728856703683E+00
(PID.TID 0000.0001)  ploadbar=  1.01090686180639E+05
 cg2d: Sum(rhs),rhsMax =  -5.62531036591138E+01  1.92602156475801E+00
(PID.TID 0000.0001)  ploadbar=  1.01089585407548E+05
 cg2d: Sum(rhs),rhsMax =  -5.54414919123702E+01  1.95396117471285E+00
(PID.TID 0000.0001)  ploadbar=  1.01088484634457E+05
 cg2d: Sum(rhs),rhsMax =  -5.46782409090577E+01  1.98099179280606E+00
(PID.TID 0000.0001)  ploadbar=  1.01087383861366E+05
 cg2d: Sum(rhs),rhsMax =  -5.39708171245040E+01  2.00671026788855E+00
(PID.TID 0000.0001)  ploadbar=  1.01085991733769E+05
 cg2d: Sum(rhs),rhsMax =  -5.33522602852956E+01  2.02972191509796E+00
(PID.TID 0000.0001)  ploadbar=  1.01084599606173E+05
 cg2d: Sum(rhs),rhsMax =  -5.28477375379962E+01  2.04883481209547E+00
(PID.TID 0000.0001)  ploadbar=  1.01083207478576E+05
 cg2d: Sum(rhs),rhsMax =  -5.24761937391746E+01  2.06306443400993E+00
(PID.TID 0000.0001)  ploadbar=  1.01081815350980E+05
 cg2d: Sum(rhs),rhsMax =  -5.22294905604018E+01  2.07251613958708E+00
(PID.TID 0000.0001)  ploadbar=  1.01080423223384E+05
 cg2d: Sum(rhs),rhsMax =  -5.21012550770501E+01  2.07730444256148E+00
(PID.TID 0000.0001)  ploadbar=  1.01079031095787E+05
 cg2d: Sum(rhs),rhsMax =  -5.20784975888867E+01  2.07795187766199E+00
(PID.TID 0000.0001)  ploadbar=  1.01078273852598E+05
 cg2d: Sum(rhs),rhsMax =  -5.21121576906102E+01  2.07639728951530E+00
(PID.TID 0000.0001)  ploadbar=  1.01077516609409E+05
 cg2d: Sum(rhs),rhsMax =  -5.21759393070635E+01  2.07368635368853E+00
(PID.TID 0000.0001)  ploadbar=  1.01076759366220E+05
 cg2d: Sum(rhs),rhsMax =  -5.22717820758738E+01  2.06974317227555E+00
(PID.TID 0000.0001)  ploadbar=  1.01076002123031E+05
 cg2d: Sum(rhs),rhsMax =  -5.23973103206978E+01  2.06467035068169E+00
(PID.TID 0000.0001)  ploadbar=  1.01075244879842E+05
 cg2d: Sum(rhs),rhsMax =  -5.25541557330762E+01  2.05841496859198E+00
(PID.TID 0000.0001)  ploadbar=  1.01074487636653E+05
 cg2d: Sum(rhs),rhsMax =  -5.27425077311329E+01  2.05097040999776E+00
(PID.TID 0000.0001)  ploadbar=  1.01075159813561E+05
 cg2d: Sum(rhs),rhsMax =  -5.29454181020155E+01  2.04301469712549E+00
(PID.TID 0000.0001)  ploadbar=  1.01075831990468E+05
 cg2d: Sum(rhs),rhsMax =  -5.31482722851032E+01  2.03511551151863E+00
(PID.TID 0000.0001)  ploadbar=  1.01076504167376E+05
 cg2d: Sum(rhs),rhsMax =  -5.33391244963264E+01  2.02772245552386E+00
(PID.TID 0000.0001)  ploadbar=  1.01077176344284E+05
 cg2d: Sum(rhs),rhsMax =  -5.35123977469692E+01  2.02102955754278E+00
(PID.TID 0000.0001)  ploadbar=  1.01077848521192E+05
 cg2d: Sum(rhs),rhsMax =  -5.36645342922603E+01  2.01515042525126E+00
(PID.TID 0000.0001)  ploadbar=  1.01078520698099E+05
 cg2d: Sum(rhs),rhsMax =  -5.38117349793753E+01  2.00950020910931E+00
(PID.TID 0000.0001)  ploadbar=  1.01079360005564E+05
 cg2d: Sum(rhs),rhsMax =  -5.39440599031404E+01  2.00444152043489E+00
(PID.TID 0000.0001)  ploadbar=  1.01080199313028E+05
 cg2d: Sum(rhs),rhsMax =  -5.40589941049284E+01  2.00005267786743E+00
(PID.TID 0000.0001)  ploadbar=  1.01081038620492E+05
 cg2d: Sum(rhs),rhsMax =  -5.41623801793498E+01  1.99610400441187E+00
(PID.TID 0000.0001)  ploadbar=  1.01081877927956E+05
 cg2d: Sum(rhs),rhsMax =  -5.42546658074386E+01  1.99256747488699E+00
(PID.TID 0000.0001)  ploadbar=  1.01082717235421E+05
 cg2d: Sum(rhs),rhsMax =  -5.43436942775456E+01  1.98914728563710E+00
(PID.TID 0000.0001)  ploadbar=  1.01083556542885E+05
 cg2d: Sum(rhs),rhsMax =  -5.44437417301057E+01  1.98531518860353E+00
(PID.TID 0000.0001)  ploadbar=  1.01084300986885E+05
 cg2d: Sum(rhs),rhsMax =  -5.45764303413464E+01  1.98028826985194E+00
(PID.TID 0000.0001)  ploadbar=  1.01085045430886E+05
 cg2d: Sum(rhs),rhsMax =  -5.47554137405329E+01  1.97358633016223E+00
(PID.TID 0000.0001)  ploadbar=  1.01085789874886E+05
 cg2d: Sum(rhs),rhsMax =  -5.49872914934649E+01  1.96500328452223E+00
(PID.TID 0000.0001)  ploadbar=  1.01086534318887E+05
 cg2d: Sum(rhs),rhsMax =  -5.52680026415710E+01  1.95472648247278E+00
(PID.TID 0000.0001)  ploadbar=  1.01087278762887E+05
 cg2d: Sum(rhs),rhsMax =  -5.55997357187838E+01  1.94272865297572E+00
(PID.TID 0000.0001)  ploadbar=  1.01088023206888E+05
 cg2d: Sum(rhs),rhsMax =  -5.59812000815752E+01  1.92914781022956E+00
(PID.TID 0000.0001)  ploadbar=  1.01087853708233E+05
 cg2d: Sum(rhs),rhsMax =  -5.63954456839147E+01  1.91462218462325E+00
(PID.TID 0000.0001)  ploadbar=  1.01087684209579E+05
 cg2d: Sum(rhs),rhsMax =  -5.68413375616521E+01  1.89923046892344E+00
(PID.TID 0000.0001)  ploadbar=  1.01087514710925E+05
 cg2d: Sum(rhs),rhsMax =  -5.73215858015886E+01  1.88292210186498E+00
(PID.TID 0000.0001)  ploadbar=  1.01087345212271E+05
 cg2d: Sum(rhs),rhsMax =  -5.78442083094499E+01  1.86548614303181E+00
(PID.TID 0000.0001)  ploadbar=  1.01087175713616E+05
 cg2d: Sum(rhs),rhsMax =  -5.84202665063438E+01  1.84663760979834E+00
(PID.TID 0000.0001)  ploadbar=  1.01087006214962E+05
 cg2d: Sum(rhs),rhsMax =  -5.90494059728043E+01  1.82648431624174E+00
(PID.TID 0000.0001)  ploadbar=  1.01086807730523E+05
 cg2d: Sum(rhs),rhsMax =  -5.97535058611507E+01  1.80445875664301E+00
(PID.TID 0000.0001)  ploadbar=  1.01086609246083E+05
 cg2d: Sum(rhs),rhsMax =  -6.05516144178015E+01  1.78014430012856E+00
(PID.TID 0000.0001)  ploadbar=  1.01086410761644E+05
 cg2d: Sum(rhs),rhsMax =  -6.14316326263401E+01  1.75408187511021E+00
(PID.TID 0000.0001)  ploadbar=  1.01086212277205E+05
 cg2d: Sum(rhs),rhsMax =  -6.23726718291296E+01  1.72701938960281E+00
(PID.TID 0000.0001)  ploadbar=  1.01086013792765E+05
 cg2d: Sum(rhs),rhsMax =  -6.33407853451710E+01  1.69998475718681E+00
(PID.TID 0000.0001)  ploadbar=  1.01085815308326E+05
 cg2d: Sum(rhs),rhsMax =  -6.42644242998949E+01  1.67495811044668E+00
(PID.TID 0000.0001)  ploadbar=  1.01085495996547E+05
 cg2d: Sum(rhs),rhsMax =  -6.51478282750919E+01  1.65168872554604E+00
(PID.TID 0000.0001)  ploadbar=  1.01085176684769E+05
 cg2d: Sum(rhs),rhsMax =  -6.59903001504612E+01  1.63007834642553E+00
(PID.TID 0000.0001)  ploadbar=  1.01084857372990E+05
 cg2d: Sum(rhs),rhsMax =  -6.68044033440005E+01  1.60971603412873E+00
(PID.TID 0000.0001)  ploadbar=  1.01084538061212E+05
 cg2d: Sum(rhs),rhsMax =  -6.73268432547850E+01  1.59674621233768E+00
(PID.TID 0000.0001)  ploadbar=  1.01084218749433E+05
 cg2d: Sum(rhs),rhsMax =  -6.73730044098706E+01  1.59518283071222E+00
(PID.TID 0000.0001)  ploadbar=  1.01083899437655E+05
 cg2d: Sum(rhs),rhsMax =  -6.74251588248768E+01  1.59346814824777E+00
(PID.TID 0000.0001)  ploadbar=  1.01083693476190E+05
 cg2d: Sum(rhs),rhsMax =  -6.74711139768861E+01  1.59188673358580E+00
(PID.TID 0000.0001)  ploadbar=  1.01083487514725E+05
 cg2d: Sum(rhs),rhsMax =  -6.75108613925050E+01  1.59043187631062E+00
(PID.TID 0000.0001)  ploadbar=  1.01083281553260E+05
 cg2d: Sum(rhs),rhsMax =  -6.75494934407163E+01  1.58897722123835E+00
(PID.TID 0000.0001)  ploadbar=  1.01083075591795E+05
 cg2d: Sum(rhs),rhsMax =  -6.75898526826552E+01  1.58745130083739E+00
(PID.TID 0000.0001)  ploadbar=  1.01082869630330E+05
 cg2d: Sum(rhs),rhsMax =  -6.76329310714915E+01  1.58582346157484E+00
(PID.TID 0000.0001)  ploadbar=  1.01082663668866E+05
 cg2d: Sum(rhs),rhsMax =  -6.76880239902753E+01  1.58394195634936E+00
(PID.TID 0000.0001)  ploadbar=  1.01082534177788E+05
 cg2d: Sum(rhs),rhsMax =  -6.77583904490731E+01  1.58173328477615E+00
(PID.TID 0000.0001)  ploadbar=  1.01082404686711E+05
 cg2d: Sum(rhs),rhsMax =  -6.78137590694434E+01  1.57989909646751E+00
(PID.TID 0000.0001)  ploadbar=  1.01082275195634E+05
 cg2d: Sum(rhs),rhsMax =  -6.78515395203226E+01  1.57849304441107E+00
(PID.TID 0000.0001)  ploadbar=  1.01082145704557E+05
 cg2d: Sum(rhs),rhsMax =  -6.79512624876313E+01  1.57566201834985E+00
(PID.TID 0000.0001)  ploadbar=  1.01082016213480E+05
 cg2d: Sum(rhs),rhsMax =  -6.80992849642415E+01  1.57172748363564E+00
(PID.TID 0000.0001)  ploadbar=  1.01081886722403E+05
 cg2d: Sum(rhs),rhsMax =  -6.82275650424670E+01  1.56825882088389E+00
(PID.TID 0000.0001)  ploadbar=  1.01083244598754E+05
 cg2d: Sum(rhs),rhsMax =  -6.82700229574685E+01  1.56676466103796E+00
(PID.TID 0000.0001)  ploadbar=  1.01084602475106E+05
 cg2d: Sum(rhs),rhsMax =  -6.82002808620116E+01  1.56783460140658E+00
(PID.TID 0000.0001)  ploadbar=  1.01085960351457E+05
 cg2d: Sum(rhs),rhsMax =  -6.80262797214456E+01  1.57129195352547E+00
(PID.TID 0000.0001)  ploadbar=  1.01087318227809E+05
 cg2d: Sum(rhs),rhsMax =  -6.77847298927228E+01  1.57631017602702E+00
(PID.TID 0000.0001)  ploadbar=  1.01088676104160E+05
 cg2d: Sum(rhs),rhsMax =  -6.75053543701040E+01  1.58221786621700E+00
(PID.TID 0000.0001)  ploadbar=  1.01090033980512E+05
 cg2d: Sum(rhs),rhsMax =  -6.72306861597306E+01  1.58812123761186E+00
(PID.TID 0000.0001)  ploadbar=  1.01091270570684E+05
 cg2d: Sum(rhs),rhsMax =  -6.69300701781481E+01  1.59474293438785E+00
(PID.TID 0000.0001)  ploadbar=  1.01092507160856E+05
 cg2d: Sum(rhs),rhsMax =  -6.66093649046846E+01  1.60195374821814E+00
(PID.TID 0000.0001)  ploadbar=  1.01093743751029E+05
 cg2d: Sum(rhs),rhsMax =  -6.62689666052724E+01  1.60975253526418E+00
(PID.TID 0000.0001)  ploadbar=  1.01094980341201E+05
 cg2d: Sum(rhs),rhsMax =  -6.59053827799977E+01  1.61823592069955E+00
(PID.TID 0000.0001)  ploadbar=  1.01096216931373E+05
 cg2d: Sum(rhs),rhsMax =  -6.55173768520682E+01  1.62744767841228E+00
(PID.TID 0000.0001)  ploadbar=  1.01097453521545E+05
 cg2d: Sum(rhs),rhsMax =  -6.51017805483244E+01  1.63747466678424E+00
(PID.TID 0000.0001)  ploadbar=  1.01097182380302E+05
 cg2d: Sum(rhs),rhsMax =  -6.46891285924143E+01  1.64756536769454E+00
(PID.TID 0000.0001)  ploadbar=  1.01096911239060E+05
 cg2d: Sum(rhs),rhsMax =  -6.42926592812583E+01  1.65737223839148E+00
(PID.TID 0000.0001)  ploadbar=  1.01096640097817E+05
 cg2d: Sum(rhs),rhsMax =  -6.39245253115552E+01  1.66656188248118E+00
(PID.TID 0000.0001)  ploadbar=  1.01096368956574E+05
 cg2d: Sum(rhs),rhsMax =  -6.35928861721411E+01  1.67489009413568E+00
(PID.TID 0000.0001)  ploadbar=  1.01096097815331E+05
 cg2d: Sum(rhs),rhsMax =  -6.33043021121967E+01  1.68214734143798E+00
(PID.TID 0000.0001)  ploadbar=  1.01095826674088E+05
 cg2d: Sum(rhs),rhsMax =  -6.30839594478533E+01  1.68768429143210E+00
(PID.TID 0000.0001)  ploadbar=  1.01093779344615E+05
 cg2d: Sum(rhs),rhsMax =  -6.29181446268059E+01  1.69182529906862E+00
(PID.TID 0000.0001)  ploadbar=  1.01091732015141E+05
 cg2d: Sum(rhs),rhsMax =  -6.28119373168026E+01  1.69440872188234E+00
(PID.TID 0000.0001)  ploadbar=  1.01089684685668E+05
 cg2d: Sum(rhs),rhsMax =  -6.27631147678554E+01  1.69547275938338E+00
(PID.TID 0000.0001)  ploadbar=  1.01087637356194E+05
 cg2d: Sum(rhs),rhsMax =  -6.27689030893162E+01  1.69507733469730E+00
(PID.TID 0000.0001)  ploadbar=  1.01085590026720E+05
 cg2d: Sum(rhs),rhsMax =  -6.28284757421250E+01  1.69324107045543E+00
(PID.TID 0000.0001)  ploadbar=  1.01083542697247E+05
 cg2d: Sum(rhs),rhsMax =  -6.29499420344005E+01  1.68973451001953E+00
(PID.TID 0000.0001)  ploadbar=  1.01082221798952E+05
 cg2d: Sum(rhs),rhsMax =  -6.31216462616818E+01  1.68488309803539E+00
(PID.TID 0000.0001)  ploadbar=  1.01080900900658E+05
 cg2d: Sum(rhs),rhsMax =  -6.33286977744748E+01  1.67909721462010E+00
(PID.TID 0000.0001)  ploadbar=  1.01079580002363E+05
 cg2d: Sum(rhs),rhsMax =  -6.35588196310098E+01  1.67271712100846E+00
(PID.TID 0000.0001)  ploadbar=  1.01078259104068E+05
 cg2d: Sum(rhs),rhsMax =  -6.38001848927649E+01  1.66605583738905E+00
(PID.TID 0000.0001)  ploadbar=  1.01076938205774E+05
 cg2d: Sum(rhs),rhsMax =  -6.40432216404163E+01  1.65936482098505E+00
(PID.TID 0000.0001)  ploadbar=  1.01075617307479E+05
 cg2d: Sum(rhs),rhsMax =  -6.42759499344253E+01  1.65301343232349E+00
(PID.TID 0000.0001)  ploadbar=  1.01074143934982E+05
 cg2d: Sum(rhs),rhsMax =  -6.45098105848056E+01  1.64669656229093E+00
(PID.TID 0000.0001)  ploadbar=  1.01072670562484E+05
 cg2d: Sum(rhs),rhsMax =  -6.47603719008910E+01  1.64001420272815E+00
(PID.TID 0000.0001)  ploadbar=  1.01071197189987E+05
 cg2d: Sum(rhs),rhsMax =  -6.50376883790807E+01  1.63271936400071E+00
(PID.TID 0000.0001)  ploadbar=  1.01069723817489E+05
 cg2d: Sum(rhs),rhsMax =  -6.53459837858445E+01  1.62471801541801E+00
(PID.TID 0000.0001)  ploadbar=  1.01068250444991E+05
 cg2d: Sum(rhs),rhsMax =  -6.56898437751939E+01  1.61591414376771E+00
(PID.TID 0000.0001)  ploadbar=  1.01066777072494E+05
 cg2d: Sum(rhs),rhsMax =  -6.60518844050174E+01  1.60677438170132E+00
(PID.TID 0000.0001)  ploadbar=  1.01065735262939E+05
 cg2d: Sum(rhs),rhsMax =  -6.64613614798040E+01  1.59660340904100E+00
(PID.TID 0000.0001)  ploadbar=  1.01064693453383E+05
 cg2d: Sum(rhs),rhsMax =  -6.68921713185569E+01  1.58605578039601E+00
(PID.TID 0000.0001)  ploadbar=  1.01063651643828E+05
 cg2d: Sum(rhs),rhsMax =  -6.73483884166390E+01  1.57504907836432E+00
(PID.TID 0000.0001)  ploadbar=  1.01062609834273E+05
 cg2d: Sum(rhs),rhsMax =  -6.78354882339188E+01  1.56347519176403E+00
(PID.TID 0000.0001)  ploadbar=  1.01061568024718E+05
 cg2d: Sum(rhs),rhsMax =  -6.83495602675756E+01  1.55144663021042E+00
(PID.TID 0000.0001)  ploadbar=  1.01060526215162E+05
 cg2d: Sum(rhs),rhsMax =  -6.88406542526017E+01  1.54010724801028E+00
(PID.TID 0000.0001)  ploadbar=  1.01058557142878E+05
 cg2d: Sum(rhs),rhsMax =  -6.93944409378815E+01  1.52754032380275E+00
(PID.TID 0000.0001)  ploadbar=  1.01056588070593E+05
 cg2d: Sum(rhs),rhsMax =  -7.00046736950816E+01  1.51394154207114E+00
(PID.TID 0000.0001)  ploadbar=  1.01054618998309E+05
 cg2d: Sum(rhs),rhsMax =  -7.06709507818835E+01  1.49937097881367E+00
(PID.TID 0000.0001)  ploadbar=  1.01052649926024E+05
 cg2d: Sum(rhs),rhsMax =  -7.13728509105174E+01  1.48430796541080E+00
(PID.TID 0000.0001)  ploadbar=  1.01050680853739E+05
 cg2d: Sum(rhs),rhsMax =  -7.20765563527661E+01  1.46947416733348E+00
(PID.TID 0000.0001)  ploadbar=  1.01048711781455E+05
 cg2d: Sum(rhs),rhsMax =  -7.28124598200565E+01  1.45425397670678E+00
(PID.TID 0000.0001)  ploadbar=  1.01046485147899E+05
 cg2d: Sum(rhs),rhsMax =  -7.36695393297981E+01  1.43694153248031E+00
(PID.TID 0000.0001)  ploadbar=  1.01044258514342E+05
 cg2d: Sum(rhs),rhsMax =  -7.46983542330406E+01  1.41673151145059E+00
(PID.TID 0000.0001)  ploadbar=  1.01042031880786E+05
 cg2d: Sum(rhs),rhsMax =  -7.59299755249757E+01  1.39330458520259E+00
(PID.TID 0000.0001)  ploadbar=  1.01039805247230E+05
 cg2d: Sum(rhs),rhsMax =  -7.73053443018914E+01  1.36804002725117E+00
(PID.TID 0000.0001)  ploadbar=  1.01037578613673E+05
 cg2d: Sum(rhs),rhsMax =  -7.86361676469145E+01  1.34438031084701E+00
(PID.TID 0000.0001)  ploadbar=  1.01035351980117E+05
 cg2d: Sum(rhs),rhsMax =  -7.99386075372715E+01  1.32201260987882E+00
(PID.TID 0000.0001)  ploadbar=  1.01034186179004E+05
 cg2d: Sum(rhs),rhsMax =  -8.12687961498878E+01  1.29994987008780E+00
(PID.TID 0000.0001)  ploadbar=  1.01033020377891E+05
 cg2d: Sum(rhs),rhsMax =  -8.19857670651156E+01  1.28819081802512E+00
(PID.TID 0000.0001)  ploadbar=  1.01031854576778E+05
 cg2d: Sum(rhs),rhsMax =  -8.13344717077304E+01  1.29813776965409E+00
(PID.TID 0000.0001)  ploadbar=  1.01030688775665E+05
 cg2d: Sum(rhs),rhsMax =  -8.09140400266302E+01  1.30453484513776E+00
(PID.TID 0000.0001)  ploadbar=  1.01029522974552E+05
 cg2d: Sum(rhs),rhsMax =  -8.07282840607848E+01  1.30720776149408E+00
(PID.TID 0000.0001)  ploadbar=  1.01028357173439E+05
 cg2d: Sum(rhs),rhsMax =  -8.11287796477479E+01  1.30044091787160E+00
(PID.TID 0000.0001)  ploadbar=  1.01027275732797E+05
 cg2d: Sum(rhs),rhsMax =  -8.10671331587633E+01  1.30112554593011E+00
(PID.TID 0000.0001)  ploadbar=  1.01026194292156E+05
 cg2d: Sum(rhs),rhsMax =  -8.06513326317263E+01  1.30753186209610E+00
(PID.TID 0000.0001)  ploadbar=  1.01025112851514E+05
 cg2d: Sum(rhs),rhsMax =  -8.01475236630117E+01  1.31544891565984E+00
(PID.TID 0000.0001)  ploadbar=  1.01024031410873E+05
 cg2d: Sum(rhs),rhsMax =  -7.95636813385701E+01  1.32479738501060E+00
(PID.TID 0000.0001)  ploadbar=  1.01022949970231E+05
 cg2d: Sum(rhs),rhsMax =  -7.89548280436203E+01  1.33470457345260E+00
(PID.TID 0000.0001)  ploadbar=  1.01021868529590E+05
 cg2d: Sum(rhs),rhsMax =  -7.84301169706163E+01  1.34333301304541E+00
(PID.TID 0000.0001)  ploadbar=  1.01019493177638E+05
 cg2d: Sum(rhs),rhsMax =  -7.80296931369044E+01  1.34993144574385E+00
(PID.TID 0000.0001)  ploadbar=  1.01017117825685E+05
 cg2d: Sum(rhs),rhsMax =  -7.76975178052185E+01  1.35540955550058E+00
(PID.TID 0000.0001)  ploadbar=  1.01014742473733E+05
 cg2d: Sum(rhs),rhsMax =  -7.74199392201827E+01  1.35997232971397E+00
(PID.TID 0000.0001)  ploadbar=  1.01012367121780E+05
 cg2d: Sum(rhs),rhsMax =  -7.71928434161876E+01  1.36366824089886E+00
(PID.TID 0000.0001)  ploadbar=  1.01009991769828E+05
 cg2d: Sum(rhs),rhsMax =  -7.70138051399573E+01  1.36652244545607E+00
(PID.TID 0000.0001)  ploadbar=  1.01007616417876E+05
 cg2d: Sum(rhs),rhsMax =  -7.69167657944026E+01  1.36789602922971E+00
(PID.TID 0000.0001)  ploadbar=  1.01006686297017E+05
 cg2d: Sum(rhs),rhsMax =  -7.67877918805878E+01  1.36980822159169E+00
(PID.TID 0000.0001)  ploadbar=  1.01005756176158E+05
 cg2d: Sum(rhs),rhsMax =  -7.65782717721566E+01  1.37313290338415E+00
(PID.TID 0000.0001)  ploadbar=  1.01004826055300E+05
 cg2d: Sum(rhs),rhsMax =  -7.63268025787020E+01  1.37718957663458E+00
(PID.TID 0000.0001)  ploadbar=  1.01003895934441E+05
 cg2d: Sum(rhs),rhsMax =  -7.60587639521552E+01  1.38152748583805E+00
(PID.TID 0000.0001)  ploadbar=  1.01002965813583E+05
 cg2d: Sum(rhs),rhsMax =  -7.57845663213187E+01  1.38595968682578E+00
(PID.TID 0000.0001)  ploadbar=  1.01002035692724E+05
 cg2d: Sum(rhs),rhsMax =  -7.55577386893359E+01  1.38960856045386E+00
(PID.TID 0000.0001)  ploadbar=  1.01002088671689E+05
 cg2d: Sum(rhs),rhsMax =  -7.53727240937169E+01  1.39256320767984E+00
(PID.TID 0000.0001)  ploadbar=  1.01002141650654E+05
 cg2d: Sum(rhs),rhsMax =  -7.51780004130533E+01  1.39576545747528E+00
(PID.TID 0000.0001)  ploadbar=  1.01002194629619E+05
 cg2d: Sum(rhs),rhsMax =  -7.49897813694169E+01  1.39890871927379E+00
(PID.TID 0000.0001)  ploadbar=  1.01002247608584E+05
 cg2d: Sum(rhs),rhsMax =  -7.48064955933764E+01  1.40201640473517E+00
(PID.TID 0000.0001)  ploadbar=  1.01002300587549E+05
 cg2d: Sum(rhs),rhsMax =  -7.46024268663448E+01  1.40557012063919E+00
(PID.TID 0000.0001)  ploadbar=  1.01002353566514E+05
 cg2d: Sum(rhs),rhsMax =  -7.43975226021057E+01  1.40917086840930E+00
(PID.TID 0000.0001)  ploadbar=  1.01002084293769E+05
 cg2d: Sum(rhs),rhsMax =  -7.42078032939386E+01  1.41251366326763E+00
(PID.TID 0000.0001)  ploadbar=  1.01001815021024E+05
 cg2d: Sum(rhs),rhsMax =  -7.39783655146209E+01  1.41664217699342E+00
(PID.TID 0000.0001)  ploadbar=  1.01001545748279E+05
 cg2d: Sum(rhs),rhsMax =  -7.41234765421296E+01  1.41362311675725E+00
(PID.TID 0000.0001)  ploadbar=  1.01001276475534E+05
 cg2d: Sum(rhs),rhsMax =  -6.98024246422620E+01  1.50087420844457E+00
(PID.TID 0000.0001)  ploadbar=  1.01001007202789E+05
 cg2d: Sum(rhs),rhsMax =  -6.18676242072889E+01  1.69307733751043E+00
(PID.TID 0000.0001)  ploadbar=  1.01000737930044E+05
 cg2d: Sum(rhs),rhsMax =  -5.45246782742896E+01  1.92076352048082E+00
(PID.TID 0000.0001)  ploadbar=  1.01000696353111E+05
 cg2d: Sum(rhs),rhsMax =  -4.94497287145296E+01  2.11753409018405E+00
(PID.TID 0000.0001)  ploadbar=  1.01000654776179E+05
 cg2d: Sum(rhs),rhsMax =  -4.52428260992257E+01  2.31404170387353E+00
(PID.TID 0000.0001)  ploadbar=  1.01000613199246E+05
 cg2d: Sum(rhs),rhsMax =  -4.21552395969099E+01  2.48309616283307E+00
(PID.TID 0000.0001)  ploadbar=  1.01000571622314E+05
 cg2d: Sum(rhs),rhsMax =  -3.92941561283953E+01  2.66340684426087E+00
(PID.TID 0000.0001)  ploadbar=  1.01000530045381E+05
 cg2d: Sum(rhs),rhsMax =  -3.71523169764006E+01  2.81640456677727E+00
(PID.TID 0000.0001)  ploadbar=  1.01000488468449E+05
 cg2d: Sum(rhs),rhsMax =  -3.57866100908739E+01  2.92327842149512E+00
(PID.TID 0000.0001)  ploadbar=  1.01000887906104E+05
 cg2d: Sum(rhs),rhsMax =  -3.48070276785703E+01  3.00488367709166E+00
(PID.TID 0000.0001)  ploadbar=  1.01001287343759E+05
 cg2d: Sum(rhs),rhsMax =  -3.42572106093278E+01  3.05238964960805E+00
(PID.TID 0000.0001)  ploadbar=  1.01001686781415E+05
 cg2d: Sum(rhs),rhsMax =  -3.40869742032470E+01  3.06685766181332E+00
(PID.TID 0000.0001)  ploadbar=  1.01002086219070E+05
 cg2d: Sum(rhs),rhsMax =  -3.42317206562880E+01  3.05306301368677E+00
(PID.TID 0000.0001)  ploadbar=  1.01002485656725E+05
 cg2d: Sum(rhs),rhsMax =  -3.47004339833650E+01  3.01094952049404E+00
(PID.TID 0000.0001)  ploadbar=  1.01002885094381E+05
 cg2d: Sum(rhs),rhsMax =  -3.54582645071870E+01  2.94582519514190E+00
(PID.TID 0000.0001)  ploadbar=  1.01002356310882E+05
 cg2d: Sum(rhs),rhsMax =  -3.64770148040255E+01  2.86287361136663E+00
(PID.TID 0000.0001)  ploadbar=  1.01001827527384E+05
 cg2d: Sum(rhs),rhsMax =  -3.76820993423556E+01  2.77072707570726E+00
(PID.TID 0000.0001)  ploadbar=  1.01001298743885E+05
 cg2d: Sum(rhs),rhsMax =  -3.92212398707053E+01  2.66148552207524E+00
(PID.TID 0000.0001)  ploadbar=  1.01000769960387E+05
 cg2d: Sum(rhs),rhsMax =  -4.09865582226263E+01  2.54640836987697E+00
(PID.TID 0000.0001)  ploadbar=  1.01000241176888E+05
 cg2d: Sum(rhs),rhsMax =  -4.28772762223710E+01  2.43372994196385E+00
(PID.TID 0000.0001)  ploadbar=  1.00999712393390E+05
 cg2d: Sum(rhs),rhsMax =  -4.48032888753141E+01  2.32875321067101E+00
(PID.TID 0000.0001)  ploadbar=  1.01000629195126E+05
 cg2d: Sum(rhs),rhsMax =  -4.67281006481187E+01  2.23250139169213E+00
(PID.TID 0000.0001)  ploadbar=  1.01001545996862E+05
 cg2d: Sum(rhs),rhsMax =  -4.86292580886031E+01  2.14491833584092E+00
(PID.TID 0000.0001)  ploadbar=  1.01002462798598E+05
 cg2d: Sum(rhs),rhsMax =  -5.05978199275297E+01  2.06118100021971E+00
(PID.TID 0000.0001)  ploadbar=  1.01003379600334E+05
 cg2d: Sum(rhs),rhsMax =  -4.84917314759480E+01  2.15040208084778E+00
(PID.TID 0000.0001)  ploadbar=  1.01004296402071E+05
 cg2d: Sum(rhs),rhsMax =  -4.56374515947902E+01  2.28456758032338E+00
(PID.TID 0000.0001)  ploadbar=  1.01005213203807E+05
 cg2d: Sum(rhs),rhsMax =  -4.34231471329133E+01  2.40071449228910E+00
(PID.TID 0000.0001)  ploadbar=  1.01005952425574E+05
 cg2d: Sum(rhs),rhsMax =  -4.16718224630422E+01  2.50122201698116E+00
(PID.TID 0000.0001)  ploadbar=  1.01006691647341E+05
 cg2d: Sum(rhs),rhsMax =  -4.02489015045218E+01  2.58921870373834E+00
(PID.TID 0000.0001)  ploadbar=  1.01007430869108E+05
 cg2d: Sum(rhs),rhsMax =  -3.90738377671925E+01  2.66660299300660E+00
(PID.TID 0000.0001)  ploadbar=  1.01008170090876E+05
 cg2d: Sum(rhs),rhsMax =  -3.80922734216436E+01  2.73477209817607E+00
(PID.TID 0000.0001)  ploadbar=  1.01008909312643E+05
 cg2d: Sum(rhs),rhsMax =  -3.72628946320986E+01  2.79501897817786E+00
(PID.TID 0000.0001)  ploadbar=  1.01009648534410E+05
 cg2d: Sum(rhs),rhsMax =  -3.65190675157287E+01  2.85126649337996E+00
(PID.TID 0000.0001)  ploadbar=  1.01010365342816E+05
 cg2d: Sum(rhs),rhsMax =  -3.58570847585397E+01  2.90315827440065E+00
(PID.TID 0000.0001)  ploadbar=  1.01011082151222E+05
 cg2d: Sum(rhs),rhsMax =  -3.54501026914412E+01  2.93567284192688E+00
(PID.TID 0000.0001)  ploadbar=  1.01011798959628E+05
 cg2d: Sum(rhs),rhsMax =  -3.52552304655900E+01  2.95101234773266E+00
(PID.TID 0000.0001)  ploadbar=  1.01012515768035E+05
 cg2d: Sum(rhs),rhsMax =  -3.51877269045149E+01  2.95571510602153E+00
(PID.TID 0000.0001)  ploadbar=  1.01013232576441E+05
 cg2d: Sum(rhs),rhsMax =  -3.51441033945898E+01  2.95834650268687E+00
(PID.TID 0000.0001)  ploadbar=  1.01013949384847E+05
 cg2d: Sum(rhs),rhsMax =  -3.51284886475673E+01  2.95873364812029E+00
(PID.TID 0000.0001)  ploadbar=  1.01014010139742E+05
 cg2d: Sum(rhs),rhsMax =  -3.51388165861947E+01  2.95703923581197E+00
(PID.TID 0000.0001)  ploadbar=  1.01014070894638E+05
 cg2d: Sum(rhs),rhsMax =  -3.51713511432315E+01  2.95357444145676E+00
(PID.TID 0000.0001)  ploadbar=  1.01014131649533E+05
 cg2d: Sum(rhs),rhsMax =  -3.52343993057061E+01  2.94764759262170E+00
(PID.TID 0000.0001)  ploadbar=  1.01014192404428E+05
 cg2d: Sum(rhs),rhsMax =  -3.53281678162549E+01  2.93926093521921E+00
(PID.TID 0000.0001)  ploadbar=  1.01014253159324E+05
 cg2d: Sum(rhs),rhsMax =  -3.54486680422810E+01  2.92877665563607E+00
(PID.TID 0000.0001)  ploadbar=  1.01014313914219E+05
 cg2d: Sum(rhs),rhsMax =  -3.56251384487392E+01  2.91376437257822E+00
(PID.TID 0000.0001)  ploadbar=  1.01016147119366E+05
 cg2d: Sum(rhs),rhsMax =  -3.58261352073625E+01  2.89689408051099E+00
(PID.TID 0000.0001)  ploadbar=  1.01017980324513E+05
 cg2d: Sum(rhs),rhsMax =  -3.60465740626115E+01  2.87862976135556E+00
(PID.TID 0000.0001)  ploadbar=  1.01019813529660E+05
 cg2d: Sum(rhs),rhsMax =  -3.62817356809722E+01  2.85938847375696E+00
(PID.TID 0000.0001)  ploadbar=  1.01021646734807E+05
 cg2d: Sum(rhs),rhsMax =  -3.65276871614309E+01  2.83951593884417E+00
(PID.TID 0000.0001)  ploadbar=  1.01023479939954E+05
 cg2d: Sum(rhs),rhsMax =  -3.67816071500165E+01  2.81925336891999E+00
(PID.TID 0000.0001)  ploadbar=  1.01025313145101E+05
 cg2d: Sum(rhs),rhsMax =  -3.70345335433453E+01  2.79938210293264E+00
(PID.TID 0000.0001)  ploadbar=  1.01027691607735E+05
 cg2d: Sum(rhs),rhsMax =  -3.72951013390200E+01  2.77923233243518E+00
(PID.TID 0000.0001)  ploadbar=  1.01030070070369E+05
 cg2d: Sum(rhs),rhsMax =  -3.75623272546816E+01  2.75888602855529E+00
(PID.TID 0000.0001)  ploadbar=  1.01032448533003E+05
 cg2d: Sum(rhs),rhsMax =  -3.78363003515668E+01  2.73834835719389E+00
(PID.TID 0000.0001)  ploadbar=  1.01034826995637E+05
 cg2d: Sum(rhs),rhsMax =  -3.81173671249143E+01  2.71760095647104E+00
(PID.TID 0000.0001)  ploadbar=  1.01037205458271E+05
 cg2d: Sum(rhs),rhsMax =  -3.84049076393821E+01  2.69669398794732E+00
(PID.TID 0000.0001)  ploadbar=  1.01039583920905E+05
 cg2d: Sum(rhs),rhsMax =  -3.87055718430278E+01  2.67517204885560E+00
(PID.TID 0000.0001)  ploadbar=  1.01041229190506E+05
 cg2d: Sum(rhs),rhsMax =  -3.90159297670869E+01  2.65329995356086E+00
(PID.TID 0000.0001)  ploadbar=  1.01042874460107E+05
 cg2d: Sum(rhs),rhsMax =  -3.93365732090356E+01  2.63105729993861E+00
(PID.TID 0000.0001)  ploadbar=  1.01044519729709E+05
 cg2d: Sum(rhs),rhsMax =  -3.96673299376433E+01  2.60847486121619E+00
(PID.TID 0000.0001)  ploadbar=  1.01046164999310E+05
 cg2d: Sum(rhs),rhsMax =  -4.00080319471686E+01  2.58557949037263E+00
(PID.TID 0000.0001)  ploadbar=  1.01047810268911E+05
 cg2d: Sum(rhs),rhsMax =  -4.03583395152259E+01  2.56240987569914E+00
(PID.TID 0000.0001)  ploadbar=  1.01049455538512E+05
 cg2d: Sum(rhs),rhsMax =  -4.07085165606301E+01  2.53969939037292E+00
(PID.TID 0000.0001)  ploadbar=  1.01051461323973E+05
 cg2d: Sum(rhs),rhsMax =  -4.10668073238797E+01  2.51692326612488E+00
(PID.TID 0000.0001)  ploadbar=  1.01053467109433E+05
 cg2d: Sum(rhs),rhsMax =  -4.14303206118810E+01  2.49426233885631E+00
(PID.TID 0000.0001)  ploadbar=  1.01055472894893E+05
 cg2d: Sum(rhs),rhsMax =  -4.18003714825680E+01  2.47163708807320E+00
(PID.TID 0000.0001)  ploadbar=  1.01057478680354E+05
 cg2d: Sum(rhs),rhsMax =  -4.21773891518394E+01  2.44902029597372E+00
(PID.TID 0000.0001)  ploadbar=  1.01059484465814E+05
 cg2d: Sum(rhs),rhsMax =  -4.25623359383882E+01  2.42635821900811E+00
(PID.TID 0000.0001)  ploadbar=  1.01061490251275E+05
 cg2d: Sum(rhs),rhsMax =  -4.29593541813208E+01  2.40338850214714E+00
(PID.TID 0000.0001)  ploadbar=  1.01063246779660E+05
 cg2d: Sum(rhs),rhsMax =  -4.33577470864953E+01  2.38072085787974E+00
(PID.TID 0000.0001)  ploadbar=  1.01065003308045E+05
 cg2d: Sum(rhs),rhsMax =  -4.37628203933507E+01  2.35805742033198E+00
(PID.TID 0000.0001)  ploadbar=  1.01066759836430E+05
 cg2d: Sum(rhs),rhsMax =  -4.41728595735936E+01  2.33549367455385E+00
(PID.TID 0000.0001)  ploadbar=  1.01068516364815E+05
 cg2d: Sum(rhs),rhsMax =  -4.45898925599965E+01  2.31292357800535E+00
(PID.TID 0000.0001)  ploadbar=  1.01070272893201E+05
 cg2d: Sum(rhs),rhsMax =  -4.50140438282028E+01  2.29034671700734E+00
(PID.TID 0000.0001)  ploadbar=  1.01072029421586E+05
 cg2d: Sum(rhs),rhsMax =  -4.54443471187844E+01  2.26792664692973E+00
(PID.TID 0000.0001)  ploadbar=  1.01073260296643E+05
 cg2d: Sum(rhs),rhsMax =  -4.58764673874135E+01  2.24586823453725E+00
(PID.TID 0000.0001)  ploadbar=  1.01074491171700E+05
 cg2d: Sum(rhs),rhsMax =  -4.63093239163637E+01  2.22420922537531E+00
(PID.TID 0000.0001)  ploadbar=  1.01075722046757E+05
 cg2d: Sum(rhs),rhsMax =  -4.67391715303291E+01  2.20310856290876E+00
(PID.TID 0000.0001)  ploadbar=  1.01076952921814E+05
 cg2d: Sum(rhs),rhsMax =  -4.71609095383413E+01  2.18277678041705E+00
(PID.TID 0000.0001)  ploadbar=  1.01078183796871E+05
 cg2d: Sum(rhs),rhsMax =  -4.75662499968151E+01  2.16355126915565E+00
(PID.TID 0000.0001)  ploadbar=  1.01079414671928E+05
 cg2d: Sum(rhs),rhsMax =  -4.79660214747707E+01  2.14487813101402E+00
(PID.TID 0000.0001)  ploadbar=  1.01080233914893E+05
 cg2d: Sum(rhs),rhsMax =  -4.83482908666504E+01  2.12725769907406E+00
(PID.TID 0000.0001)  ploadbar=  1.01081053157858E+05
 cg2d: Sum(rhs),rhsMax =  -4.87100589322174E+01  2.11076658550123E+00
(PID.TID 0000.0001)  ploadbar=  1.01081872400823E+05
 cg2d: Sum(rhs),rhsMax =  -4.90475358339862E+01  2.09550971405780E+00
(PID.TID 0000.0001)  ploadbar=  1.01082691643788E+05
 cg2d: Sum(rhs),rhsMax =  -4.93623794419977E+01  2.08136418311793E+00
(PID.TID 0000.0001)  ploadbar=  1.01083510886753E+05
 cg2d: Sum(rhs),rhsMax =  -4.96565885615390E+01  2.06820048022484E+00
(PID.TID 0000.0001)  ploadbar=  1.01084330129718E+05
 cg2d: Sum(rhs),rhsMax =  -4.99394462306835E+01  2.05573778165544E+00
(PID.TID 0000.0001)  ploadbar=  1.01084636131699E+05
 cg2d: Sum(rhs),rhsMax =  -5.02279166001620E+01  2.04326330381629E+00
(PID.TID 0000.0001)  ploadbar=  1.01084942133680E+05
 cg2d: Sum(rhs),rhsMax =  -5.04938911798327E+01  2.03190467847246E+00
(PID.TID 0000.0001)  ploadbar=  1.01085248135661E+05
 cg2d: Sum(rhs),rhsMax =  -5.07483205921575E+01  2.02118617000218E+00
(PID.TID 0000.0001)  ploadbar=  1.01085554137641E+05
 cg2d: Sum(rhs),rhsMax =  -5.09996891034865E+01  2.01074823365156E+00
(PID.TID 0000.0001)  ploadbar=  1.01085860139622E+05
 cg2d: Sum(rhs),rhsMax =  -5.12386921622092E+01  2.00094649788283E+00
(PID.TID 0000.0001)  ploadbar=  1.01086166141603E+05
 cg2d: Sum(rhs),rhsMax =  -5.14651245366658E+01  1.99172082324757E+00
(PID.TID 0000.0001)  ploadbar=  1.01085337284306E+05
 cg2d: Sum(rhs),rhsMax =  -5.16504139109606E+01  1.98414926826405E+00
(PID.TID 0000.0001)  ploadbar=  1.01084508427009E+05
 cg2d: Sum(rhs),rhsMax =  -5.17682361200295E+01  1.97919607116780E+00
(PID.TID 0000.0001)  ploadbar=  1.01083679569712E+05
 cg2d: Sum(rhs),rhsMax =  -5.18384130998844E+01  1.97606435516199E+00
(PID.TID 0000.0001)  ploadbar=  1.01082850712415E+05
 cg2d: Sum(rhs),rhsMax =  -5.18873326265022E+01  1.97372374916805E+00
(PID.TID 0000.0001)  ploadbar=  1.01082021855118E+05
 cg2d: Sum(rhs),rhsMax =  -5.19261093210638E+01  1.97174029143358E+00
(PID.TID 0000.0001)  ploadbar=  1.01081192997821E+05
 cg2d: Sum(rhs),rhsMax =  -5.19370559016299E+01  1.97086282199670E+00
(PID.TID 0000.0001)  ploadbar=  1.01079912296023E+05
 cg2d: Sum(rhs),rhsMax =  -5.19576033442777E+01  1.96966487531376E+00
(PID.TID 0000.0001)  ploadbar=  1.01078631594224E+05
 cg2d: Sum(rhs),rhsMax =  -5.19464086857411E+01  1.96970766094445E+00
(PID.TID 0000.0001)  ploadbar=  1.01077350892426E+05
 cg2d: Sum(rhs),rhsMax =  -5.19171686409018E+01  1.97046334302142E+00
(PID.TID 0000.0001)  ploadbar=  1.01076070190628E+05
 cg2d: Sum(rhs),rhsMax =  -5.18671050171867E+01  1.97203251761354E+00
(PID.TID 0000.0001)  ploadbar=  1.01074789488829E+05
 cg2d: Sum(rhs),rhsMax =  -5.17764442913745E+01  1.97516984725823E+00
(PID.TID 0000.0001)  ploadbar=  1.01073508787031E+05
 cg2d: Sum(rhs),rhsMax =  -5.15993195359701E+01  1.98162060933868E+00
(PID.TID 0000.0001)  ploadbar=  1.01073027512709E+05
 cg2d: Sum(rhs),rhsMax =  -5.14140790826542E+01  1.98841629729660E+00
(PID.TID 0000.0001)  ploadbar=  1.01072546238388E+05
 cg2d: Sum(rhs),rhsMax =  -5.12489664369928E+01  1.99445916027862E+00
(PID.TID 0000.0001)  ploadbar=  1.01072064964066E+05
 cg2d: Sum(rhs),rhsMax =  -5.11442143731113E+01  1.99815530446405E+00
(PID.TID 0000.0001)  ploadbar=  1.01071583689745E+05
 cg2d: Sum(rhs),rhsMax =  -5.11382446552827E+01  1.99796779678702E+00
(PID.TID 0000.0001)  ploadbar=  1.01071102415423E+05
 cg2d: Sum(rhs),rhsMax =  -5.12527869172830E+01  1.99304724173090E+00
(PID.TID 0000.0001)  ploadbar=  1.01070621141102E+05
 cg2d: Sum(rhs),rhsMax =  -5.15506114523479E+01  1.98114405153250E+00
(PID.TID 0000.0001)  ploadbar=  1.01070750223783E+05
 cg2d: Sum(rhs),rhsMax =  -5.20933810895866E+01  1.96017899692146E+00
(PID.TID 0000.0001)  ploadbar=  1.01070879306465E+05
 cg2d: Sum(rhs),rhsMax =  -5.22063262507739E+01  1.95567129437640E+00
(PID.TID 0000.0001)  ploadbar=  1.01071008389146E+05
 cg2d: Sum(rhs),rhsMax =  -5.19908077687220E+01  1.96356062712642E+00
(PID.TID 0000.0001)  ploadbar=  1.01071137471827E+05
 cg2d: Sum(rhs),rhsMax =  -5.17387387911175E+01  1.97295318894773E+00
(PID.TID 0000.0001)  ploadbar=  1.01071266554509E+05
 cg2d: Sum(rhs),rhsMax =  -5.14441151250810E+01  1.98411480146521E+00
(PID.TID 0000.0001)  ploadbar=  1.01071395637190E+05
 cg2d: Sum(rhs),rhsMax =  -5.11447269243634E+01  1.99557613436582E+00
(PID.TID 0000.0001)  ploadbar=  1.01072734981630E+05
 cg2d: Sum(rhs),rhsMax =  -5.08357830875817E+01  2.00753079259785E+00
(PID.TID 0000.0001)  ploadbar=  1.01074074326071E+05
 cg2d: Sum(rhs),rhsMax =  -5.05371442535177E+01  2.01919537932532E+00
(PID.TID 0000.0001)  ploadbar=  1.01075413670511E+05
 cg2d: Sum(rhs),rhsMax =  -5.02574121829591E+01  2.03020412322981E+00
(PID.TID 0000.0001)  ploadbar=  1.01076753014951E+05
 cg2d: Sum(rhs),rhsMax =  -5.00006781280227E+01  2.04036128563716E+00
(PID.TID 0000.0001)  ploadbar=  1.01078092359391E+05
 cg2d: Sum(rhs),rhsMax =  -4.97680662598763E+01  2.04958930344223E+00
(PID.TID 0000.0001)  ploadbar=  1.01079431703831E+05
 cg2d: Sum(rhs),rhsMax =  -4.95609886640725E+01  2.05787375491522E+00
(PID.TID 0000.0001)  ploadbar=  1.01079398214477E+05
 cg2d: Sum(rhs),rhsMax =  -4.93715068976999E+01  2.06551618684316E+00
(PID.TID 0000.0001)  ploadbar=  1.01079364725124E+05
 cg2d: Sum(rhs),rhsMax =  -4.91894484570402E+01  2.07292460590497E+00
(PID.TID 0000.0001)  ploadbar=  1.01079331235770E+05
 cg2d: Sum(rhs),rhsMax =  -4.90194609481631E+01  2.07988895573981E+00
(PID.TID 0000.0001)  ploadbar=  1.01079297746417E+05
 cg2d: Sum(rhs),rhsMax =  -4.88655795428220E+01  2.08622429134069E+00
(PID.TID 0000.0001)  ploadbar=  1.01079264257063E+05
 cg2d: Sum(rhs),rhsMax =  -4.87517511971296E+01  2.09088840529104E+00
(PID.TID 0000.0001)  ploadbar=  1.01079230767710E+05
 cg2d: Sum(rhs),rhsMax =  -4.86434818496458E+01  2.09533341544618E+00
(PID.TID 0000.0001)  ploadbar=  1.01079499770181E+05
 cg2d: Sum(rhs),rhsMax =  -4.85632929969243E+01  2.09858061311603E+00
(PID.TID 0000.0001)  ploadbar=  1.01079768772651E+05
 cg2d: Sum(rhs),rhsMax =  -4.85167103388268E+01  2.10037422339132E+00
(PID.TID 0000.0001)  ploadbar=  1.01080037775122E+05
 cg2d: Sum(rhs),rhsMax =  -4.85239940268913E+01  2.09982583505566E+00
(PID.TID 0000.0001)  ploadbar=  1.01080306777593E+05
 cg2d: Sum(rhs),rhsMax =  -4.86135221571437E+01  2.09570794553593E+00
(PID.TID 0000.0001)  ploadbar=  1.01080575780064E+05
 cg2d: Sum(rhs),rhsMax =  -4.88089819992311E+01  2.08704514416106E+00
(PID.TID 0000.0001)  ploadbar=  1.01080844782535E+05
 cg2d: Sum(rhs),rhsMax =  -4.90476007943750E+01  2.07667467422405E+00
(PID.TID 0000.0001)  ploadbar=  1.01079508708155E+05
 cg2d: Sum(rhs),rhsMax =  -4.93369778923517E+01  2.06432915317867E+00
(PID.TID 0000.0001)  ploadbar=  1.01078172633775E+05
 cg2d: Sum(rhs),rhsMax =  -4.97063023569341E+01  2.04887662240607E+00
(PID.TID 0000.0001)  ploadbar=  1.01076836559395E+05
 cg2d: Sum(rhs),rhsMax =  -5.04473602129038E+01  2.01871333877656E+00
(PID.TID 0000.0001)  ploadbar=  1.01075500485015E+05
 cg2d: Sum(rhs),rhsMax =  -5.13732162599731E+01  1.98230892911203E+00
(PID.TID 0000.0001)  ploadbar=  1.01074164410636E+05
 cg2d: Sum(rhs),rhsMax =  -5.23932592488563E+01  1.94373148239942E+00
(PID.TID 0000.0001)  ploadbar=  1.01072828336256E+05
 cg2d: Sum(rhs),rhsMax =  -5.29900076769806E+01  1.92182119792552E+00
(PID.TID 0000.0001)  ploadbar=  1.01072570594464E+05
 cg2d: Sum(rhs),rhsMax =  -5.30005333100009E+01  1.92137909135900E+00
(PID.TID 0000.0001)  ploadbar=  1.01072312852672E+05
 cg2d: Sum(rhs),rhsMax =  -5.23857210253364E+01  1.94382418011461E+00
(PID.TID 0000.0001)  ploadbar=  1.01072055110879E+05
 cg2d: Sum(rhs),rhsMax =  -5.24173167604675E+01  1.94250122646074E+00
(PID.TID 0000.0001)  ploadbar=  1.01071797369087E+05
 cg2d: Sum(rhs),rhsMax =  -5.18312422363735E+01  1.96426350469324E+00
(PID.TID 0000.0001)  ploadbar=  1.01071539627295E+05
 cg2d: Sum(rhs),rhsMax =  -5.10508360448632E+01  1.99403639243365E+00
(PID.TID 0000.0001)  ploadbar=  1.01071281885503E+05
 cg2d: Sum(rhs),rhsMax =  -5.02867735455618E+01  2.02408364234420E+00
(PID.TID 0000.0001)  ploadbar=  1.01070540366926E+05
 cg2d: Sum(rhs),rhsMax =  -4.95554929123797E+01  2.05370029633709E+00
(PID.TID 0000.0001)  ploadbar=  1.01069798848349E+05
 cg2d: Sum(rhs),rhsMax =  -4.88467596406812E+01  2.08324010282659E+00
(PID.TID 0000.0001)  ploadbar=  1.01069057329773E+05
 cg2d: Sum(rhs),rhsMax =  -4.81575733943696E+01  2.11278437405777E+00
(PID.TID 0000.0001)  ploadbar=  1.01068315811196E+05
 cg2d: Sum(rhs),rhsMax =  -4.67089554634751E+01  2.17801640184990E+00
(PID.TID 0000.0001)  ploadbar=  1.01067574292619E+05
 cg2d: Sum(rhs),rhsMax =  -4.45737540213032E+01  2.28202017500241E+00
(PID.TID 0000.0001)  ploadbar=  1.01066832774042E+05
 cg2d: Sum(rhs),rhsMax =  -4.27972731440154E+01  2.37636057007643E+00
(PID.TID 0000.0001)  ploadbar=  1.01066141915548E+05
 cg2d: Sum(rhs),rhsMax =  -4.12999965640954E+01  2.46206948703183E+00
(PID.TID 0000.0001)  ploadbar=  1.01065451057054E+05
 cg2d: Sum(rhs),rhsMax =  -4.01312067207944E+01  2.53326785466581E+00
(PID.TID 0000.0001)  ploadbar=  1.01064760198559E+05
 cg2d: Sum(rhs),rhsMax =  -3.92400802497029E+01  2.59021511090346E+00
(PID.TID 0000.0001)  ploadbar=  1.01064069340065E+05
 cg2d: Sum(rhs),rhsMax =  -3.86064481937375E+01  2.63206483190743E+00
(PID.TID 0000.0001)  ploadbar=  1.01063378481571E+05
 cg2d: Sum(rhs),rhsMax =  -3.79610837814418E+01  2.67605871138714E+00
(PID.TID 0000.0001)  ploadbar=  1.01062687623076E+05
 cg2d: Sum(rhs),rhsMax =  -3.75655442226269E+01  2.70357034097164E+00
(PID.TID 0000.0001)  ploadbar=  1.01062871133530E+05
 cg2d: Sum(rhs),rhsMax =  -3.75176768285929E+01  2.70644411179344E+00
(PID.TID 0000.0001)  ploadbar=  1.01063054643983E+05
 cg2d: Sum(rhs),rhsMax =  -3.78677081778924E+01  2.68094522483537E+00
(PID.TID 0000.0001)  ploadbar=  1.01063238154437E+05
 cg2d: Sum(rhs),rhsMax =  -3.83577433334151E+01  2.64629747449911E+00
(PID.TID 0000.0001)  ploadbar=  1.01063421664890E+05
 cg2d: Sum(rhs),rhsMax =  -3.88096701402288E+01  2.61516084120729E+00
(PID.TID 0000.0001)  ploadbar=  1.01063605175344E+05
 cg2d: Sum(rhs),rhsMax =  -3.91130115727160E+01  2.59462812170780E+00
(PID.TID 0000.0001)  ploadbar=  1.01063788685797E+05
 cg2d: Sum(rhs),rhsMax =  -3.90915714153266E+01  2.59579793449122E+00
(PID.TID 0000.0001)  ploadbar=  1.01063904249148E+05
 cg2d: Sum(rhs),rhsMax =  -3.88346194295123E+01  2.61271240792266E+00
(PID.TID 0000.0001)  ploadbar=  1.01064019812500E+05
 cg2d: Sum(rhs),rhsMax =  -3.84374395814528E+01  2.63943323075049E+00
(PID.TID 0000.0001)  ploadbar=  1.01064135375851E+05
 cg2d: Sum(rhs),rhsMax =  -3.79472564963422E+01  2.67323307228139E+00
(PID.TID 0000.0001)  ploadbar=  1.01064250939202E+05
 cg2d: Sum(rhs),rhsMax =  -3.74241597174826E+01  2.71028074747955E+00
(PID.TID 0000.0001)  ploadbar=  1.01064366502553E+05
 cg2d: Sum(rhs),rhsMax =  -3.68724053337117E+01  2.75049489249262E+00
(PID.TID 0000.0001)  ploadbar=  1.01064482065904E+05
 cg2d: Sum(rhs),rhsMax =  -3.62828541022254E+01  2.79477552450528E+00
(PID.TID 0000.0001)  ploadbar=  1.01065025376384E+05
 cg2d: Sum(rhs),rhsMax =  -3.56366787283119E+01  2.84496047514399E+00
(PID.TID 0000.0001)  ploadbar=  1.01065568686864E+05
 cg2d: Sum(rhs),rhsMax =  -3.49842554392370E+01  2.89744157717937E+00
(PID.TID 0000.0001)  ploadbar=  1.01066111997344E+05
 cg2d: Sum(rhs),rhsMax =  -3.43693664675543E+01  2.94861016434054E+00
(PID.TID 0000.0001)  ploadbar=  1.01066655307824E+05
 cg2d: Sum(rhs),rhsMax =  -3.38159192711055E+01  2.99609932248174E+00
(PID.TID 0000.0001)  ploadbar=  1.01067198618304E+05
 cg2d: Sum(rhs),rhsMax =  -3.33468782550290E+01  3.03736321214086E+00
(PID.TID 0000.0001)  ploadbar=  1.01067741928785E+05
 cg2d: Sum(rhs),rhsMax =  -3.32462248325480E+01  3.04562331469609E+00
(PID.TID 0000.0001)  ploadbar=  1.01068187669685E+05
 cg2d: Sum(rhs),rhsMax =  -3.34394203632245E+01  3.02703772920284E+00
(PID.TID 0000.0001)  ploadbar=  1.01068633410586E+05
 cg2d: Sum(rhs),rhsMax =  -3.35354614867479E+01  3.01731554020211E+00
(PID.TID 0000.0001)  ploadbar=  1.01069079151486E+05
 cg2d: Sum(rhs),rhsMax =  -3.36572819340308E+01  3.00526990940769E+00
(PID.TID 0000.0001)  ploadbar=  1.01069524892387E+05
 cg2d: Sum(rhs),rhsMax =  -3.37963219011733E+01  2.99170207769359E+00
(PID.TID 0000.0001)  ploadbar=  1.01069970633288E+05
 cg2d: Sum(rhs),rhsMax =  -3.39585052402979E+01  2.97612137634201E+00
(PID.TID 0000.0001)  ploadbar=  1.01070416374188E+05
 cg2d: Sum(rhs),rhsMax =  -3.41559315818402E+01  2.95767774968799E+00
(PID.TID 0000.0001)  ploadbar=  1.01071685352178E+05
 cg2d: Sum(rhs),rhsMax =  -3.43869570540249E+01  2.93661193803997E+00
(PID.TID 0000.0001)  ploadbar=  1.01072954330167E+05
 cg2d: Sum(rhs),rhsMax =  -3.46389677063555E+01  2.91409370500071E+00
(PID.TID 0000.0001)  ploadbar=  1.01074223308156E+05
 cg2d: Sum(rhs),rhsMax =  -3.49061452472028E+01  2.89066719332792E+00
(PID.TID 0000.0001)  ploadbar=  1.01075492286146E+05
 cg2d: Sum(rhs),rhsMax =  -3.51807379128878E+01  2.86700426192836E+00
(PID.TID 0000.0001)  ploadbar=  1.01076761264135E+05
 cg2d: Sum(rhs),rhsMax =  -3.54520594087819E+01  2.84397218987317E+00
(PID.TID 0000.0001)  ploadbar=  1.01078030242125E+05
 cg2d: Sum(rhs),rhsMax =  -3.57221541107661E+01  2.82135919539391E+00
(PID.TID 0000.0001)  ploadbar=  1.01079447088565E+05
 cg2d: Sum(rhs),rhsMax =  -3.59834092992810E+01  2.79973944329492E+00
(PID.TID 0000.0001)  ploadbar=  1.01080863935005E+05
 cg2d: Sum(rhs),rhsMax =  -3.62334382357786E+01  2.77925241687625E+00
(PID.TID 0000.0001)  ploadbar=  1.01082280781446E+05
 cg2d: Sum(rhs),rhsMax =  -3.64760466473659E+01  2.75956191850413E+00
(PID.TID 0000.0001)  ploadbar=  1.01083697627886E+05
 cg2d: Sum(rhs),rhsMax =  -3.66976716325658E+01  2.74164743329303E+00
(PID.TID 0000.0001)  ploadbar=  1.01085114474326E+05
 cg2d: Sum(rhs),rhsMax =  -3.68957029201317E+01  2.72563449279029E+00
(PID.TID 0000.0001)  ploadbar=  1.01086531320767E+05
 cg2d: Sum(rhs),rhsMax =  -3.70487570294792E+01  2.71309855940005E+00
(PID.TID 0000.0001)  ploadbar=  1.01087920924903E+05
 cg2d: Sum(rhs),rhsMax =  -3.71702061794146E+01  2.70297201880411E+00
(PID.TID 0000.0001)  ploadbar=  1.01089310529039E+05
 cg2d: Sum(rhs),rhsMax =  -3.72578957233958E+01  2.69535594803788E+00
(PID.TID 0000.0001)  ploadbar=  1.01090700133175E+05
 cg2d: Sum(rhs),rhsMax =  -3.73194786913960E+01  2.68965022710837E+00
(PID.TID 0000.0001)  ploadbar=  1.01092089737311E+05
 cg2d: Sum(rhs),rhsMax =  -3.73674106451326E+01  2.68493315358453E+00
(PID.TID 0000.0001)  ploadbar=  1.01093479341447E+05
 cg2d: Sum(rhs),rhsMax =  -3.74091201741445E+01  2.68065562533912E+00
(PID.TID 0000.0001)  ploadbar=  1.01094868945583E+05
 cg2d: Sum(rhs),rhsMax =  -3.74301877454551E+01  2.67785496262346E+00
(PID.TID 0000.0001)  ploadbar=  1.01095455152549E+05
 cg2d: Sum(rhs),rhsMax =  -3.74535042305363E+01  2.67488436168390E+00
(PID.TID 0000.0001)  ploadbar=  1.01096041359516E+05
 cg2d: Sum(rhs),rhsMax =  -3.74745000452977E+01  2.67206689858345E+00
(PID.TID 0000.0001)  ploadbar=  1.01096627566483E+05
 cg2d: Sum(rhs),rhsMax =  -3.74930100693890E+01  2.66940630620245E+00
(PID.TID 0000.0001)  ploadbar=  1.01097213773449E+05
 cg2d: Sum(rhs),rhsMax =  -3.75081662133992E+01  2.66695794643556E+00
(PID.TID 0000.0001)  ploadbar=  1.01097799980416E+05
 cg2d: Sum(rhs),rhsMax =  -3.75155922991671E+01  2.66502639369810E+00
(PID.TID 0000.0001)  ploadbar=  1.01098386187383E+05
 cg2d: Sum(rhs),rhsMax =  -3.74889881205801E+01  2.66556222189501E+00
(PID.TID 0000.0001)  ploadbar=  1.01098762334951E+05
 cg2d: Sum(rhs),rhsMax =  -3.74520967798056E+01  2.66687811231894E+00
(PID.TID 0000.0001)  ploadbar=  1.01099138482520E+05
 cg2d: Sum(rhs),rhsMax =  -3.74119694103159E+01  2.66847226805233E+00
(PID.TID 0000.0001)  ploadbar=  1.01099514630088E+05
 cg2d: Sum(rhs),rhsMax =  -3.73719566565129E+01  2.67009533375845E+00
(PID.TID 0000.0001)  ploadbar=  1.01099890777657E+05
 cg2d: Sum(rhs),rhsMax =  -3.73351012188536E+01  2.67152019482350E+00
(PID.TID 0000.0001)  ploadbar=  1.01100266925225E+05
 cg2d: Sum(rhs),rhsMax =  -3.73051489580630E+01  2.67246517606450E+00
(PID.TID 0000.0001)  ploadbar=  1.01100643072794E+05
 cg2d: Sum(rhs),rhsMax =  -3.72974333552398E+01  2.67189648377382E+00
(PID.TID 0000.0001)  ploadbar=  1.01100940399897E+05
 cg2d: Sum(rhs),rhsMax =  -3.72779924848574E+01  2.67224103153245E+00
(PID.TID 0000.0001)  ploadbar=  1.01101237727001E+05
 cg2d: Sum(rhs),rhsMax =  -3.72464352478196E+01  2.67351973786341E+00
(PID.TID 0000.0001)  ploadbar=  1.01101535054104E+05
 cg2d: Sum(rhs),rhsMax =  -3.71948283851326E+01  2.67629836341940E+00
(PID.TID 0000.0001)  ploadbar=  1.01101832381208E+05
 cg2d: Sum(rhs),rhsMax =  -3.71192366030661E+01  2.68086674033654E+00
(PID.TID 0000.0001)  ploadbar=  1.01102129708311E+05
 cg2d: Sum(rhs),rhsMax =  -3.70182373205886E+01  2.68734375556376E+00
(PID.TID 0000.0001)  ploadbar=  1.01102427035415E+05
 cg2d: Sum(rhs),rhsMax =  -3.68972673181844E+01  2.69537671193337E+00
(PID.TID 0000.0001)  ploadbar=  1.01103557619709E+05
 cg2d: Sum(rhs),rhsMax =  -3.67516939166962E+01  2.70532742040571E+00
(PID.TID 0000.0001)  ploadbar=  1.01104688204003E+05
 cg2d: Sum(rhs),rhsMax =  -3.65758625890271E+01  2.71764896884288E+00
(PID.TID 0000.0001)  ploadbar=  1.01105818788297E+05
 cg2d: Sum(rhs),rhsMax =  -3.63598222983080E+01  2.73314293893131E+00
(PID.TID 0000.0001)  ploadbar=  1.01106949372591E+05
 cg2d: Sum(rhs),rhsMax =  -3.61063995370565E+01  2.75169469889603E+00
(PID.TID 0000.0001)  ploadbar=  1.01108079956886E+05
 cg2d: Sum(rhs),rhsMax =  -3.58179139111771E+01  2.77323639799010E+00
(PID.TID 0000.0001)  ploadbar=  1.01109210541180E+05
 cg2d: Sum(rhs),rhsMax =  -3.54895946016772E+01  2.79818669349044E+00
(PID.TID 0000.0001)  ploadbar=  1.01108598721862E+05
 cg2d: Sum(rhs),rhsMax =  -3.51317573550002E+01  2.82589074067897E+00
(PID.TID 0000.0001)  ploadbar=  1.01107986902545E+05
 cg2d: Sum(rhs),rhsMax =  -3.47490667456786E+01  2.85611588751594E+00
(PID.TID 0000.0001)  ploadbar=  1.01107375083227E+05
 cg2d: Sum(rhs),rhsMax =  -3.43611419436286E+01  2.88734174614653E+00
(PID.TID 0000.0001)  ploadbar=  1.01106763263910E+05
 cg2d: Sum(rhs),rhsMax =  -3.39660454059104E+01  2.91978266238372E+00
(PID.TID 0000.0001)  ploadbar=  1.01106151444593E+05
 cg2d: Sum(rhs),rhsMax =  -3.35730911871813E+01  2.95268139778684E+00
(PID.TID 0000.0001)  ploadbar=  1.01105539625275E+05
 cg2d: Sum(rhs),rhsMax =  -3.32092961739510E+01  2.98382936461834E+00
(PID.TID 0000.0001)  ploadbar=  1.01105070464296E+05
 cg2d: Sum(rhs),rhsMax =  -3.28867022027637E+01  3.01197803954221E+00
(PID.TID 0000.0001)  ploadbar=  1.01104601303317E+05
 cg2d: Sum(rhs),rhsMax =  -3.26040572853730E+01  3.03704332001220E+00
(PID.TID 0000.0001)  ploadbar=  1.01104132142338E+05
 cg2d: Sum(rhs),rhsMax =  -3.23612904329392E+01  3.05884814416778E+00
(PID.TID 0000.0001)  ploadbar=  1.01103662981359E+05
 cg2d: Sum(rhs),rhsMax =  -3.21554708766501E+01  3.07750637415289E+00
(PID.TID 0000.0001)  ploadbar=  1.01103193820380E+05
 cg2d: Sum(rhs),rhsMax =  -3.19817186811249E+01  3.09335967481647E+00
(PID.TID 0000.0001)  ploadbar=  1.01102724659401E+05
 cg2d: Sum(rhs),rhsMax =  -3.18353191183082E+01  3.10677307681977E+00
(PID.TID 0000.0001)  ploadbar=  1.01102248446998E+05
 cg2d: Sum(rhs),rhsMax =  -3.18585959442804E+01  3.10374157292416E+00
(PID.TID 0000.0001)  ploadbar=  1.01101772234595E+05
 cg2d: Sum(rhs),rhsMax =  -3.20662633280876E+01  3.08291937794920E+00
(PID.TID 0000.0001)  ploadbar=  1.01101296022192E+05
 cg2d: Sum(rhs),rhsMax =  -3.22761918952574E+01  3.06217513501970E+00
(PID.TID 0000.0001)  ploadbar=  1.01100819809789E+05
 cg2d: Sum(rhs),rhsMax =  -3.24875196729432E+01  3.04157887130838E+00
(PID.TID 0000.0001)  ploadbar=  1.01100343597386E+05
 cg2d: Sum(rhs),rhsMax =  -3.27004069586212E+01  3.02111325368001E+00
(PID.TID 0000.0001)  ploadbar=  1.01099867384983E+05
 cg2d: Sum(rhs),rhsMax =  -3.29233833712533E+01  3.00001169993309E+00
(PID.TID 0000.0001)  ploadbar=  1.01099539901682E+05
 cg2d: Sum(rhs),rhsMax =  -3.31497330725118E+01  2.97890677202891E+00
(PID.TID 0000.0001)  ploadbar=  1.01099212418382E+05
 cg2d: Sum(rhs),rhsMax =  -3.33789943251338E+01  2.95784152348391E+00
(PID.TID 0000.0001)  ploadbar=  1.01098884935082E+05
 cg2d: Sum(rhs),rhsMax =  -3.36139585178869E+01  2.93656791135307E+00
(PID.TID 0000.0001)  ploadbar=  1.01098557451782E+05
 cg2d: Sum(rhs),rhsMax =  -3.38551234839643E+01  2.91504815349619E+00
(PID.TID 0000.0001)  ploadbar=  1.01098229968482E+05
 cg2d: Sum(rhs),rhsMax =  -3.41017171269819E+01  2.89335768897958E+00
(PID.TID 0000.0001)  ploadbar=  1.01097902485181E+05
 cg2d: Sum(rhs),rhsMax =  -3.43522235040057E+01  2.87158906683631E+00
(PID.TID 0000.0001)  ploadbar=  1.01096837892639E+05
 cg2d: Sum(rhs),rhsMax =  -3.46079035194420E+01  2.84964255533502E+00
(PID.TID 0000.0001)  ploadbar=  1.01095773300097E+05
 cg2d: Sum(rhs),rhsMax =  -3.48716765647303E+01  2.82728700443347E+00
(PID.TID 0000.0001)  ploadbar=  1.01094708707555E+05
 cg2d: Sum(rhs),rhsMax =  -3.51453245458796E+01  2.80439381719842E+00
(PID.TID 0000.0001)  ploadbar=  1.01093644115013E+05
 cg2d: Sum(rhs),rhsMax =  -3.54352519622948E+01  2.78048751472655E+00
(PID.TID 0000.0001)  ploadbar=  1.01092579522471E+05
 cg2d: Sum(rhs),rhsMax =  -3.57316325504837E+01  2.75638392252500E+00
(PID.TID 0000.0001)  ploadbar=  1.01091514929929E+05
 cg2d: Sum(rhs),rhsMax =  -3.60361732200265E+01  2.73213276197483E+00
(PID.TID 0000.0001)  ploadbar=  1.01091819617786E+05
 cg2d: Sum(rhs),rhsMax =  -3.63511456223071E+01  2.70758171418797E+00
(PID.TID 0000.0001)  ploadbar=  1.01092124305644E+05
 cg2d: Sum(rhs),rhsMax =  -3.66741262145191E+01  2.68292983526744E+00
(PID.TID 0000.0001)  ploadbar=  1.01092428993502E+05
 cg2d: Sum(rhs),rhsMax =  -3.70034146708435E+01  2.65830633589027E+00
(PID.TID 0000.0001)  ploadbar=  1.01092733681359E+05
 cg2d: Sum(rhs),rhsMax =  -3.73365860873206E+01  2.63389109230482E+00
(PID.TID 0000.0001)  ploadbar=  1.01093038369217E+05
 cg2d: Sum(rhs),rhsMax =  -3.76712372122825E+01  2.60984411833176E+00
(PID.TID 0000.0001)  ploadbar=  1.01093343057075E+05
 cg2d: Sum(rhs),rhsMax =  -3.80066364813233E+01  2.58620985271424E+00
(PID.TID 0000.0001)  ploadbar=  1.01092413705705E+05
 cg2d: Sum(rhs),rhsMax =  -3.83452012373208E+01  2.56281191522897E+00
(PID.TID 0000.0001)  ploadbar=  1.01091484354335E+05
 cg2d: Sum(rhs),rhsMax =  -3.86924002278825E+01  2.53928269326408E+00
(PID.TID 0000.0001)  ploadbar=  1.01090555002965E+05
 cg2d: Sum(rhs),rhsMax =  -3.90556948770448E+01  2.51515050578901E+00
(PID.TID 0000.0001)  ploadbar=  1.01089625651595E+05
 cg2d: Sum(rhs),rhsMax =  -3.94320875407971E+01  2.49064539600539E+00
(PID.TID 0000.0001)  ploadbar=  1.01088696300225E+05
 cg2d: Sum(rhs),rhsMax =  -3.98193018358564E+01  2.46593414336630E+00
(PID.TID 0000.0001)  ploadbar=  1.01087766948855E+05
 cg2d: Sum(rhs),rhsMax =  -4.01670310875382E+01  2.44411315715887E+00
(PID.TID 0000.0001)  ploadbar=  1.01085888696090E+05
 cg2d: Sum(rhs),rhsMax =  -4.04415414423230E+01  2.42706179851717E+00
(PID.TID 0000.0001)  ploadbar=  1.01084010443325E+05
 cg2d: Sum(rhs),rhsMax =  -4.07026189998282E+01  2.41103717960747E+00
(PID.TID 0000.0001)  ploadbar=  1.01082132190560E+05
 cg2d: Sum(rhs),rhsMax =  -4.09657672688945E+01  2.39508614841897E+00
(PID.TID 0000.0001)  ploadbar=  1.01080253937795E+05
 cg2d: Sum(rhs),rhsMax =  -4.12351515415433E+01  2.37895643510195E+00
(PID.TID 0000.0001)  ploadbar=  1.01078375685030E+05
 cg2d: Sum(rhs),rhsMax =  -4.15099652627707E+01  2.36269935139416E+00
(PID.TID 0000.0001)  ploadbar=  1.01076497432265E+05
 cg2d: Sum(rhs),rhsMax =  -4.17790452576910E+01  2.34692933879190E+00
(PID.TID 0000.0001)  ploadbar=  1.01075491137783E+05
 cg2d: Sum(rhs),rhsMax =  -4.20469483760989E+01  2.33137413756027E+00
(PID.TID 0000.0001)  ploadbar=  1.01074484843301E+05
 cg2d: Sum(rhs),rhsMax =  -4.23101107875537E+01  2.31621511482142E+00
(PID.TID 0000.0001)  ploadbar=  1.01073478548819E+05
 cg2d: Sum(rhs),rhsMax =  -4.25637136970232E+01  2.30168470247456E+00
(PID.TID 0000.0001)  ploadbar=  1.01072472254337E+05
 cg2d: Sum(rhs),rhsMax =  -4.28000708795386E+01  2.28816166699337E+00
(PID.TID 0000.0001)  ploadbar=  1.01071465959855E+05
 cg2d: Sum(rhs),rhsMax =  -4.30109950925200E+01  2.27604324415552E+00
(PID.TID 0000.0001)  ploadbar=  1.01070459665373E+05
 cg2d: Sum(rhs),rhsMax =  -4.31865443844466E+01  2.26599036443501E+00
(PID.TID 0000.0001)  ploadbar=  1.01070341059394E+05
 cg2d: Sum(rhs),rhsMax =  -4.33322450679818E+01  2.25766175279977E+00
(PID.TID 0000.0001)  ploadbar=  1.01070222453415E+05
 cg2d: Sum(rhs),rhsMax =  -4.34535527329159E+01  2.25073217006429E+00
(PID.TID 0000.0001)  ploadbar=  1.01070103847437E+05
 cg2d: Sum(rhs),rhsMax =  -4.35557322769841E+01  2.24489874939375E+00
(PID.TID 0000.0001)  ploadbar=  1.01069985241458E+05
 cg2d: Sum(rhs),rhsMax =  -4.36463105298545E+01  2.23975147056085E+00
(PID.TID 0000.0001)  ploadbar=  1.01069866635479E+05
 cg2d: Sum(rhs),rhsMax =  -4.37314415271884E+01  2.23495944816912E+00
(PID.TID 0000.0001)  ploadbar=  1.01069748029501E+05
 cg2d: Sum(rhs),rhsMax =  -4.38185675439877E+01  2.23013086918538E+00
(PID.TID 0000.0001)  ploadbar=  1.01068796806073E+05
 cg2d: Sum(rhs),rhsMax =  -4.39146157090572E+01  2.22490824328449E+00
(PID.TID 0000.0001)  ploadbar=  1.01067845582644E+05
 cg2d: Sum(rhs),rhsMax =  -4.40436927392181E+01  2.21807421246649E+00
(PID.TID 0000.0001)  ploadbar=  1.01066894359216E+05
 cg2d: Sum(rhs),rhsMax =  -4.42057819475932E+01  2.20965414731033E+00
(PID.TID 0000.0001)  ploadbar=  1.01065943135788E+05
 cg2d: Sum(rhs),rhsMax =  -4.44033946262503E+01  2.19955484353604E+00
(PID.TID 0000.0001)  ploadbar=  1.01064991912360E+05
 cg2d: Sum(rhs),rhsMax =  -4.46405901754940E+01  2.18761865147193E+00
(PID.TID 0000.0001)  ploadbar=  1.01064040688932E+05
 cg2d: Sum(rhs),rhsMax =  -4.49138757147187E+01  2.17406625075029E+00
(PID.TID 0000.0001)  ploadbar=  1.01063322732117E+05
 cg2d: Sum(rhs),rhsMax =  -4.51950521470949E+01  2.16029923404550E+00
(PID.TID 0000.0001)  ploadbar=  1.01062604775303E+05
 cg2d: Sum(rhs),rhsMax =  -4.54883756851357E+01  2.14612321970354E+00
(PID.TID 0000.0001)  ploadbar=  1.01061886818488E+05
 cg2d: Sum(rhs),rhsMax =  -4.57975916218877E+01  2.13137060360803E+00
(PID.TID 0000.0001)  ploadbar=  1.01061168861673E+05
 cg2d: Sum(rhs),rhsMax =  -4.61271330354462E+01  2.11585697959476E+00
(PID.TID 0000.0001)  ploadbar=  1.01060450904858E+05
 cg2d: Sum(rhs),rhsMax =  -4.64847974654501E+01  2.09925550359444E+00
(PID.TID 0000.0001)  ploadbar=  1.01059732948043E+05
 cg2d: Sum(rhs),rhsMax =  -4.68704734867174E+01  2.08163014873257E+00
(PID.TID 0000.0001)  ploadbar=  1.01058900309908E+05
 cg2d: Sum(rhs),rhsMax =  -4.72745394982515E+01  2.06345465652421E+00
(PID.TID 0000.0001)  ploadbar=  1.01058067671773E+05
 cg2d: Sum(rhs),rhsMax =  -4.77168426470749E+01  2.04390227753069E+00
(PID.TID 0000.0001)  ploadbar=  1.01057235033638E+05
 cg2d: Sum(rhs),rhsMax =  -4.78081206108845E+01  2.03951656711913E+00
(PID.TID 0000.0001)  ploadbar=  1.01056402395502E+05
 cg2d: Sum(rhs),rhsMax =  -4.76718626676033E+01  2.04479320998302E+00
(PID.TID 0000.0001)  ploadbar=  1.01055569757367E+05
 cg2d: Sum(rhs),rhsMax =  -4.75331281614169E+01  2.05013387635024E+00
(PID.TID 0000.0001)  ploadbar=  1.01054737119232E+05
 cg2d: Sum(rhs),rhsMax =  -4.73979944272859E+01  2.05540008100310E+00
(PID.TID 0000.0001)  ploadbar=  1.01054914790028E+05
 cg2d: Sum(rhs),rhsMax =  -4.72658232410886E+01  2.06061305525837E+00
(PID.TID 0000.0001)  ploadbar=  1.01055092460824E+05
 cg2d: Sum(rhs),rhsMax =  -4.71349161722591E+01  2.06583892538630E+00
(PID.TID 0000.0001)  ploadbar=  1.01055270131619E+05
 cg2d: Sum(rhs),rhsMax =  -4.70067900844766E+01  2.07100777817027E+00
(PID.TID 0000.0001)  ploadbar=  1.01055447802415E+05
 cg2d: Sum(rhs),rhsMax =  -4.68824065024999E+01  2.07606734966048E+00
(PID.TID 0000.0001)  ploadbar=  1.01055625473211E+05
 cg2d: Sum(rhs),rhsMax =  -4.67629122598782E+01  2.08095789210478E+00
(PID.TID 0000.0001)  ploadbar=  1.01055803144007E+05
 cg2d: Sum(rhs),rhsMax =  -4.66567648308410E+01  2.08528023319938E+00
(PID.TID 0000.0001)  ploadbar=  1.01056500444550E+05
 cg2d: Sum(rhs),rhsMax =  -4.65558622873388E+01  2.08938424122131E+00
(PID.TID 0000.0001)  ploadbar=  1.01057197745093E+05
 cg2d: Sum(rhs),rhsMax =  -4.64637381038886E+01  2.09310261268489E+00
(PID.TID 0000.0001)  ploadbar=  1.01057895045636E+05
 cg2d: Sum(rhs),rhsMax =  -4.63815794693237E+01  2.09637121686621E+00
(PID.TID 0000.0001)  ploadbar=  1.01058592346180E+05
 cg2d: Sum(rhs),rhsMax =  -4.63091301468314E+01  2.09919158028545E+00
(PID.TID 0000.0001)  ploadbar=  1.01059289646723E+05
 cg2d: Sum(rhs),rhsMax =  -4.62470261542984E+01  2.10152504257855E+00
(PID.TID 0000.0001)  ploadbar=  1.01059986947266E+05
 cg2d: Sum(rhs),rhsMax =  -4.62040805261075E+01  2.10301425428679E+00
(PID.TID 0000.0001)  ploadbar=  1.01061471055024E+05
 cg2d: Sum(rhs),rhsMax =  -4.61770425836758E+01  2.10379747312340E+00
(PID.TID 0000.0001)  ploadbar=  1.01062955162781E+05
 cg2d: Sum(rhs),rhsMax =  -4.61626852128903E+01  2.10401146144676E+00
(PID.TID 0000.0001)  ploadbar=  1.01064439270539E+05
 cg2d: Sum(rhs),rhsMax =  -4.61616026420962E+01  2.10361789790169E+00
(PID.TID 0000.0001)  ploadbar=  1.01065923378296E+05
 cg2d: Sum(rhs),rhsMax =  -4.61738803519575E+01  2.10260212876856E+00
(PID.TID 0000.0001)  ploadbar=  1.01067407486054E+05
 cg2d: Sum(rhs),rhsMax =  -4.61984885131452E+01  2.10100448997273E+00
(PID.TID 0000.0001)  ploadbar=  1.01068891593811E+05
 cg2d: Sum(rhs),rhsMax =  -4.62369048130357E+01  2.09875832384935E+00
(PID.TID 0000.0001)  ploadbar=  1.01068692750907E+05
 cg2d: Sum(rhs),rhsMax =  -4.62863811721248E+01  2.09597971865110E+00
(PID.TID 0000.0001)  ploadbar=  1.01068493908002E+05
 cg2d: Sum(rhs),rhsMax =  -4.63414115764526E+01  2.09291701567632E+00
(PID.TID 0000.0001)  ploadbar=  1.01068295065098E+05
 cg2d: Sum(rhs),rhsMax =  -4.64010942347980E+01  2.08960698127690E+00
(PID.TID 0000.0001)  ploadbar=  1.01068096222193E+05
 cg2d: Sum(rhs),rhsMax =  -4.64654266547899E+01  2.08604499930204E+00
(PID.TID 0000.0001)  ploadbar=  1.01067897379289E+05
 cg2d: Sum(rhs),rhsMax =  -4.65336704648029E+01  2.08226213512462E+00
(PID.TID 0000.0001)  ploadbar=  1.01067698536384E+05
 cg2d: Sum(rhs),rhsMax =  -4.66054126009747E+01  2.07841901132189E+00
(PID.TID 0000.0001)  ploadbar=  1.01068368803043E+05
 cg2d: Sum(rhs),rhsMax =  -4.66866964560263E+01  2.07424521823806E+00
(PID.TID 0000.0001)  ploadbar=  1.01069039069702E+05
 cg2d: Sum(rhs),rhsMax =  -4.67734165941970E+01  2.06992259297822E+00
(PID.TID 0000.0001)  ploadbar=  1.01069709336361E+05
 cg2d: Sum(rhs),rhsMax =  -4.68645928652831E+01  2.06549384442557E+00
(PID.TID 0000.0001)  ploadbar=  1.01070379603020E+05
 cg2d: Sum(rhs),rhsMax =  -4.69606111797628E+01  2.06093327016723E+00
(PID.TID 0000.0001)  ploadbar=  1.01071049869679E+05
 cg2d: Sum(rhs),rhsMax =  -4.70614363581262E+01  2.05623922704076E+00
(PID.TID 0000.0001)  ploadbar=  1.01071720136338E+05
 cg2d: Sum(rhs),rhsMax =  -4.71533831511456E+01  2.05199708079898E+00
(PID.TID 0000.0001)  ploadbar=  1.01072942513307E+05
 cg2d: Sum(rhs),rhsMax =  -4.72501629221552E+01  2.04760498831197E+00
(PID.TID 0000.0001)  ploadbar=  1.01074164890276E+05
 cg2d: Sum(rhs),rhsMax =  -4.73531130662567E+01  2.04300233145536E+00
(PID.TID 0000.0001)  ploadbar=  1.01075387267245E+05
 cg2d: Sum(rhs),rhsMax =  -4.74603542477763E+01  2.03826583439408E+00
(PID.TID 0000.0001)  ploadbar=  1.01076609644214E+05
 cg2d: Sum(rhs),rhsMax =  -4.75711267392681E+01  2.03342186614829E+00
(PID.TID 0000.0001)  ploadbar=  1.01077832021183E+05
 cg2d: Sum(rhs),rhsMax =  -4.76852405900186E+01  2.02846911212531E+00
(PID.TID 0000.0001)  ploadbar=  1.01079054398152E+05
 cg2d: Sum(rhs),rhsMax =  -4.78038046138065E+01  2.02333026526765E+00
(PID.TID 0000.0001)  ploadbar=  1.01078975715657E+05
 cg2d: Sum(rhs),rhsMax =  -4.79252602243608E+01  2.01806893057769E+00
(PID.TID 0000.0001)  ploadbar=  1.01078897033161E+05
 cg2d: Sum(rhs),rhsMax =  -4.80506331013286E+01  2.01263863275291E+00
(PID.TID 0000.0001)  ploadbar=  1.01078818350665E+05
 cg2d: Sum(rhs),rhsMax =  -4.81779161830146E+01  2.00712109565434E+00
(PID.TID 0000.0001)  ploadbar=  1.01078739668169E+05
 cg2d: Sum(rhs),rhsMax =  -4.83046119012533E+01  2.00161486811644E+00
(PID.TID 0000.0001)  ploadbar=  1.01078660985673E+05
 cg2d: Sum(rhs),rhsMax =  -4.84295460655517E+01  1.99616218633083E+00
(PID.TID 0000.0001)  ploadbar=  1.01078582303177E+05
 cg2d: Sum(rhs),rhsMax =  -4.85519092877421E+01  1.99080094883299E+00
(PID.TID 0000.0001)  ploadbar=  1.01078540943981E+05
 cg2d: Sum(rhs),rhsMax =  -4.86725721365150E+01  1.98548759527049E+00
(PID.TID 0000.0001)  ploadbar=  1.01078499584785E+05
 cg2d: Sum(rhs),rhsMax =  -4.87922975035071E+01  1.98018588516175E+00
(PID.TID 0000.0001)  ploadbar=  1.01078458225589E+05
 cg2d: Sum(rhs),rhsMax =  -4.89106185111423E+01  1.97491195224363E+00
(PID.TID 0000.0001)  ploadbar=  1.01078416866393E+05
 cg2d: Sum(rhs),rhsMax =  -4.90267258334572E+01  1.96969547469789E+00
(PID.TID 0000.0001)  ploadbar=  1.01078375507197E+05
 cg2d: Sum(rhs),rhsMax =  -4.91398985193864E+01  1.96456118964399E+00
(PID.TID 0000.0001)  ploadbar=  1.01078334148001E+05
 cg2d: Sum(rhs),rhsMax =  -4.92614988835576E+01  1.95920881115017E+00
(PID.TID 0000.0001)  ploadbar=  1.01079350392767E+05
 cg2d: Sum(rhs),rhsMax =  -4.93817598229579E+01  1.95402544945705E+00
(PID.TID 0000.0001)  ploadbar=  1.01080366637532E+05
 cg2d: Sum(rhs),rhsMax =  -4.95003001608275E+01  1.94902060033595E+00
(PID.TID 0000.0001)  ploadbar=  1.01081382882298E+05
 cg2d: Sum(rhs),rhsMax =  -4.96185025568625E+01  1.94413503614738E+00
(PID.TID 0000.0001)  ploadbar=  1.01082399127064E+05
 cg2d: Sum(rhs),rhsMax =  -4.97366997218141E+01  1.93934942211017E+00
(PID.TID 0000.0001)  ploadbar=  1.01083415371829E+05
 cg2d: Sum(rhs),rhsMax =  -4.98542728126133E+01  1.93468052817314E+00
(PID.TID 0000.0001)  ploadbar=  1.01084431616595E+05
 cg2d: Sum(rhs),rhsMax =  -4.99740827102798E+01  1.92996878927771E+00
(PID.TID 0000.0001)  ploadbar=  1.01084421160623E+05
 cg2d: Sum(rhs),rhsMax =  -5.00930746811962E+01  1.92532907189545E+00
(PID.TID 0000.0001)  ploadbar=  1.01084410704651E+05
 cg2d: Sum(rhs),rhsMax =  -5.02076401508951E+01  1.92089569755525E+00
(PID.TID 0000.0001)  ploadbar=  1.01084400248679E+05
 cg2d: Sum(rhs),rhsMax =  -5.03200680775724E+01  1.91657128683850E+00
(PID.TID 0000.0001)  ploadbar=  1.01084389792707E+05
 cg2d: Sum(rhs),rhsMax =  -5.04324394298593E+01  1.91227268842937E+00
(PID.TID 0000.0001)  ploadbar=  1.01084379336735E+05
 cg2d: Sum(rhs),rhsMax =  -5.05449723251413E+01  1.90798667175140E+00
(PID.TID 0000.0001)  ploadbar=  1.01084368880763E+05
 cg2d: Sum(rhs),rhsMax =  -5.06548817412947E+01  1.90380348286279E+00
(PID.TID 0000.0001)  ploadbar=  1.01084777539960E+05
 cg2d: Sum(rhs),rhsMax =  -5.07648294073682E+01  1.89961860680358E+00
(PID.TID 0000.0001)  ploadbar=  1.01085186199157E+05
 cg2d: Sum(rhs),rhsMax =  -5.08722836751731E+01  1.89552356384039E+00
(PID.TID 0000.0001)  ploadbar=  1.01085594858354E+05
 cg2d: Sum(rhs),rhsMax =  -5.09769619876105E+01  1.89152480214966E+00
(PID.TID 0000.0001)  ploadbar=  1.01086003517551E+05
 cg2d: Sum(rhs),rhsMax =  -5.10785616609873E+01  1.88762694047612E+00
(PID.TID 0000.0001)  ploadbar=  1.01086412176749E+05
 cg2d: Sum(rhs),rhsMax =  -5.11767417707812E+01  1.88383774997400E+00
(PID.TID 0000.0001)  ploadbar=  1.01086820835946E+05
 cg2d: Sum(rhs),rhsMax =  -5.12708383233610E+01  1.88015883099562E+00
(PID.TID 0000.0001)  ploadbar=  1.01086353845880E+05
 cg2d: Sum(rhs),rhsMax =  -5.13627344370168E+01  1.87651742047995E+00
(PID.TID 0000.0001)  ploadbar=  1.01085886855814E+05
 cg2d: Sum(rhs),rhsMax =  -5.14517277746244E+01  1.87293644187974E+00
(PID.TID 0000.0001)  ploadbar=  1.01085419865749E+05
 cg2d: Sum(rhs),rhsMax =  -5.15378175393059E+01  1.86940989919152E+00
(PID.TID 0000.0001)  ploadbar=  1.01084952875683E+05
 cg2d: Sum(rhs),rhsMax =  -5.16166742880297E+01  1.86608820164568E+00
(PID.TID 0000.0001)  ploadbar=  1.01084485885617E+05
 cg2d: Sum(rhs),rhsMax =  -5.16841410255023E+01  1.86311731155044E+00
(PID.TID 0000.0001)  ploadbar=  1.01084018895551E+05
 cg2d: Sum(rhs),rhsMax =  -5.17468882163086E+01  1.86040653879517E+00
(PID.TID 0000.0001)  ploadbar=  1.01082179717137E+05
 cg2d: Sum(rhs),rhsMax =  -5.18002881457764E+01  1.85811405729349E+00
(PID.TID 0000.0001)  ploadbar=  1.01080340538722E+05
 cg2d: Sum(rhs),rhsMax =  -5.18481333460090E+01  1.85609518495558E+00
(PID.TID 0000.0001)  ploadbar=  1.01078501360308E+05
 cg2d: Sum(rhs),rhsMax =  -5.18921951062593E+01  1.85428021856064E+00
(PID.TID 0000.0001)  ploadbar=  1.01076662181893E+05
 cg2d: Sum(rhs),rhsMax =  -5.19326457681094E+01  1.85265913913986E+00
(PID.TID 0000.0001)  ploadbar=  1.01074823003479E+05
 cg2d: Sum(rhs),rhsMax =  -5.19699420375168E+01  1.85121209949781E+00
(PID.TID 0000.0001)  ploadbar=  1.01072983825064E+05
 cg2d: Sum(rhs),rhsMax =  -5.19994327450025E+01  1.85006654643098E+00
(PID.TID 0000.0001)  ploadbar=  1.01071853264084E+05
 cg2d: Sum(rhs),rhsMax =  -5.20212044961049E+01  1.84921428383106E+00
(PID.TID 0000.0001)  ploadbar=  1.01070722703104E+05
 cg2d: Sum(rhs),rhsMax =  -5.20340468551719E+01  1.84869390147579E+00
(PID.TID 0000.0001)  ploadbar=  1.01069592142123E+05
 cg2d: Sum(rhs),rhsMax =  -5.20385502304234E+01  1.84848022738725E+00
(PID.TID 0000.0001)  ploadbar=  1.01068461581143E+05
 cg2d: Sum(rhs),rhsMax =  -5.20350502649432E+01  1.84855617526634E+00
(PID.TID 0000.0001)  ploadbar=  1.01067331020163E+05
 cg2d: Sum(rhs),rhsMax =  -5.20236243554422E+01  1.84891615155881E+00
(PID.TID 0000.0001)  ploadbar=  1.01066200459182E+05
 cg2d: Sum(rhs),rhsMax =  -5.19990212107202E+01  1.84974591444981E+00
(PID.TID 0000.0001)  ploadbar=  1.01066924826054E+05
 cg2d: Sum(rhs),rhsMax =  -5.19658238344333E+01  1.85088020124412E+00
(PID.TID 0000.0001)  ploadbar=  1.01067649192925E+05
 cg2d: Sum(rhs),rhsMax =  -5.19208902958200E+01  1.85242674491567E+00
(PID.TID 0000.0001)  ploadbar=  1.01068373559797E+05
 cg2d: Sum(rhs),rhsMax =  -5.18636902768586E+01  1.85440096129162E+00
(PID.TID 0000.0001)  ploadbar=  1.01069097926668E+05
 cg2d: Sum(rhs),rhsMax =  -5.17937862998566E+01  1.85681536416551E+00
(PID.TID 0000.0001)  ploadbar=  1.01069822293540E+05
 cg2d: Sum(rhs),rhsMax =  -5.17106958828928E+01  1.85968528706729E+00
(PID.TID 0000.0001)  ploadbar=  1.01070546660412E+05
 cg2d: Sum(rhs),rhsMax =  -5.16215799736578E+01  1.86273930992962E+00
(PID.TID 0000.0001)  ploadbar=  1.01069638644633E+05
 cg2d: Sum(rhs),rhsMax =  -5.15253964173309E+01  1.86601405299359E+00
(PID.TID 0000.0001)  ploadbar=  1.01068730628854E+05
 cg2d: Sum(rhs),rhsMax =  -5.14222315720874E+01  1.86950199963491E+00
(PID.TID 0000.0001)  ploadbar=  1.01067822613075E+05
 cg2d: Sum(rhs),rhsMax =  -5.13194954799436E+01  1.87292959787172E+00
(PID.TID 0000.0001)  ploadbar=  1.01066914597296E+05
 cg2d: Sum(rhs),rhsMax =  -5.12239495900559E+01  1.87604630726925E+00
(PID.TID 0000.0001)  ploadbar=  1.01066006581517E+05
 cg2d: Sum(rhs),rhsMax =  -5.11344678286448E+01  1.87888389228252E+00
(PID.TID 0000.0001)  ploadbar=  1.01065098565738E+05
 cg2d: Sum(rhs),rhsMax =  -5.10343389243609E+01  1.88217382762199E+00
(PID.TID 0000.0001)  ploadbar=  1.01064009867662E+05
 cg2d: Sum(rhs),rhsMax =  -5.09342149436005E+01  1.88551961786393E+00
(PID.TID 0000.0001)  ploadbar=  1.01062921169586E+05
 cg2d: Sum(rhs),rhsMax =  -5.08343628907177E+01  1.88890654510674E+00
(PID.TID 0000.0001)  ploadbar=  1.01061832471510E+05
 cg2d: Sum(rhs),rhsMax =  -5.07283171238034E+01  1.89257031394169E+00
(PID.TID 0000.0001)  ploadbar=  1.01060743773435E+05
 cg2d: Sum(rhs),rhsMax =  -5.06121392246663E+01  1.89665549433246E+00
(PID.TID 0000.0001)  ploadbar=  1.01059655075359E+05
 cg2d: Sum(rhs),rhsMax =  -5.04858519491207E+01  1.90115899381335E+00
(PID.TID 0000.0001)  ploadbar=  1.01058566377283E+05
 cg2d: Sum(rhs),rhsMax =  -5.03394922539279E+01  1.90641455023504E+00
(PID.TID 0000.0001)  ploadbar=  1.01059428007307E+05
 cg2d: Sum(rhs),rhsMax =  -5.01822963348757E+01  1.91207710558767E+00
(PID.TID 0000.0001)  ploadbar=  1.01060289637331E+05
 cg2d: Sum(rhs),rhsMax =  -5.00116611259949E+01  1.91825128077862E+00
(PID.TID 0000.0001)  ploadbar=  1.01061151267355E+05
 cg2d: Sum(rhs),rhsMax =  -4.98269875008502E+01  1.92496398002845E+00
(PID.TID 0000.0001)  ploadbar=  1.01062012897379E+05
 cg2d: Sum(rhs),rhsMax =  -4.96306051593369E+01  1.93213262203298E+00
(PID.TID 0000.0001)  ploadbar=  1.01062874527403E+05
 cg2d: Sum(rhs),rhsMax =  -4.94243505853452E+01  1.93969040153064E+00
(PID.TID 0000.0001)  ploadbar=  1.01063736157427E+05
 cg2d: Sum(rhs),rhsMax =  -4.91822038734957E+01  1.94874584912588E+00
(PID.TID 0000.0001)  ploadbar=  1.01065331110463E+05
 cg2d: Sum(rhs),rhsMax =  -4.89343882664213E+01  1.95812848156549E+00
(PID.TID 0000.0001)  ploadbar=  1.01066926063499E+05
 cg2d: Sum(rhs),rhsMax =  -4.87000333753364E+01  1.96707002731799E+00
(PID.TID 0000.0001)  ploadbar=  1.01068521016535E+05
 cg2d: Sum(rhs),rhsMax =  -4.84880881066833E+01  1.97518539568327E+00
(PID.TID 0000.0001)  ploadbar=  1.01070115969571E+05
 cg2d: Sum(rhs),rhsMax =  -4.83156494719555E+01  1.98174352432145E+00
(PID.TID 0000.0001)  ploadbar=  1.01071710922607E+05
 cg2d: Sum(rhs),rhsMax =  -4.82006243348731E+01  1.98596589232459E+00
(PID.TID 0000.0001)  ploadbar=  1.01073305875643E+05
 cg2d: Sum(rhs),rhsMax =  -4.82168975637594E+01  1.98472759453767E+00
(PID.TID 0000.0001)  ploadbar=  1.01073857102402E+05
 cg2d: Sum(rhs),rhsMax =  -4.82892847476962E+01  1.98112551371790E+00
(PID.TID 0000.0001)  ploadbar=  1.01074408329161E+05
 cg2d: Sum(rhs),rhsMax =  -4.84149783198884E+01  1.97529559710363E+00
(PID.TID 0000.0001)  ploadbar=  1.01074959555920E+05
 cg2d: Sum(rhs),rhsMax =  -4.85835064004582E+01  1.96769604773907E+00
(PID.TID 0000.0001)  ploadbar=  1.01075510782679E+05
 cg2d: Sum(rhs),rhsMax =  -4.87947364729376E+01  1.95836807895023E+00
(PID.TID 0000.0001)  ploadbar=  1.01076062009439E+05
 cg2d: Sum(rhs),rhsMax =  -4.90510013799137E+01  1.94726253227634E+00
(PID.TID 0000.0001)  ploadbar=  1.01076613236198E+05
 cg2d: Sum(rhs),rhsMax =  -4.93706423680642E+01  1.93387231335011E+00
(PID.TID 0000.0001)  ploadbar=  1.01077637433040E+05
 cg2d: Sum(rhs),rhsMax =  -4.96989343955509E+01  1.92039912782484E+00
(PID.TID 0000.0001)  ploadbar=  1.01078661629883E+05
 cg2d: Sum(rhs),rhsMax =  -5.00182868898151E+01  1.90751985428843E+00
(PID.TID 0000.0001)  ploadbar=  1.01079685826725E+05
 cg2d: Sum(rhs),rhsMax =  -5.03231186077911E+01  1.89542328039478E+00
(PID.TID 0000.0001)  ploadbar=  1.01080710023567E+05
 cg2d: Sum(rhs),rhsMax =  -5.06049900570010E+01  1.88439317040174E+00
(PID.TID 0000.0001)  ploadbar=  1.01081734220409E+05
 cg2d: Sum(rhs),rhsMax =  -5.08622655343759E+01  1.87445411627718E+00
(PID.TID 0000.0001)  ploadbar=  1.01082758417252E+05
 cg2d: Sum(rhs),rhsMax =  -5.10857722906425E+01  1.86585202057185E+00
(PID.TID 0000.0001)  ploadbar=  1.01083109795349E+05
 cg2d: Sum(rhs),rhsMax =  -5.12824341266340E+01  1.85830064753064E+00
(PID.TID 0000.0001)      cg2d_init_res =   1.80248321102524E-01
(PID.TID 0000.0001)      cg2d_iters(min,last) =      -1     132
(PID.TID 0000.0001)      cg2d_last_res =   9.46793574728040E-08
(PID.TID 0000.0001) // =======================================================
(PID.TID 0000.0001) // Begin MONITOR dynamic field statistics
(PID.TID 0000.0001) // =======================================================
(PID.TID 0000.0001) %MON time_tsnumber                =                 10512
(PID.TID 0000.0001) %MON time_secondsf                =   3.7843200000000E+07
(PID.TID 0000.0001) %MON dynstat_eta_max              =   1.0910236603993E+00
(PID.TID 0000.0001) %MON dynstat_eta_min              =  -6.6658597100069E+00
(PID.TID 0000.0001) %MON dynstat_eta_mean             =   4.8233373005049E-02
(PID.TID 0000.0001) %MON dynstat_eta_sd               =   7.4791772647323E-01
(PID.TID 0000.0001) %MON dynstat_eta_del2             =   2.1302107029080E-04
(PID.TID 0000.0001) %MON dynstat_uvel_max             =   1.3065264513222E+00
(PID.TID 0000.0001) %MON dynstat_uvel_min             =  -7.9642000056592E-01
(PID.TID 0000.0001) %MON dynstat_uvel_mean            =   1.4378622446994E-03
(PID.TID 0000.0001) %MON dynstat_uvel_sd              =   2.0985665811296E-02
(PID.TID 0000.0001) %MON dynstat_uvel_del2            =   9.0620196338320E-06
(PID.TID 0000.0001) %MON dynstat_vvel_max             =   1.1682926283269E+00
(PID.TID 0000.0001) %MON dynstat_vvel_min             =  -9.3635194082243E-01
(PID.TID 0000.0001) %MON dynstat_vvel_mean            =   1.1495733762057E-03
(PID.TID 0000.0001) %MON dynstat_vvel_sd              =   2.2056693998608E-02
(PID.TID 0000.0001) %MON dynstat_vvel_del2            =   9.3120681299224E-06
(PID.TID 0000.0001) %MON dynstat_wvel_max             =   4.8205782502988E-04
(PID.TID 0000.0001) %MON dynstat_wvel_min             =  -1.0081261942602E-03
(PID.TID 0000.0001) %MON dynstat_wvel_mean            =   1.4277813269523E-08
(PID.TID 0000.0001) %MON dynstat_wvel_sd              =   2.3208348518232E-05
(PID.TID 0000.0001) %MON dynstat_wvel_del2            =   1.7521841947711E-08
(PID.TID 0000.0001) %MON dynstat_theta_max            =   3.0908787331461E+01
(PID.TID 0000.0001) %MON dynstat_theta_min            =  -1.9726371311308E+00
(PID.TID 0000.0001) %MON dynstat_theta_mean           =   3.5858229710127E+00
(PID.TID 0000.0001) %MON dynstat_theta_sd             =   4.4348683172907E+00
(PID.TID 0000.0001) %MON dynstat_theta_del2           =   8.9375789544212E-05
(PID.TID 0000.0001) %MON dynstat_salt_max             =   4.0645378626246E+01
(PID.TID 0000.0001) %MON dynstat_salt_min             =   2.4774433121878E+01
(PID.TID 0000.0001) %MON dynstat_salt_mean            =   3.4727188719417E+01
(PID.TID 0000.0001) %MON dynstat_salt_sd              =   3.7614336951849E-01
(PID.TID 0000.0001) %MON dynstat_salt_del2            =   1.9865472057043E-05
(PID.TID 0000.0001) %MON dynstat_sst_max              =   3.0908787331461E+01
(PID.TID 0000.0001) %MON dynstat_sst_min              =  -1.9606806572458E+00
(PID.TID 0000.0001) %MON dynstat_sst_mean             =   1.8427463830237E+01
(PID.TID 0000.0001) %MON dynstat_sst_sd               =   1.0180494043126E+01
(PID.TID 0000.0001) %MON dynstat_sst_del2             =   6.7579111449075E-04
(PID.TID 0000.0001) %MON dynstat_sss_max              =   3.9933681558790E+01
(PID.TID 0000.0001) %MON dynstat_sss_min              =   2.4774433121878E+01
(PID.TID 0000.0001) %MON dynstat_sss_mean             =   3.4754605781866E+01
(PID.TID 0000.0001) %MON dynstat_sss_sd               =   1.1591466477155E+00
(PID.TID 0000.0001) %MON dynstat_sss_del2             =   3.1160874479316E-04
(PID.TID 0000.0001) %MON forcing_qnet_max             =   1.6187766429996E+03
(PID.TID 0000.0001) %MON forcing_qnet_min             =  -5.7977151586019E+02
(PID.TID 0000.0001) %MON forcing_qnet_mean            =   1.6963138959646E+01
(PID.TID 0000.0001) %MON forcing_qnet_sd              =   2.0025732510931E+02
(PID.TID 0000.0001) %MON forcing_qnet_del2            =   1.0535827246176E-01
(PID.TID 0000.0001) %MON forcing_qsw_max              =   6.0418987629124E+01
(PID.TID 0000.0001) %MON forcing_qsw_min              =  -6.3871023562478E+02
(PID.TID 0000.0001) %MON forcing_qsw_mean             =  -1.4833953230758E+02
(PID.TID 0000.0001) %MON forcing_qsw_sd               =   1.6475197114502E+02
(PID.TID 0000.0001) %MON forcing_qsw_del2             =   5.1735869129051E-02
(PID.TID 0000.0001) %MON forcing_empmr_max            =   1.4170209993431E-03
(PID.TID 0000.0001) %MON forcing_empmr_min            =  -4.2998305348154E-03
(PID.TID 0000.0001) %MON forcing_empmr_mean           =   2.9383613676249E-06
(PID.TID 0000.0001) %MON forcing_empmr_sd             =   1.0396790961454E-04
(PID.TID 0000.0001) %MON forcing_empmr_del2           =   2.8208084289730E-07
(PID.TID 0000.0001) %MON forcing_fu_max               =   1.2855952598949E+00
(PID.TID 0000.0001) %MON forcing_fu_min               =  -1.4368111093839E+00
(PID.TID 0000.0001) %MON forcing_fu_mean              =   1.1800868556744E-02
(PID.TID 0000.0001) %MON forcing_fu_sd                =   1.3840641449504E-01
(PID.TID 0000.0001) %MON forcing_fu_del2              =   7.4668110687996E-05
(PID.TID 0000.0001) %MON forcing_fv_max               =   1.7922726074855E+00
(PID.TID 0000.0001) %MON forcing_fv_min               =  -1.3469048884863E+00
(PID.TID 0000.0001) %MON forcing_fv_mean              =   4.2632792853382E-03
(PID.TID 0000.0001) %MON forcing_fv_sd                =   1.4370897745619E-01
(PID.TID 0000.0001) %MON forcing_fv_del2              =   8.0015954968054E-05
(PID.TID 0000.0001) %MON trAdv_CFL_u_max              =   5.3238394571322E-02
(PID.TID 0000.0001) %MON trAdv_CFL_v_max              =   6.0465816964128E-02
(PID.TID 0000.0001) %MON trAdv_CFL_w_max              =   1.6704555076935E-01
(PID.TID 0000.0001) %MON advcfl_uvel_max              =   5.6971500545126E-02
(PID.TID 0000.0001) %MON advcfl_vvel_max              =   5.4933614037794E-02
(PID.TID 0000.0001) %MON advcfl_wvel_max              =   1.6853321357359E-01
(PID.TID 0000.0001) %MON advcfl_W_hf_max              =   1.7031119529359E-01
(PID.TID 0000.0001) %MON pe_b_mean                    =   1.6066091026160E-03
(PID.TID 0000.0001) %MON ke_max                       =   8.4064726848557E-01
(PID.TID 0000.0001) %MON ke_mean                      =   4.4857890799737E-04
(PID.TID 0000.0001) %MON ke_vol                       =   1.3350151488358E+18
(PID.TID 0000.0001) %MON vort_r_min                   =  -2.9412083448489E-05
(PID.TID 0000.0001) %MON vort_r_max                   =   1.6968014553394E-05
(PID.TID 0000.0001) %MON vort_a_mean                  =  -1.9727864647440E-05
(PID.TID 0000.0001) %MON vort_a_sd                    =   7.4543128336283E-05
(PID.TID 0000.0001) %MON vort_p_mean                  =  -2.1760229183552E-05
(PID.TID 0000.0001) %MON vort_p_sd                    =   9.7244804591085E-05
(PID.TID 0000.0001) %MON surfExpan_theta_mean         =   2.1837074116369E-07
(PID.TID 0000.0001) %MON surfExpan_salt_mean          =   1.4191728576244E-08
(PID.TID 0000.0001) // =======================================================
(PID.TID 0000.0001) // End MONITOR dynamic field statistics
(PID.TID 0000.0001) // =======================================================
(PID.TID 0000.0001)  ploadbar=  1.01083461173447E+05
(PID.TID 0000.0001) %SBO sbo_mass                     =   1.3737568005990E+21
(PID.TID 0000.0001) %SBO sbo_mass_fw                  =   4.3985228458377E+16
(PID.TID 0000.0001) %SBO sbo_zoamc                    =   1.2770524472796E+25
(PID.TID 0000.0001) %SBO sbo_zoamp                    =   2.9276642984732E+30
(PID.TID 0000.0001) // =======================================================
(PID.TID 0000.0001) // Begin MONITOR SEAICE statistics
(PID.TID 0000.0001) // =======================================================
(PID.TID 0000.0001) %MON seaice_tsnumber              =                 10512
(PID.TID 0000.0001) %MON seaice_time_sec              =   3.7843200000000E+07
(PID.TID 0000.0001) %MON seaice_uice_max              =   4.0000000000000E-01
(PID.TID 0000.0001) %MON seaice_uice_min              =  -4.0000000000000E-01
(PID.TID 0000.0001) %MON seaice_uice_mean             =   1.2962124924397E-02
(PID.TID 0000.0001) %MON seaice_uice_sd               =   1.7487695893722E-01
(PID.TID 0000.0001) %MON seaice_uice_del2             =   1.4299644424128E-04
(PID.TID 0000.0001) %MON seaice_vice_max              =   4.0000000000000E-01
(PID.TID 0000.0001) %MON seaice_vice_min              =  -4.0000000000000E-01
(PID.TID 0000.0001) %MON seaice_vice_mean             =  -7.6433649538996E-03
(PID.TID 0000.0001) %MON seaice_vice_sd               =   1.7645302880149E-01
(PID.TID 0000.0001) %MON seaice_vice_del2             =   1.4540983759207E-04
(PID.TID 0000.0001) %MON seaice_area_max              =   9.7000000000000E-01
(PID.TID 0000.0001) %MON seaice_area_min              =   0.0000000000000E+00
(PID.TID 0000.0001) %MON seaice_area_mean             =   5.1876807197046E-02
(PID.TID 0000.0001) %MON seaice_area_sd               =   2.1120145980399E-01
(PID.TID 0000.0001) %MON seaice_area_del2             =   2.2683013257878E-04
(PID.TID 0000.0001) %MON seaice_heff_max              =   6.8090161983352E+00
(PID.TID 0000.0001) %MON seaice_heff_min              =   0.0000000000000E+00
(PID.TID 0000.0001) %MON seaice_heff_mean             =   7.6944402866459E-02
(PID.TID 0000.0001) %MON seaice_heff_sd               =   3.8810898158620E-01
(PID.TID 0000.0001) %MON seaice_heff_del2             =   2.1512214448665E-04
(PID.TID 0000.0001) %MON seaice_hsnow_max             =   1.0938585003590E+00
(PID.TID 0000.0001) %MON seaice_hsnow_min             =  -7.1292266761624E-05
(PID.TID 0000.0001) %MON seaice_hsnow_mean            =   9.7195827924625E-03
(PID.TID 0000.0001) %MON seaice_hsnow_sd              =   5.0293236760207E-02
(PID.TID 0000.0001) %MON seaice_hsnow_del2            =   4.7938679262819E-05
(PID.TID 0000.0001) // =======================================================
(PID.TID 0000.0001) // End MONITOR SEAICE statistics
(PID.TID 0000.0001) // =======================================================
(PID.TID 0000.0001) // =======================================================
(PID.TID 0000.0001) // Begin MONITOR EXF statistics
(PID.TID 0000.0001) // =======================================================
(PID.TID 0000.0001) %MON exf_tsnumber                 =                 10512
(PID.TID 0000.0001) %MON exf_time_sec                 =   3.7843200000000E+07
(PID.TID 0000.0001) %MON exf_ustress_max              =   1.3173592090607E+00
(PID.TID 0000.0001) %MON exf_ustress_min              =  -1.6459183692932E+00
(PID.TID 0000.0001) %MON exf_ustress_mean             =   1.1364943364971E-02
(PID.TID 0000.0001) %MON exf_ustress_sd               =   1.3680485316432E-01
(PID.TID 0000.0001) %MON exf_ustress_del2             =   9.6399659763053E-05
(PID.TID 0000.0001) %MON exf_vstress_max              =   1.7689213156700E+00
(PID.TID 0000.0001) %MON exf_vstress_min              =  -2.7178792953491E+00
(PID.TID 0000.0001) %MON exf_vstress_mean             =   5.1167831079845E-03
(PID.TID 0000.0001) %MON exf_vstress_sd               =   1.4428809823895E-01
(PID.TID 0000.0001) %MON exf_vstress_del2             =   1.0633712081367E-04
(PID.TID 0000.0001) %MON exf_hflux_max                =   1.4818191023364E+03
(PID.TID 0000.0001) %MON exf_hflux_min                =  -5.6683781351154E+02
(PID.TID 0000.0001) %MON exf_hflux_mean               =   3.4937962917059E+01
(PID.TID 0000.0001) %MON exf_hflux_sd                 =   2.1978807198653E+02
(PID.TID 0000.0001) %MON exf_hflux_del2               =   4.5360337179180E-01
(PID.TID 0000.0001) %MON exf_sflux_max                =   4.0250210783290E-07
(PID.TID 0000.0001) %MON exf_sflux_min                =  -4.2679292488168E-06
(PID.TID 0000.0001) %MON exf_sflux_mean               =   1.0342745592068E-09
(PID.TID 0000.0001) %MON exf_sflux_sd                 =   9.7211724760224E-08
(PID.TID 0000.0001) %MON exf_sflux_del2               =   2.5330931360876E-10
(PID.TID 0000.0001) %MON exf_wspeed_max               =   2.3972170829773E+01
(PID.TID 0000.0001) %MON exf_wspeed_min               =   4.0680915117264E-01
(PID.TID 0000.0001) %MON exf_wspeed_mean              =   7.0009154098237E+00
(PID.TID 0000.0001) %MON exf_wspeed_sd                =   3.5892124374914E+00
(PID.TID 0000.0001) %MON exf_wspeed_del2              =   1.5224574740899E-02
(PID.TID 0000.0001) %MON exf_atemp_max                =   3.0672969284058E+02
(PID.TID 0000.0001) %MON exf_atemp_min                =   2.2567059745789E+02
(PID.TID 0000.0001) %MON exf_atemp_mean               =   2.8920474784090E+02
(PID.TID 0000.0001) %MON exf_atemp_sd                 =   1.2892238005608E+01
(PID.TID 0000.0001) %MON exf_atemp_del2               =   3.3107857853456E-02
(PID.TID 0000.0001) %MON exf_aqh_max                  =   2.1373907104135E-02
(PID.TID 0000.0001) %MON exf_aqh_min                  =  -1.1093865032308E-04
(PID.TID 0000.0001) %MON exf_aqh_mean                 =   1.1012636537463E-02
(PID.TID 0000.0001) %MON exf_aqh_sd                   =   5.7680898893743E-03
(PID.TID 0000.0001) %MON exf_aqh_del2                 =   1.8220548372805E-05
(PID.TID 0000.0001) %MON exf_lwflux_max               =   2.2857509968851E+02
(PID.TID 0000.0001) %MON exf_lwflux_min               =  -3.0545236451947E+01
(PID.TID 0000.0001) %MON exf_lwflux_mean              =   4.8456546220648E+01
(PID.TID 0000.0001) %MON exf_lwflux_sd                =   2.8794392882319E+01
(PID.TID 0000.0001) %MON exf_lwflux_del2              =   1.1452085984285E-01
(PID.TID 0000.0001) %MON exf_evap_max                 =   4.1780388765487E-07
(PID.TID 0000.0001) %MON exf_evap_min                 =  -1.2033185707610E-07
(PID.TID 0000.0001) %MON exf_evap_mean                =   4.4134658931461E-08
(PID.TID 0000.0001) %MON exf_evap_sd                  =   3.5033109972163E-08
(PID.TID 0000.0001) %MON exf_evap_del2                =   9.0016166268963E-11
(PID.TID 0000.0001) %MON exf_precip_max               =   2.4043725375122E-06
(PID.TID 0000.0001) %MON exf_precip_min               =  -2.4749696514448E-08
(PID.TID 0000.0001) %MON exf_precip_mean              =   3.9473109763900E-08
(PID.TID 0000.0001) %MON exf_precip_sd                =   7.3878504505014E-08
(PID.TID 0000.0001) %MON exf_precip_del2              =   2.0629697351596E-10
(PID.TID 0000.0001) %MON exf_swflux_max               =   1.1805767162377E+02
(PID.TID 0000.0001) %MON exf_swflux_min               =  -5.7702978812058E+02
(PID.TID 0000.0001) %MON exf_swflux_mean              =  -1.5432302804070E+02
(PID.TID 0000.0001) %MON exf_swflux_sd                =   1.5938996466642E+02
(PID.TID 0000.0001) %MON exf_swflux_del2              =   3.3920480816855E-01
(PID.TID 0000.0001) %MON exf_swdown_max               =   6.2191586303711E+02
(PID.TID 0000.0001) %MON exf_swdown_min               =  -1.4900189971924E+02
(PID.TID 0000.0001) %MON exf_swdown_mean              =   1.6735082014819E+02
(PID.TID 0000.0001) %MON exf_swdown_sd                =   1.7230504665608E+02
(PID.TID 0000.0001) %MON exf_swdown_del2              =   3.6846550834914E-01
(PID.TID 0000.0001) %MON exf_lwdown_max               =   4.5584849548340E+02
(PID.TID 0000.0001) %MON exf_lwdown_min               =   7.1088562011719E+01
(PID.TID 0000.0001) %MON exf_lwdown_mean              =   3.6281893782123E+02
(PID.TID 0000.0001) %MON exf_lwdown_sd                =   6.5108446153490E+01
(PID.TID 0000.0001) %MON exf_lwdown_del2              =   5.9999774803265E-01
(PID.TID 0000.0001) %MON exf_apressure_max            =   1.0461806250000E+05
(PID.TID 0000.0001) %MON exf_apressure_min            =   9.6137640625000E+04
(PID.TID 0000.0001) %MON exf_apressure_mean           =   1.0108381255154E+05
(PID.TID 0000.0001) %MON exf_apressure_sd             =   1.0319047012006E+03
(PID.TID 0000.0001) %MON exf_apressure_del2           =   1.7851173291578E+02
(PID.TID 0000.0001) %MON exf_runoff_max               =   4.1616140845428E-06
(PID.TID 0000.0001) %MON exf_runoff_min               =   0.0000000000000E+00
(PID.TID 0000.0001) %MON exf_runoff_mean              =   3.6272746083540E-09
(PID.TID 0000.0001) %MON exf_runoff_sd                =   4.6684030161543E-08
(PID.TID 0000.0001) %MON exf_runoff_del2              =   1.4133839658683E-10
(PID.TID 0000.0001) // =======================================================
(PID.TID 0000.0001) // End MONITOR EXF statistics
(PID.TID 0000.0001) // =======================================================
 cg2d: Sum(rhs),rhsMax =  -5.14683853287943E+01  1.85118614999219E+00
(PID.TID 0000.0001)  ploadbar=  1.01083812551545E+05
 cg2d: Sum(rhs),rhsMax =  -5.16550092721236E+01  1.84409270901869E+00
(PID.TID 0000.0001)  ploadbar=  1.01084163929642E+05
 cg2d: Sum(rhs),rhsMax =  -5.18439845866790E+01  1.83695773296158E+00
(PID.TID 0000.0001)  ploadbar=  1.01084515307740E+05
 cg2d: Sum(rhs),rhsMax =  -5.20358015636622E+01  1.82976210086797E+00
(PID.TID 0000.0001)  ploadbar=  1.01084866685838E+05
 cg2d: Sum(rhs),rhsMax =  -5.22275162650338E+01  1.82261580592870E+00
(PID.TID 0000.0001)  ploadbar=  1.01084229772564E+05
 cg2d: Sum(rhs),rhsMax =  -5.24228059998663E+01  1.81538675289376E+00
(PID.TID 0000.0001)  ploadbar=  1.01083592859290E+05
 cg2d: Sum(rhs),rhsMax =  -5.26232487706446E+01  1.80801878223017E+00
(PID.TID 0000.0001)  ploadbar=  1.01082955946016E+05
 cg2d: Sum(rhs),rhsMax =  -5.28265687578165E+01  1.80059187911806E+00
(PID.TID 0000.0001)  ploadbar=  1.01082319032742E+05
 cg2d: Sum(rhs),rhsMax =  -5.30293487265799E+01  1.79321852190739E+00
(PID.TID 0000.0001)  ploadbar=  1.01081682119469E+05
 cg2d: Sum(rhs),rhsMax =  -5.32279922265778E+01  1.78601419425283E+00
(PID.TID 0000.0001)  ploadbar=  1.01081045206195E+05
 cg2d: Sum(rhs),rhsMax =  -5.34089940461855E+01  1.77941019313113E+00
(PID.TID 0000.0001)  ploadbar=  1.01080019786361E+05
 cg2d: Sum(rhs),rhsMax =  -5.35790240226723E+01  1.77317442771418E+00
(PID.TID 0000.0001)  ploadbar=  1.01078994366527E+05
 cg2d: Sum(rhs),rhsMax =  -5.37345055323882E+01  1.76741479629749E+00
(PID.TID 0000.0001)  ploadbar=  1.01077968946693E+05
 cg2d: Sum(rhs),rhsMax =  -5.38774689623143E+01  1.76205503909153E+00
(PID.TID 0000.0001)  ploadbar=  1.01076943526859E+05
 cg2d: Sum(rhs),rhsMax =  -5.40108106680991E+01  1.75699120670030E+00
(PID.TID 0000.0001)  ploadbar=  1.01075918107024E+05
 cg2d: Sum(rhs),rhsMax =  -5.41345261815741E+01  1.75221272112608E+00
(PID.TID 0000.0001)  ploadbar=  1.01074892687190E+05
 cg2d: Sum(rhs),rhsMax =  -5.42486650818278E+01  1.74782562738596E+00
(PID.TID 0000.0001)  ploadbar=  1.01074258354558E+05
 cg2d: Sum(rhs),rhsMax =  -5.43510804397312E+01  1.74389457964690E+00
(PID.TID 0000.0001)  ploadbar=  1.01073624021925E+05
 cg2d: Sum(rhs),rhsMax =  -5.44353778570509E+01  1.74061408276059E+00
(PID.TID 0000.0001)  ploadbar=  1.01072989689293E+05
 cg2d: Sum(rhs),rhsMax =  -5.44952934234669E+01  1.73817613869127E+00
(PID.TID 0000.0001)  ploadbar=  1.01072355356661E+05
 cg2d: Sum(rhs),rhsMax =  -5.45288750604023E+01  1.73663279599553E+00
(PID.TID 0000.0001)  ploadbar=  1.01071721024028E+05
 cg2d: Sum(rhs),rhsMax =  -5.45353337539526E+01  1.73600122013412E+00
(PID.TID 0000.0001)  ploadbar=  1.01071086691396E+05
 cg2d: Sum(rhs),rhsMax =  -5.45251612363786E+01  1.73588927171247E+00
(PID.TID 0000.0001)  ploadbar=  1.01069989446600E+05
 cg2d: Sum(rhs),rhsMax =  -5.44958222046039E+01  1.73637520300170E+00
(PID.TID 0000.0001)  ploadbar=  1.01068892201804E+05
 cg2d: Sum(rhs),rhsMax =  -5.44438355999050E+01  1.73756736805363E+00
(PID.TID 0000.0001)  ploadbar=  1.01067794957009E+05
 cg2d: Sum(rhs),rhsMax =  -5.43765664327681E+01  1.73923035832234E+00
(PID.TID 0000.0001)  ploadbar=  1.01066697712213E+05
 cg2d: Sum(rhs),rhsMax =  -5.42966818226964E+01  1.74127914243767E+00
(PID.TID 0000.0001)  ploadbar=  1.01065600467417E+05
 cg2d: Sum(rhs),rhsMax =  -5.42050036290268E+01  1.74369070118691E+00
(PID.TID 0000.0001)  ploadbar=  1.01064503222621E+05
 cg2d: Sum(rhs),rhsMax =  -5.41051837590307E+01  1.74640289380769E+00
(PID.TID 0000.0001)  ploadbar=  1.01062752309824E+05
 cg2d: Sum(rhs),rhsMax =  -5.40042979462954E+01  1.74918465538276E+00
(PID.TID 0000.0001)  ploadbar=  1.01061001397027E+05
 cg2d: Sum(rhs),rhsMax =  -5.39130550908591E+01  1.75168247658880E+00
(PID.TID 0000.0001)  ploadbar=  1.01059250484230E+05
 cg2d: Sum(rhs),rhsMax =  -5.38164452633587E+01  1.75437872986789E+00
(PID.TID 0000.0001)  ploadbar=  1.01057499571433E+05
 cg2d: Sum(rhs),rhsMax =  -5.37149860257605E+01  1.75725250678287E+00
(PID.TID 0000.0001)  ploadbar=  1.01055748658636E+05
 cg2d: Sum(rhs),rhsMax =  -5.36094473139145E+01  1.76027149303049E+00
(PID.TID 0000.0001)  ploadbar=  1.01053997745839E+05
 cg2d: Sum(rhs),rhsMax =  -5.34968355061199E+01  1.76350199749002E+00
(PID.TID 0000.0001)  ploadbar=  1.01053254086146E+05
 cg2d: Sum(rhs),rhsMax =  -5.33842871970458E+01  1.76670854763363E+00
(PID.TID 0000.0001)  ploadbar=  1.01052510426452E+05
 cg2d: Sum(rhs),rhsMax =  -5.32702436678617E+01  1.76993987781578E+00
(PID.TID 0000.0001)  ploadbar=  1.01051766766758E+05
 cg2d: Sum(rhs),rhsMax =  -5.31552728617883E+01  1.77317272031947E+00
(PID.TID 0000.0001)  ploadbar=  1.01051023107065E+05
 cg2d: Sum(rhs),rhsMax =  -5.30416694644453E+01  1.77632729854504E+00
(PID.TID 0000.0001)  ploadbar=  1.01050279447371E+05
 cg2d: Sum(rhs),rhsMax =  -5.29301014324147E+01  1.77937724182114E+00
(PID.TID 0000.0001)  ploadbar=  1.01049535787678E+05
 cg2d: Sum(rhs),rhsMax =  -5.28095342411964E+01  1.78278398049501E+00
(PID.TID 0000.0001)  ploadbar=  1.01048306720933E+05
 cg2d: Sum(rhs),rhsMax =  -5.26890586522047E+01  1.78623870388584E+00
(PID.TID 0000.0001)  ploadbar=  1.01047077654189E+05
 cg2d: Sum(rhs),rhsMax =  -5.25693313104096E+01  1.78971344791900E+00
(PID.TID 0000.0001)  ploadbar=  1.01045848587444E+05
 cg2d: Sum(rhs),rhsMax =  -5.24480614944241E+01  1.79328388184058E+00
(PID.TID 0000.0001)  ploadbar=  1.01044619520700E+05
 cg2d: Sum(rhs),rhsMax =  -5.23264053260536E+01  1.79690473060032E+00
(PID.TID 0000.0001)  ploadbar=  1.01043390453956E+05
 cg2d: Sum(rhs),rhsMax =  -5.22066967475591E+01  1.80048876849397E+00
(PID.TID 0000.0001)  ploadbar=  1.01042161387211E+05
 cg2d: Sum(rhs),rhsMax =  -5.20867298226580E+01  1.80409612047301E+00
(PID.TID 0000.0001)  ploadbar=  1.01042040022617E+05
 cg2d: Sum(rhs),rhsMax =  -5.19671028993988E+01  1.80770130549563E+00
(PID.TID 0000.0001)  ploadbar=  1.01041918658023E+05
 cg2d: Sum(rhs),rhsMax =  -5.18511276772278E+01  1.81118421408115E+00
(PID.TID 0000.0001)  ploadbar=  1.01041797293429E+05
 cg2d: Sum(rhs),rhsMax =  -5.17375001203238E+01  1.81458133438011E+00
(PID.TID 0000.0001)  ploadbar=  1.01041675928835E+05
 cg2d: Sum(rhs),rhsMax =  -5.16265603161288E+01  1.81787568787323E+00
(PID.TID 0000.0001)  ploadbar=  1.01041554564241E+05
 cg2d: Sum(rhs),rhsMax =  -5.15189436061956E+01  1.82103883078376E+00
(PID.TID 0000.0001)  ploadbar=  1.01041433199647E+05
 cg2d: Sum(rhs),rhsMax =  -5.14112241828492E+01  1.82420551504431E+00
(PID.TID 0000.0001)  ploadbar=  1.01040904024638E+05
 cg2d: Sum(rhs),rhsMax =  -5.13062509717956E+01  1.82727017127894E+00
(PID.TID 0000.0001)  ploadbar=  1.01040374849628E+05
 cg2d: Sum(rhs),rhsMax =  -5.12056355316346E+01  1.83016861056933E+00
(PID.TID 0000.0001)  ploadbar=  1.01039845674618E+05
 cg2d: Sum(rhs),rhsMax =  -5.11079572696046E+01  1.83294405433755E+00
(PID.TID 0000.0001)  ploadbar=  1.01039316499609E+05
 cg2d: Sum(rhs),rhsMax =  -5.10128530754580E+01  1.83560058044422E+00
(PID.TID 0000.0001)  ploadbar=  1.01038787324599E+05
 cg2d: Sum(rhs),rhsMax =  -5.09206597442587E+01  1.83811827455570E+00
(PID.TID 0000.0001)  ploadbar=  1.01038258149590E+05
 cg2d: Sum(rhs),rhsMax =  -5.08326967622266E+01  1.84045376239286E+00
(PID.TID 0000.0001)  ploadbar=  1.01039232673391E+05
 cg2d: Sum(rhs),rhsMax =  -5.07432052826885E+01  1.84281172394485E+00
(PID.TID 0000.0001)  ploadbar=  1.01040207197192E+05
 cg2d: Sum(rhs),rhsMax =  -5.06498481879049E+01  1.84527463309787E+00
(PID.TID 0000.0001)  ploadbar=  1.01041181720993E+05
 cg2d: Sum(rhs),rhsMax =  -5.05526528280582E+01  1.84783706745148E+00
(PID.TID 0000.0001)  ploadbar=  1.01042156244794E+05
 cg2d: Sum(rhs),rhsMax =  -5.04504796322619E+01  1.85053689717058E+00
(PID.TID 0000.0001)  ploadbar=  1.01043130768595E+05
 cg2d: Sum(rhs),rhsMax =  -5.03433650782088E+01  1.85336991472401E+00
(PID.TID 0000.0001)  ploadbar=  1.01044105292396E+05
 cg2d: Sum(rhs),rhsMax =  -5.02253569675818E+01  1.85667462231803E+00
(PID.TID 0000.0001)  ploadbar=  1.01044826226993E+05
 cg2d: Sum(rhs),rhsMax =  -5.00997259710084E+01  1.86033043214120E+00
(PID.TID 0000.0001)  ploadbar=  1.01045547161589E+05
 cg2d: Sum(rhs),rhsMax =  -4.99671480802959E+01  1.86431106236170E+00
(PID.TID 0000.0001)  ploadbar=  1.01046268096186E+05
 cg2d: Sum(rhs),rhsMax =  -4.98341271152653E+01  1.86836871606979E+00
(PID.TID 0000.0001)  ploadbar=  1.01046989030782E+05
 cg2d: Sum(rhs),rhsMax =  -4.97095475160954E+01  1.87216243701080E+00
(PID.TID 0000.0001)  ploadbar=  1.01047709965379E+05
 cg2d: Sum(rhs),rhsMax =  -4.96084681659576E+01  1.87511216515345E+00
(PID.TID 0000.0001)  ploadbar=  1.01048430899975E+05
 cg2d: Sum(rhs),rhsMax =  -4.95609001983132E+01  1.87607119853626E+00
(PID.TID 0000.0001)  ploadbar=  1.01048990268010E+05
 cg2d: Sum(rhs),rhsMax =  -4.95772705258696E+01  1.87462775065890E+00
(PID.TID 0000.0001)  ploadbar=  1.01049549636044E+05
 cg2d: Sum(rhs),rhsMax =  -4.96710012605142E+01  1.87027411953095E+00
(PID.TID 0000.0001)  ploadbar=  1.01050109004078E+05
 cg2d: Sum(rhs),rhsMax =  -4.98455382081947E+01  1.86290750472259E+00
(PID.TID 0000.0001)  ploadbar=  1.01050668372113E+05
 cg2d: Sum(rhs),rhsMax =  -5.00915212407826E+01  1.85293187926299E+00
(PID.TID 0000.0001)  ploadbar=  1.01051227740147E+05
 cg2d: Sum(rhs),rhsMax =  -5.03942115558859E+01  1.84096147457212E+00
(PID.TID 0000.0001)  ploadbar=  1.01051787108182E+05
 cg2d: Sum(rhs),rhsMax =  -5.07433554471360E+01  1.82747975603016E+00
(PID.TID 0000.0001)  ploadbar=  1.01053157880846E+05
 cg2d: Sum(rhs),rhsMax =  -5.11142686207516E+01  1.81342042150444E+00
(PID.TID 0000.0001)  ploadbar=  1.01054528653510E+05
 cg2d: Sum(rhs),rhsMax =  -5.14905065630063E+01  1.79938263776704E+00
(PID.TID 0000.0001)  ploadbar=  1.01055899426174E+05
 cg2d: Sum(rhs),rhsMax =  -5.18713031510282E+01  1.78538614287537E+00
(PID.TID 0000.0001)  ploadbar=  1.01057270198838E+05
 cg2d: Sum(rhs),rhsMax =  -5.22508749941241E+01  1.77162402771765E+00
(PID.TID 0000.0001)  ploadbar=  1.01058640971502E+05
 cg2d: Sum(rhs),rhsMax =  -5.26268129751500E+01  1.75816512945439E+00
(PID.TID 0000.0001)  ploadbar=  1.01060011744166E+05
 cg2d: Sum(rhs),rhsMax =  -5.29861989583525E+01  1.74545259374213E+00
(PID.TID 0000.0001)  ploadbar=  1.01061060585982E+05
 cg2d: Sum(rhs),rhsMax =  -5.33212535822348E+01  1.73370643199394E+00
(PID.TID 0000.0001)  ploadbar=  1.01062109427798E+05
 cg2d: Sum(rhs),rhsMax =  -5.36254130387355E+01  1.72309757216687E+00
(PID.TID 0000.0001)  ploadbar=  1.01063158269615E+05
 cg2d: Sum(rhs),rhsMax =  -5.38955482326804E+01  1.71367505690103E+00
(PID.TID 0000.0001)  ploadbar=  1.01064207111431E+05
 cg2d: Sum(rhs),rhsMax =  -5.41319012576173E+01  1.70538523112349E+00
(PID.TID 0000.0001)  ploadbar=  1.01065255953247E+05
 cg2d: Sum(rhs),rhsMax =  -5.43363479210486E+01  1.69813524123477E+00
(PID.TID 0000.0001)  ploadbar=  1.01066304795063E+05
 cg2d: Sum(rhs),rhsMax =  -5.45102726280705E+01  1.69196735447400E+00
(PID.TID 0000.0001)  ploadbar=  1.01066544396914E+05
 cg2d: Sum(rhs),rhsMax =  -5.46666640495510E+01  1.68646168369213E+00
(PID.TID 0000.0001)  ploadbar=  1.01066783998764E+05
 cg2d: Sum(rhs),rhsMax =  -5.48143796542035E+01  1.68133067181747E+00
(PID.TID 0000.0001)  ploadbar=  1.01067023600615E+05
 cg2d: Sum(rhs),rhsMax =  -5.49560197310006E+01  1.67648588683464E+00
(PID.TID 0000.0001)  ploadbar=  1.01067263202466E+05
 cg2d: Sum(rhs),rhsMax =  -5.50948062489388E+01  1.67182138452666E+00
(PID.TID 0000.0001)  ploadbar=  1.01067502804316E+05
 cg2d: Sum(rhs),rhsMax =  -5.52322738451319E+01  1.66727823610452E+00
(PID.TID 0000.0001)  ploadbar=  1.01067742406167E+05
 cg2d: Sum(rhs),rhsMax =  -5.53779764343852E+01  1.66247865405956E+00
(PID.TID 0000.0001)  ploadbar=  1.01068188390344E+05
 cg2d: Sum(rhs),rhsMax =  -5.55281347442967E+01  1.65753606612620E+00
(PID.TID 0000.0001)  ploadbar=  1.01068634374521E+05
 cg2d: Sum(rhs),rhsMax =  -5.56814703748493E+01  1.65248946907420E+00
(PID.TID 0000.0001)  ploadbar=  1.01069080358697E+05
 cg2d: Sum(rhs),rhsMax =  -5.58397427581672E+01  1.64728331609315E+00
(PID.TID 0000.0001)  ploadbar=  1.01069526342874E+05
 cg2d: Sum(rhs),rhsMax =  -5.60040192265000E+01  1.64188792156241E+00
(PID.TID 0000.0001)  ploadbar=  1.01069972327051E+05
 cg2d: Sum(rhs),rhsMax =  -5.61756217530850E+01  1.63626501620200E+00
(PID.TID 0000.0001)  ploadbar=  1.01070418311227E+05
 cg2d: Sum(rhs),rhsMax =  -5.63536365588001E+01  1.63055267303454E+00
(PID.TID 0000.0001)  ploadbar=  1.01070900805615E+05
 cg2d: Sum(rhs),rhsMax =  -5.65334185566598E+01  1.62488138738989E+00
(PID.TID 0000.0001)  ploadbar=  1.01071383300002E+05
 cg2d: Sum(rhs),rhsMax =  -5.67145759860484E+01  1.61925648041037E+00
(PID.TID 0000.0001)  ploadbar=  1.01071865794389E+05
 cg2d: Sum(rhs),rhsMax =  -5.68962911374366E+01  1.61369558075755E+00
(PID.TID 0000.0001)  ploadbar=  1.01072348288776E+05
 cg2d: Sum(rhs),rhsMax =  -5.70776109445618E+01  1.60821825511256E+00
(PID.TID 0000.0001)  ploadbar=  1.01072830783164E+05
 cg2d: Sum(rhs),rhsMax =  -5.72573268009795E+01  1.60284721251911E+00
(PID.TID 0000.0001)  ploadbar=  1.01073313277551E+05
 cg2d: Sum(rhs),rhsMax =  -5.74433471641817E+01  1.59731086697837E+00
(PID.TID 0000.0001)  ploadbar=  1.01072083856466E+05
 cg2d: Sum(rhs),rhsMax =  -5.76331225305997E+01  1.59167632623366E+00
(PID.TID 0000.0001)  ploadbar=  1.01070854435382E+05
 cg2d: Sum(rhs),rhsMax =  -5.78211979604363E+01  1.58609081982650E+00
(PID.TID 0000.0001)  ploadbar=  1.01069625014297E+05
 cg2d: Sum(rhs),rhsMax =  -5.80104237609104E+01  1.58046986535998E+00
(PID.TID 0000.0001)  ploadbar=  1.01068395593213E+05
 cg2d: Sum(rhs),rhsMax =  -5.82013144587863E+01  1.57479649599557E+00
(PID.TID 0000.0001)  ploadbar=  1.01067166172128E+05
 cg2d: Sum(rhs),rhsMax =  -5.83930600867366E+01  1.56908786868861E+00
(PID.TID 0000.0001)  ploadbar=  1.01065936751043E+05
 cg2d: Sum(rhs),rhsMax =  -5.85845390099121E+01  1.56348197117635E+00
(PID.TID 0000.0001)  ploadbar=  1.01065075926970E+05
 cg2d: Sum(rhs),rhsMax =  -5.87795140051397E+01  1.55787636355693E+00
(PID.TID 0000.0001)  ploadbar=  1.01064215102897E+05
 cg2d: Sum(rhs),rhsMax =  -5.89715451239170E+01  1.55243523387103E+00
(PID.TID 0000.0001)  ploadbar=  1.01063354278823E+05
 cg2d: Sum(rhs),rhsMax =  -5.91584957138501E+01  1.54720513792366E+00
(PID.TID 0000.0001)  ploadbar=  1.01062493454750E+05
 cg2d: Sum(rhs),rhsMax =  -5.93396759934899E+01  1.54219404821448E+00
(PID.TID 0000.0001)  ploadbar=  1.01061632630676E+05
 cg2d: Sum(rhs),rhsMax =  -5.95138192128548E+01  1.53742394755295E+00
(PID.TID 0000.0001)  ploadbar=  1.01060771806603E+05
 cg2d: Sum(rhs),rhsMax =  -5.96815966840579E+01  1.53285408329697E+00
(PID.TID 0000.0001)  ploadbar=  1.01059349863927E+05
 cg2d: Sum(rhs),rhsMax =  -5.98484240071810E+01  1.52833745241366E+00
(PID.TID 0000.0001)  ploadbar=  1.01057927921251E+05
 cg2d: Sum(rhs),rhsMax =  -6.00135952372901E+01  1.52388586801912E+00
(PID.TID 0000.0001)  ploadbar=  1.01056505978574E+05
 cg2d: Sum(rhs),rhsMax =  -6.01755216451641E+01  1.51953135278465E+00
(PID.TID 0000.0001)  ploadbar=  1.01055084035898E+05
 cg2d: Sum(rhs),rhsMax =  -6.03345220080970E+01  1.51525194889637E+00
(PID.TID 0000.0001)  ploadbar=  1.01053662093222E+05
 cg2d: Sum(rhs),rhsMax =  -6.04897382379185E+01  1.51105776663564E+00
(PID.TID 0000.0001)  ploadbar=  1.01052240150546E+05
 cg2d: Sum(rhs),rhsMax =  -6.06198304021174E+01  1.50749375289681E+00
(PID.TID 0000.0001)  ploadbar=  1.01050121938352E+05
 cg2d: Sum(rhs),rhsMax =  -6.07339338833911E+01  1.50432789451500E+00
(PID.TID 0000.0001)  ploadbar=  1.01048003726159E+05
 cg2d: Sum(rhs),rhsMax =  -6.08346015732696E+01  1.50148682859850E+00
(PID.TID 0000.0001)  ploadbar=  1.01045885513965E+05
 cg2d: Sum(rhs),rhsMax =  -6.09117424552008E+01  1.49921355680905E+00
(PID.TID 0000.0001)  ploadbar=  1.01043767301771E+05
 cg2d: Sum(rhs),rhsMax =  -6.09637183075648E+01  1.49754042349322E+00
(PID.TID 0000.0001)  ploadbar=  1.01041649089578E+05
 cg2d: Sum(rhs),rhsMax =  -6.09943077976947E+01  1.49636626654975E+00
(PID.TID 0000.0001)  ploadbar=  1.01039530877384E+05
 cg2d: Sum(rhs),rhsMax =  -6.10214917186902E+01  1.49525697712167E+00
(PID.TID 0000.0001)  ploadbar=  1.01039548006352E+05
 cg2d: Sum(rhs),rhsMax =  -5.99463714278065E+01  1.52159912798257E+00
(PID.TID 0000.0001)  ploadbar=  1.01039565135320E+05
 cg2d: Sum(rhs),rhsMax =  -5.89849242039367E+01  1.54589068438011E+00
(PID.TID 0000.0001)  ploadbar=  1.01039582264288E+05
 cg2d: Sum(rhs),rhsMax =  -5.82421933907409E+01  1.56505647756317E+00
(PID.TID 0000.0001)  ploadbar=  1.01039599393256E+05
 cg2d: Sum(rhs),rhsMax =  -5.76729187955852E+01  1.57991622354653E+00
(PID.TID 0000.0001)  ploadbar=  1.01039616522223E+05
 cg2d: Sum(rhs),rhsMax =  -5.72441310299486E+01  1.59112228042782E+00
(PID.TID 0000.0001)  ploadbar=  1.01039633651191E+05
 cg2d: Sum(rhs),rhsMax =  -5.69515733362186E+01  1.59875731184964E+00
(PID.TID 0000.0001)  ploadbar=  1.01040373194049E+05
 cg2d: Sum(rhs),rhsMax =  -5.67746439611858E+01  1.60329118030663E+00
(PID.TID 0000.0001)  ploadbar=  1.01041112736906E+05
 cg2d: Sum(rhs),rhsMax =  -5.66908743475025E+01  1.60530062385452E+00
(PID.TID 0000.0001)  ploadbar=  1.01041852279763E+05
 cg2d: Sum(rhs),rhsMax =  -5.66813415157800E+01  1.60529659562590E+00
(PID.TID 0000.0001)  ploadbar=  1.01042591822620E+05
 cg2d: Sum(rhs),rhsMax =  -5.67352535499301E+01  1.60357377843504E+00
(PID.TID 0000.0001)  ploadbar=  1.01043331365477E+05
 cg2d: Sum(rhs),rhsMax =  -5.68550399431429E+01  1.60006706545651E+00
(PID.TID 0000.0001)  ploadbar=  1.01044070908335E+05
 cg2d: Sum(rhs),rhsMax =  -5.70311878889933E+01  1.59499774850836E+00
(PID.TID 0000.0001)  ploadbar=  1.01045290652252E+05
 cg2d: Sum(rhs),rhsMax =  -5.72537724868757E+01  1.58866686762146E+00
(PID.TID 0000.0001)  ploadbar=  1.01046510396169E+05
 cg2d: Sum(rhs),rhsMax =  -5.75244227349568E+01  1.58105183433376E+00
(PID.TID 0000.0001)  ploadbar=  1.01047730140087E+05
 cg2d: Sum(rhs),rhsMax =  -5.78426185144263E+01  1.57219296055319E+00
(PID.TID 0000.0001)  ploadbar=  1.01048949884004E+05
 cg2d: Sum(rhs),rhsMax =  -5.81945606785196E+01  1.56249790540119E+00
(PID.TID 0000.0001)  ploadbar=  1.01050169627921E+05
 cg2d: Sum(rhs),rhsMax =  -5.85788370702485E+01  1.55203617882760E+00
(PID.TID 0000.0001)  ploadbar=  1.01051389371839E+05
 cg2d: Sum(rhs),rhsMax =  -5.89896881735989E+01  1.54101033061944E+00
(PID.TID 0000.0001)  ploadbar=  1.01052678255644E+05
 cg2d: Sum(rhs),rhsMax =  -5.94273788619799E+01  1.52944024668260E+00
(PID.TID 0000.0001)  ploadbar=  1.01053967139449E+05
 cg2d: Sum(rhs),rhsMax =  -5.99001160201556E+01  1.51714183525971E+00
(PID.TID 0000.0001)  ploadbar=  1.01055256023254E+05
 cg2d: Sum(rhs),rhsMax =  -6.04172370259243E+01  1.50391680789386E+00
(PID.TID 0000.0001)  ploadbar=  1.01056544907059E+05
 cg2d: Sum(rhs),rhsMax =  -6.09919168450868E+01  1.48949479592408E+00
(PID.TID 0000.0001)  ploadbar=  1.01057833790864E+05
 cg2d: Sum(rhs),rhsMax =  -6.16339424926072E+01  1.47370811633043E+00
(PID.TID 0000.0001)  ploadbar=  1.01059122674669E+05
 cg2d: Sum(rhs),rhsMax =  -6.23129714653709E+01  1.45734923958325E+00
(PID.TID 0000.0001)  ploadbar=  1.01060310622718E+05
 cg2d: Sum(rhs),rhsMax =  -6.30129426274643E+01  1.44082826052260E+00
(PID.TID 0000.0001)  ploadbar=  1.01061498570767E+05
 cg2d: Sum(rhs),rhsMax =  -6.37176066115188E+01  1.42452476251853E+00
(PID.TID 0000.0001)  ploadbar=  1.01062686518816E+05
 cg2d: Sum(rhs),rhsMax =  -6.41635357842359E+01  1.41421543093520E+00
(PID.TID 0000.0001)  ploadbar=  1.01063874466864E+05
 cg2d: Sum(rhs),rhsMax =  -6.42528968389997E+01  1.41179518403667E+00
(PID.TID 0000.0001)  ploadbar=  1.01065062414913E+05
 cg2d: Sum(rhs),rhsMax =  -6.43365454657405E+01  1.40946043458551E+00
(PID.TID 0000.0001)  ploadbar=  1.01066250362962E+05
 cg2d: Sum(rhs),rhsMax =  -6.44063666464489E+01  1.40749076553221E+00
(PID.TID 0000.0001)  ploadbar=  1.01066025593410E+05
 cg2d: Sum(rhs),rhsMax =  -6.44728872329604E+01  1.40565291856328E+00
(PID.TID 0000.0001)  ploadbar=  1.01065800823859E+05
 cg2d: Sum(rhs),rhsMax =  -6.45320708602589E+01  1.40402979596225E+00
(PID.TID 0000.0001)  ploadbar=  1.01065576054307E+05
 cg2d: Sum(rhs),rhsMax =  -6.45844625442944E+01  1.40260406189434E+00
(PID.TID 0000.0001)  ploadbar=  1.01065351284755E+05
 cg2d: Sum(rhs),rhsMax =  -6.46329202474961E+01  1.40130618493224E+00
(PID.TID 0000.0001)  ploadbar=  1.01065126515204E+05
 cg2d: Sum(rhs),rhsMax =  -6.46787540392512E+01  1.40009745817821E+00
(PID.TID 0000.0001)  ploadbar=  1.01064901745652E+05
 cg2d: Sum(rhs),rhsMax =  -6.46928738922023E+01  1.39957693778321E+00
(PID.TID 0000.0001)  ploadbar=  1.01065709089233E+05
 cg2d: Sum(rhs),rhsMax =  -6.46926098321113E+01  1.39936300597609E+00
(PID.TID 0000.0001)  ploadbar=  1.01066516432813E+05
 cg2d: Sum(rhs),rhsMax =  -6.46834221503179E+01  1.39932968013421E+00
(PID.TID 0000.0001)  ploadbar=  1.01067323776394E+05
 cg2d: Sum(rhs),rhsMax =  -6.46578956377955E+01  1.39963069169716E+00
(PID.TID 0000.0001)  ploadbar=  1.01068131119974E+05
 cg2d: Sum(rhs),rhsMax =  -6.46140716149456E+01  1.40030659683777E+00
(PID.TID 0000.0001)  ploadbar=  1.01068938463555E+05
 cg2d: Sum(rhs),rhsMax =  -6.45495621071629E+01  1.40140389047631E+00
(PID.TID 0000.0001)  ploadbar=  1.01069745807136E+05
 cg2d: Sum(rhs),rhsMax =  -6.44745796091131E+01  1.40272568333652E+00
(PID.TID 0000.0001)  ploadbar=  1.01071273411471E+05
 cg2d: Sum(rhs),rhsMax =  -6.43758457080655E+01  1.40456223078179E+00
(PID.TID 0000.0001)  ploadbar=  1.01072801015807E+05
 cg2d: Sum(rhs),rhsMax =  -6.42564051089797E+01  1.40684824552952E+00
(PID.TID 0000.0001)  ploadbar=  1.01074328620142E+05
 cg2d: Sum(rhs),rhsMax =  -6.41173864649852E+01  1.40956054142502E+00
(PID.TID 0000.0001)  ploadbar=  1.01075856224478E+05
 cg2d: Sum(rhs),rhsMax =  -6.39569170174386E+01  1.41274014694229E+00
(PID.TID 0000.0001)  ploadbar=  1.01077383828813E+05
 cg2d: Sum(rhs),rhsMax =  -6.37736652210686E+01  1.41641724844095E+00
(PID.TID 0000.0001)  ploadbar=  1.01078911433149E+05
 cg2d: Sum(rhs),rhsMax =  -6.35699583594415E+01  1.42053030409541E+00
(PID.TID 0000.0001)  ploadbar=  1.01079164824774E+05
 cg2d: Sum(rhs),rhsMax =  -6.33442543815197E+01  1.42511948688768E+00
(PID.TID 0000.0001)  ploadbar=  1.01079418216399E+05
 cg2d: Sum(rhs),rhsMax =  -6.31066389355175E+01  1.42996281152437E+00
(PID.TID 0000.0001)  ploadbar=  1.01079671608025E+05
 cg2d: Sum(rhs),rhsMax =  -6.28553785625701E+01  1.43510215409517E+00
(PID.TID 0000.0001)  ploadbar=  1.01079924999650E+05
 cg2d: Sum(rhs),rhsMax =  -6.25892698632003E+01  1.44056956450868E+00
(PID.TID 0000.0001)  ploadbar=  1.01080178391276E+05
 cg2d: Sum(rhs),rhsMax =  -6.23099400745690E+01  1.44633283572515E+00
(PID.TID 0000.0001)  ploadbar=  1.01080431782901E+05
 cg2d: Sum(rhs),rhsMax =  -6.20447911543253E+01  1.45187232364489E+00
(PID.TID 0000.0001)  ploadbar=  1.01080845374981E+05
 cg2d: Sum(rhs),rhsMax =  -6.17775897713718E+01  1.45755945597124E+00
(PID.TID 0000.0001)  ploadbar=  1.01081258967061E+05
 cg2d: Sum(rhs),rhsMax =  -6.15077583913030E+01  1.46340828636876E+00
(PID.TID 0000.0001)  ploadbar=  1.01081672559141E+05
 cg2d: Sum(rhs),rhsMax =  -6.12401282773453E+01  1.46930168905977E+00
(PID.TID 0000.0001)  ploadbar=  1.01082086151220E+05
 cg2d: Sum(rhs),rhsMax =  -6.09752513493767E+01  1.47522245945971E+00
(PID.TID 0000.0001)  ploadbar=  1.01082499743300E+05
 cg2d: Sum(rhs),rhsMax =  -6.07138365825401E+01  1.48114656163944E+00
(PID.TID 0000.0001)  ploadbar=  1.01082913335380E+05
 cg2d: Sum(rhs),rhsMax =  -6.04487173445062E+01  1.48722200917360E+00
(PID.TID 0000.0001)  ploadbar=  1.01084374949727E+05
 cg2d: Sum(rhs),rhsMax =  -6.01911256121955E+01  1.49316889208237E+00
(PID.TID 0000.0001)  ploadbar=  1.01085836564074E+05
 cg2d: Sum(rhs),rhsMax =  -5.99417882938872E+01  1.49895702602177E+00
(PID.TID 0000.0001)  ploadbar=  1.01087298178421E+05
 cg2d: Sum(rhs),rhsMax =  -5.96987721709691E+01  1.50462448723529E+00
(PID.TID 0000.0001)  ploadbar=  1.01088759792768E+05
 cg2d: Sum(rhs),rhsMax =  -5.94609251140204E+01  1.51019509501238E+00
(PID.TID 0000.0001)  ploadbar=  1.01090221407115E+05
 cg2d: Sum(rhs),rhsMax =  -5.92279317888672E+01  1.51567066693264E+00
(PID.TID 0000.0001)  ploadbar=  1.01091683021462E+05
 cg2d: Sum(rhs),rhsMax =  -5.90057533952682E+01  1.52092276597798E+00
(PID.TID 0000.0001)  ploadbar=  1.01092445683921E+05
 cg2d: Sum(rhs),rhsMax =  -5.87860334725198E+01  1.52615826597787E+00
(PID.TID 0000.0001)  ploadbar=  1.01093208346380E+05
 cg2d: Sum(rhs),rhsMax =  -5.85670946010074E+01  1.53141575695273E+00
(PID.TID 0000.0001)  ploadbar=  1.01093971008839E+05
 cg2d: Sum(rhs),rhsMax =  -5.83467925312146E+01  1.53674534397239E+00
(PID.TID 0000.0001)  ploadbar=  1.01094733671298E+05
 cg2d: Sum(rhs),rhsMax =  -5.81260107467152E+01  1.54212181995526E+00
(PID.TID 0000.0001)  ploadbar=  1.01095496333758E+05
 cg2d: Sum(rhs),rhsMax =  -5.79053088102480E+01  1.54752957173262E+00
(PID.TID 0000.0001)  ploadbar=  1.01096258996217E+05
 cg2d: Sum(rhs),rhsMax =  -5.76681505659699E+01  1.55337389472251E+00
(PID.TID 0000.0001)  ploadbar=  1.01097608441159E+05
 cg2d: Sum(rhs),rhsMax =  -5.74293007879865E+01  1.55925843211344E+00
(PID.TID 0000.0001)  ploadbar=  1.01098957886102E+05
 cg2d: Sum(rhs),rhsMax =  -5.71899496583834E+01  1.56514943877587E+00
(PID.TID 0000.0001)  ploadbar=  1.01100307331045E+05
 cg2d: Sum(rhs),rhsMax =  -5.69494673081037E+01  1.57106220204117E+00
(PID.TID 0000.0001)  ploadbar=  1.01101656775988E+05
 cg2d: Sum(rhs),rhsMax =  -5.67072908187695E+01  1.57701048701340E+00
(PID.TID 0000.0001)  ploadbar=  1.01103006220930E+05
 cg2d: Sum(rhs),rhsMax =  -5.64632701982086E+01  1.58299753669191E+00
(PID.TID 0000.0001)  ploadbar=  1.01104355665873E+05
 cg2d: Sum(rhs),rhsMax =  -5.62188038979568E+01  1.58907858431309E+00
(PID.TID 0000.0001)  ploadbar=  1.01104796374273E+05
 cg2d: Sum(rhs),rhsMax =  -5.59703045309248E+01  1.59535605328342E+00
(PID.TID 0000.0001)  ploadbar=  1.01105237082672E+05
 cg2d: Sum(rhs),rhsMax =  -5.47670599382795E+01  1.62963931147175E+00
(PID.TID 0000.0001)  ploadbar=  1.01105677791072E+05
 cg2d: Sum(rhs),rhsMax =  -5.34534175664094E+01  1.66892852008747E+00
(PID.TID 0000.0001)  ploadbar=  1.01106118499471E+05
 cg2d: Sum(rhs),rhsMax =  -5.20998150207758E+01  1.71152963301562E+00
(PID.TID 0000.0001)  ploadbar=  1.01106559207871E+05
 cg2d: Sum(rhs),rhsMax =  -5.07301871746082E+01  1.75697317312402E+00
(PID.TID 0000.0001)  ploadbar=  1.01106999916270E+05
 cg2d: Sum(rhs),rhsMax =  -4.93690599718965E+01  1.80464593264878E+00
(PID.TID 0000.0001)  ploadbar=  1.01108596690080E+05
 cg2d: Sum(rhs),rhsMax =  -4.80023251168695E+01  1.85525440271706E+00
(PID.TID 0000.0001)  ploadbar=  1.01110193463891E+05
 cg2d: Sum(rhs),rhsMax =  -4.66159602721836E+01  1.90964558570590E+00
(PID.TID 0000.0001)  ploadbar=  1.01111790237701E+05
 cg2d: Sum(rhs),rhsMax =  -4.52179192814886E+01  1.96788586284857E+00
(PID.TID 0000.0001)  ploadbar=  1.01113387011511E+05
 cg2d: Sum(rhs),rhsMax =  -4.38230997692233E+01  2.02969739421154E+00
(PID.TID 0000.0001)  ploadbar=  1.01114983785321E+05
 cg2d: Sum(rhs),rhsMax =  -4.24478032258456E+01  2.09461307436348E+00
(PID.TID 0000.0001)  ploadbar=  1.01116580559131E+05
 cg2d: Sum(rhs),rhsMax =  -4.11843984974583E+01  2.15800325220878E+00
(PID.TID 0000.0001)  ploadbar=  1.01116913409116E+05
 cg2d: Sum(rhs),rhsMax =  -4.00504560479234E+01  2.21821173211480E+00
(PID.TID 0000.0001)  ploadbar=  1.01117246259102E+05
 cg2d: Sum(rhs),rhsMax =  -3.90435775135139E+01  2.27449371622827E+00
(PID.TID 0000.0001)  ploadbar=  1.01117579109087E+05
 cg2d: Sum(rhs),rhsMax =  -3.81504115751286E+01  2.32678104517313E+00
(PID.TID 0000.0001)  ploadbar=  1.01117911959072E+05
 cg2d: Sum(rhs),rhsMax =  -3.73575048964434E+01  2.37515674938926E+00
(PID.TID 0000.0001)  ploadbar=  1.01118244809058E+05
 cg2d: Sum(rhs),rhsMax =  -3.66528057433954E+01  2.41975884860405E+00
(PID.TID 0000.0001)  ploadbar=  1.01118577659043E+05
 cg2d: Sum(rhs),rhsMax =  -3.60220218191925E+01  2.46105445620124E+00
(PID.TID 0000.0001)  ploadbar=  1.01118738319826E+05
 cg2d: Sum(rhs),rhsMax =  -3.54409650483246E+01  2.50030526265700E+00
(PID.TID 0000.0001)  ploadbar=  1.01118898980609E+05
 cg2d: Sum(rhs),rhsMax =  -3.48962145105567E+01  2.53820876082320E+00
(PID.TID 0000.0001)  ploadbar=  1.01119059641393E+05
 cg2d: Sum(rhs),rhsMax =  -3.43797004850373E+01  2.57517668983637E+00
(PID.TID 0000.0001)  ploadbar=  1.01119220302176E+05
 cg2d: Sum(rhs),rhsMax =  -3.38882719869478E+01  2.61131192465365E+00
(PID.TID 0000.0001)  ploadbar=  1.01119380962959E+05
 cg2d: Sum(rhs),rhsMax =  -3.34341518916961E+01  2.64552485386139E+00
(PID.TID 0000.0001)  ploadbar=  1.01119541623742E+05
 cg2d: Sum(rhs),rhsMax =  -3.30149686121260E+01  2.67790172101633E+00
(PID.TID 0000.0001)  ploadbar=  1.01116962197760E+05
 cg2d: Sum(rhs),rhsMax =  -3.26446186264667E+01  2.70711392594871E+00
(PID.TID 0000.0001)  ploadbar=  1.01114382771778E+05
 cg2d: Sum(rhs),rhsMax =  -3.23260673321951E+01  2.73266854974480E+00
(PID.TID 0000.0001)  ploadbar=  1.01111803345796E+05
 cg2d: Sum(rhs),rhsMax =  -3.20601292877054E+01  2.75425094047536E+00
(PID.TID 0000.0001)  ploadbar=  1.01109223919814E+05
 cg2d: Sum(rhs),rhsMax =  -3.18445530865149E+01  2.77184113411091E+00
(PID.TID 0000.0001)  ploadbar=  1.01106644493832E+05
 cg2d: Sum(rhs),rhsMax =  -3.16660131801144E+01  2.78643858446867E+00
(PID.TID 0000.0001)  ploadbar=  1.01104065067850E+05
 cg2d: Sum(rhs),rhsMax =  -3.15377309603722E+01  2.79677450389720E+00
(PID.TID 0000.0001)  ploadbar=  1.01103997825697E+05
 cg2d: Sum(rhs),rhsMax =  -3.14490952116952E+01  2.80368724852253E+00
(PID.TID 0000.0001)  ploadbar=  1.01103930583545E+05
 cg2d: Sum(rhs),rhsMax =  -3.13971468406572E+01  2.80736919320887E+00
(PID.TID 0000.0001)  ploadbar=  1.01103863341393E+05
 cg2d: Sum(rhs),rhsMax =  -3.13795393555760E+01  2.80799580509670E+00
(PID.TID 0000.0001)  ploadbar=  1.01103796099240E+05
 cg2d: Sum(rhs),rhsMax =  -3.13934406399515E+01  2.80580138897405E+00
(PID.TID 0000.0001)  ploadbar=  1.01103728857088E+05
 cg2d: Sum(rhs),rhsMax =  -3.14361257867676E+01  2.80102856521982E+00
(PID.TID 0000.0001)  ploadbar=  1.01103661614935E+05
 cg2d: Sum(rhs),rhsMax =  -3.14993019495026E+01  2.79449529729264E+00
(PID.TID 0000.0001)  ploadbar=  1.01103628663314E+05
 cg2d: Sum(rhs),rhsMax =  -3.15815557970543E+01  2.78634532297505E+00
(PID.TID 0000.0001)  ploadbar=  1.01103595711693E+05
 cg2d: Sum(rhs),rhsMax =  -3.16805678674590E+01  2.77680166398010E+00
(PID.TID 0000.0001)  ploadbar=  1.01103562760071E+05
 cg2d: Sum(rhs),rhsMax =  -3.17991619342779E+01  2.76564070421948E+00
(PID.TID 0000.0001)  ploadbar=  1.01103529808450E+05
 cg2d: Sum(rhs),rhsMax =  -3.19379680983227E+01  2.75283798215862E+00
(PID.TID 0000.0001)  ploadbar=  1.01103496856829E+05
 cg2d: Sum(rhs),rhsMax =  -3.20992269143356E+01  2.73823815549481E+00
(PID.TID 0000.0001)  ploadbar=  1.01103463905207E+05
 cg2d: Sum(rhs),rhsMax =  -3.22474453274067E+01  2.72488716522730E+00
(PID.TID 0000.0001)  ploadbar=  1.01102875795594E+05
 cg2d: Sum(rhs),rhsMax =  -3.23961821251852E+01  2.71160840957990E+00
(PID.TID 0000.0001)  ploadbar=  1.01102287685982E+05
 cg2d: Sum(rhs),rhsMax =  -3.25412875457394E+01  2.69874327682561E+00
(PID.TID 0000.0001)  ploadbar=  1.01101699576369E+05
 cg2d: Sum(rhs),rhsMax =  -3.26872115687487E+01  2.68591248603114E+00
(PID.TID 0000.0001)  ploadbar=  1.01101111466756E+05
 cg2d: Sum(rhs),rhsMax =  -3.28440050525950E+01  2.67229584009519E+00
(PID.TID 0000.0001)  ploadbar=  1.01100523357143E+05
 cg2d: Sum(rhs),rhsMax =  -3.30212929065939E+01  2.65713706755096E+00
(PID.TID 0000.0001)  ploadbar=  1.01099935247530E+05
 cg2d: Sum(rhs),rhsMax =  -3.32063293198940E+01  2.64163008552563E+00
(PID.TID 0000.0001)  ploadbar=  1.01098920768281E+05
 cg2d: Sum(rhs),rhsMax =  -3.33848208744589E+01  2.62691293615041E+00
(PID.TID 0000.0001)  ploadbar=  1.01097906289033E+05
 cg2d: Sum(rhs),rhsMax =  -3.35535903417816E+01  2.61320664269110E+00
(PID.TID 0000.0001)  ploadbar=  1.01096891809784E+05
 cg2d: Sum(rhs),rhsMax =  -3.37160582312909E+01  2.60021026387908E+00
(PID.TID 0000.0001)  ploadbar=  1.01095877330535E+05
 cg2d: Sum(rhs),rhsMax =  -3.38762881113637E+01  2.58758327487786E+00
(PID.TID 0000.0001)  ploadbar=  1.01094862851286E+05
 cg2d: Sum(rhs),rhsMax =  -3.40339032959902E+01  2.57533045330976E+00
(PID.TID 0000.0001)  ploadbar=  1.01093848372038E+05
 cg2d: Sum(rhs),rhsMax =  -3.42285326135121E+01  2.56042270365452E+00
(PID.TID 0000.0001)  ploadbar=  1.01092346046292E+05
 cg2d: Sum(rhs),rhsMax =  -3.44352438017516E+01  2.54478259687945E+00
(PID.TID 0000.0001)  ploadbar=  1.01090843720546E+05
 cg2d: Sum(rhs),rhsMax =  -3.46475913796714E+01  2.52889471583837E+00
(PID.TID 0000.0001)  ploadbar=  1.01089341394799E+05
 cg2d: Sum(rhs),rhsMax =  -3.48691959510164E+01  2.51250293754418E+00
(PID.TID 0000.0001)  ploadbar=  1.01087839069053E+05
 cg2d: Sum(rhs),rhsMax =  -3.51055207063526E+01  2.49522828189906E+00
(PID.TID 0000.0001)  ploadbar=  1.01086336743307E+05
 cg2d: Sum(rhs),rhsMax =  -3.53639754647148E+01  2.47657907417004E+00
(PID.TID 0000.0001)  ploadbar=  1.01084834417561E+05
 cg2d: Sum(rhs),rhsMax =  -3.56288054861939E+01  2.45776345141576E+00
(PID.TID 0000.0001)  ploadbar=  1.01083124830448E+05
 cg2d: Sum(rhs),rhsMax =  -3.59020893145501E+01  2.43864723648874E+00
(PID.TID 0000.0001)  ploadbar=  1.01081415243335E+05
 cg2d: Sum(rhs),rhsMax =  -3.61712213750152E+01  2.42008785638156E+00
(PID.TID 0000.0001)  ploadbar=  1.01079705656221E+05
 cg2d: Sum(rhs),rhsMax =  -3.64261989439709E+01  2.40271967177467E+00
(PID.TID 0000.0001)  ploadbar=  1.01077996069108E+05
 cg2d: Sum(rhs),rhsMax =  -3.66628609707656E+01  2.38676043862643E+00
(PID.TID 0000.0001)  ploadbar=  1.01076286481994E+05
 cg2d: Sum(rhs),rhsMax =  -3.68900278937317E+01  2.37158023608966E+00
(PID.TID 0000.0001)  ploadbar=  1.01074576894881E+05
 cg2d: Sum(rhs),rhsMax =  -3.71322007627572E+01  2.35557398312633E+00
(PID.TID 0000.0001)  ploadbar=  1.01072501693505E+05
 cg2d: Sum(rhs),rhsMax =  -3.73905177463610E+01  2.33870214100598E+00
(PID.TID 0000.0001)  ploadbar=  1.01070426492129E+05
 cg2d: Sum(rhs),rhsMax =  -3.76645756852801E+01  2.32102604362470E+00
(PID.TID 0000.0001)  ploadbar=  1.01068351290753E+05
 cg2d: Sum(rhs),rhsMax =  -3.79537384648427E+01  2.30262108990447E+00
(PID.TID 0000.0001)  ploadbar=  1.01066276089377E+05
 cg2d: Sum(rhs),rhsMax =  -3.82568403290564E+01  2.28358905344756E+00
(PID.TID 0000.0001)  ploadbar=  1.01064200888001E+05
 cg2d: Sum(rhs),rhsMax =  -3.85744937088412E+01  2.26392621580359E+00
(PID.TID 0000.0001)  ploadbar=  1.01062125686624E+05
 cg2d: Sum(rhs),rhsMax =  -3.89278264244929E+01  2.24258280534947E+00
(PID.TID 0000.0001)  ploadbar=  1.01060329028973E+05
 cg2d: Sum(rhs),rhsMax =  -3.92832077546322E+01  2.22156009466379E+00
(PID.TID 0000.0001)  ploadbar=  1.01058532371321E+05
 cg2d: Sum(rhs),rhsMax =  -3.96123387038388E+01  2.20242250023585E+00
(PID.TID 0000.0001)  ploadbar=  1.01056735713670E+05
 cg2d: Sum(rhs),rhsMax =  -3.98791885816237E+01  2.18705009933131E+00
(PID.TID 0000.0001)  ploadbar=  1.01054939056018E+05
 cg2d: Sum(rhs),rhsMax =  -4.00650438277711E+01  2.17630937125877E+00
(PID.TID 0000.0001)  ploadbar=  1.01053142398367E+05
 cg2d: Sum(rhs),rhsMax =  -4.01889378471495E+01  2.16903271083544E+00
(PID.TID 0000.0001)  ploadbar=  1.01051345740716E+05
 cg2d: Sum(rhs),rhsMax =  -4.03066973512963E+01  2.16215894125578E+00
(PID.TID 0000.0001)  ploadbar=  1.01049363629346E+05
 cg2d: Sum(rhs),rhsMax =  -4.03914249208710E+01  2.15711342414281E+00
(PID.TID 0000.0001)  ploadbar=  1.01047381517976E+05
 cg2d: Sum(rhs),rhsMax =  -4.04006719747742E+01  2.15613093416042E+00
(PID.TID 0000.0001)  ploadbar=  1.01045399406607E+05
 cg2d: Sum(rhs),rhsMax =  -4.06124777699870E+01  2.14441986080894E+00
(PID.TID 0000.0001)  ploadbar=  1.01043417295237E+05
 cg2d: Sum(rhs),rhsMax =  -4.12172000924713E+01  2.11251887346835E+00
(PID.TID 0000.0001)  ploadbar=  1.01041435183867E+05
 cg2d: Sum(rhs),rhsMax =  -4.24242848697368E+01  2.05200457214125E+00
(PID.TID 0000.0001)  ploadbar=  1.01039453072498E+05
 cg2d: Sum(rhs),rhsMax =  -4.41958242774998E+01  1.96933928322399E+00
(PID.TID 0000.0001)  ploadbar=  1.01037602507481E+05
 cg2d: Sum(rhs),rhsMax =  -4.63033568236828E+01  1.87928110746700E+00
(PID.TID 0000.0001)  ploadbar=  1.01035751942464E+05
 cg2d: Sum(rhs),rhsMax =  -4.84306990847279E+01  1.79629819508661E+00
(PID.TID 0000.0001)  ploadbar=  1.01033901377447E+05
 cg2d: Sum(rhs),rhsMax =  -5.03660407816982E+01  1.72682823197416E+00
(PID.TID 0000.0001)  ploadbar=  1.01032050812430E+05
 cg2d: Sum(rhs),rhsMax =  -5.23090587256193E+01  1.66222514935881E+00
(PID.TID 0000.0001)  ploadbar=  1.01030200247413E+05
 cg2d: Sum(rhs),rhsMax =  -5.51473463951868E+01  1.57620554848149E+00
(PID.TID 0000.0001)  ploadbar=  1.01028349682396E+05
 cg2d: Sum(rhs),rhsMax =  -5.79724639513697E+01  1.49892532465360E+00
(PID.TID 0000.0001)  ploadbar=  1.01026836875449E+05
 cg2d: Sum(rhs),rhsMax =  -6.04829150253771E+01  1.43623969355140E+00
(PID.TID 0000.0001)  ploadbar=  1.01025324068503E+05
 cg2d: Sum(rhs),rhsMax =  -5.86905361144910E+01  1.47959167827653E+00
(PID.TID 0000.0001)  ploadbar=  1.01023811261556E+05
 cg2d: Sum(rhs),rhsMax =  -5.71622058575533E+01  1.51859573315270E+00
(PID.TID 0000.0001)  ploadbar=  1.01022298454610E+05
 cg2d: Sum(rhs),rhsMax =  -5.57547095297361E+01  1.55632491063337E+00
(PID.TID 0000.0001)  ploadbar=  1.01020785647663E+05
 cg2d: Sum(rhs),rhsMax =  -5.44155988366556E+01  1.59396182240478E+00
(PID.TID 0000.0001)  ploadbar=  1.01019272840716E+05
 cg2d: Sum(rhs),rhsMax =  -5.35246207154715E+01  1.61990357188212E+00
(PID.TID 0000.0001)  ploadbar=  1.01017657914290E+05
 cg2d: Sum(rhs),rhsMax =  -5.28107323082542E+01  1.64127983463472E+00
(PID.TID 0000.0001)  ploadbar=  1.01016042987863E+05
 cg2d: Sum(rhs),rhsMax =  -5.20598928026271E+01  1.66449646049833E+00
(PID.TID 0000.0001)  ploadbar=  1.01014428061437E+05
 cg2d: Sum(rhs),rhsMax =  -5.15922264868345E+01  1.67919804137191E+00
(PID.TID 0000.0001)  ploadbar=  1.01012813135010E+05
 cg2d: Sum(rhs),rhsMax =  -5.12924468654517E+01  1.68869196581208E+00
(PID.TID 0000.0001)  ploadbar=  1.01011198208584E+05
 cg2d: Sum(rhs),rhsMax =  -5.10705802256392E+01  1.69577319974135E+00
(PID.TID 0000.0001)  ploadbar=  1.01009583282157E+05
 cg2d: Sum(rhs),rhsMax =  -5.08789704447064E+01  1.70192798096917E+00
(PID.TID 0000.0001)  ploadbar=  1.01008621540755E+05
 cg2d: Sum(rhs),rhsMax =  -5.06980777866102E+01  1.70778650158539E+00
(PID.TID 0000.0001)  ploadbar=  1.01007659799352E+05
 cg2d: Sum(rhs),rhsMax =  -5.04789878362903E+01  1.71499711209400E+00
(PID.TID 0000.0001)  ploadbar=  1.01006698057950E+05
 cg2d: Sum(rhs),rhsMax =  -5.02321257928653E+01  1.72323135560090E+00
(PID.TID 0000.0001)  ploadbar=  1.01005736316548E+05
 cg2d: Sum(rhs),rhsMax =  -4.99681156882186E+01  1.73215111880889E+00
(PID.TID 0000.0001)  ploadbar=  1.01004774575146E+05
 cg2d: Sum(rhs),rhsMax =  -4.96917647234059E+01  1.74160835349595E+00
(PID.TID 0000.0001)  ploadbar=  1.01003812833743E+05
 cg2d: Sum(rhs),rhsMax =  -4.94144125302913E+01  1.75120784316350E+00
(PID.TID 0000.0001)  ploadbar=  1.01003376183838E+05
 cg2d: Sum(rhs),rhsMax =  -4.91200095649104E+01  1.76152264219230E+00
(PID.TID 0000.0001)  ploadbar=  1.01002939533932E+05
 cg2d: Sum(rhs),rhsMax =  -4.88231707649212E+01  1.77204423322269E+00
(PID.TID 0000.0001)  ploadbar=  1.01002502884026E+05
 cg2d: Sum(rhs),rhsMax =  -4.85370099005543E+01  1.78229262280003E+00
(PID.TID 0000.0001)  ploadbar=  1.01002066234120E+05
 cg2d: Sum(rhs),rhsMax =  -4.82831710089562E+01  1.79144465943337E+00
(PID.TID 0000.0001)  ploadbar=  1.01001629584215E+05
 cg2d: Sum(rhs),rhsMax =  -4.80714988301529E+01  1.79908989190490E+00
(PID.TID 0000.0001)  ploadbar=  1.01001192934309E+05
 cg2d: Sum(rhs),rhsMax =  -4.78529254514804E+01  1.80704472187266E+00
(PID.TID 0000.0001)  ploadbar=  1.01001201472928E+05
 cg2d: Sum(rhs),rhsMax =  -4.76596639297208E+01  1.81409030526664E+00
(PID.TID 0000.0001)  ploadbar=  1.01001210011547E+05
 cg2d: Sum(rhs),rhsMax =  -4.74863972627445E+01  1.82040574523269E+00
(PID.TID 0000.0001)  ploadbar=  1.01001218550165E+05
 cg2d: Sum(rhs),rhsMax =  -4.73266492143030E+01  1.82621683608443E+00
(PID.TID 0000.0001)  ploadbar=  1.01001227088784E+05
 cg2d: Sum(rhs),rhsMax =  -4.71797853522319E+01  1.83153370587827E+00
(PID.TID 0000.0001)  ploadbar=  1.01001235627403E+05
 cg2d: Sum(rhs),rhsMax =  -4.70593601689192E+01  1.83581250423840E+00
(PID.TID 0000.0001)  ploadbar=  1.01001244166022E+05
 cg2d: Sum(rhs),rhsMax =  -4.69826995343283E+01  1.83845790677476E+00
(PID.TID 0000.0001)  ploadbar=  1.01002117120839E+05
 cg2d: Sum(rhs),rhsMax =  -4.69070238365646E+01  1.84113039603241E+00
(PID.TID 0000.0001)  ploadbar=  1.01002990075656E+05
 cg2d: Sum(rhs),rhsMax =  -4.68410601120171E+01  1.84348215958529E+00
(PID.TID 0000.0001)  ploadbar=  1.01003863030472E+05
 cg2d: Sum(rhs),rhsMax =  -4.67834510410224E+01  1.84555973223938E+00
(PID.TID 0000.0001)  ploadbar=  1.01004735985289E+05
 cg2d: Sum(rhs),rhsMax =  -4.67340093455860E+01  1.84736171101111E+00
(PID.TID 0000.0001)  ploadbar=  1.01005608940106E+05
 cg2d: Sum(rhs),rhsMax =  -4.66992129159941E+01  1.84862447065643E+00
(PID.TID 0000.0001)  ploadbar=  1.01006481894923E+05
 cg2d: Sum(rhs),rhsMax =  -4.66572303992359E+01  1.85019656884318E+00
(PID.TID 0000.0001)  ploadbar=  1.01006942540371E+05
 cg2d: Sum(rhs),rhsMax =  -4.66397583754701E+01  1.85081498971697E+00
(PID.TID 0000.0001)  ploadbar=  1.01007403185819E+05
 cg2d: Sum(rhs),rhsMax =  -4.66358720779769E+01  1.85090753843974E+00
(PID.TID 0000.0001)  ploadbar=  1.01007863831267E+05
 cg2d: Sum(rhs),rhsMax =  -4.66470123577419E+01  1.85041338073159E+00
(PID.TID 0000.0001)  ploadbar=  1.01008324476715E+05
 cg2d: Sum(rhs),rhsMax =  -4.66699194453314E+01  1.84945717847070E+00
(PID.TID 0000.0001)  ploadbar=  1.01008785122162E+05
 cg2d: Sum(rhs),rhsMax =  -4.67016368674764E+01  1.84815365954225E+00
(PID.TID 0000.0001)  ploadbar=  1.01009245767610E+05
 cg2d: Sum(rhs),rhsMax =  -4.67493505845202E+01  1.84619597325501E+00
(PID.TID 0000.0001)  ploadbar=  1.01009212551515E+05
 cg2d: Sum(rhs),rhsMax =  -4.70939820900489E+01  1.83258758982103E+00
(PID.TID 0000.0001)  ploadbar=  1.01009179335419E+05
 cg2d: Sum(rhs),rhsMax =  -4.74280484449943E+01  1.81955073984934E+00
(PID.TID 0000.0001)  ploadbar=  1.01009146119324E+05
 cg2d: Sum(rhs),rhsMax =  -4.77522764172352E+01  1.80703191246968E+00
(PID.TID 0000.0001)  ploadbar=  1.01009112903229E+05
 cg2d: Sum(rhs),rhsMax =  -4.80675924940270E+01  1.79497180190633E+00
(PID.TID 0000.0001)  ploadbar=  1.01009079687133E+05
 cg2d: Sum(rhs),rhsMax =  -4.83714952134929E+01  1.78343659988267E+00
(PID.TID 0000.0001)  ploadbar=  1.01009046471038E+05
 cg2d: Sum(rhs),rhsMax =  -4.86776151023830E+01  1.77195131977420E+00
(PID.TID 0000.0001)  ploadbar=  1.01009111438115E+05
 cg2d: Sum(rhs),rhsMax =  -4.89766529861469E+01  1.76084984115055E+00
(PID.TID 0000.0001)  ploadbar=  1.01009176405192E+05
 cg2d: Sum(rhs),rhsMax =  -4.92660943081823E+01  1.75020121259505E+00
(PID.TID 0000.0001)  ploadbar=  1.01009241372269E+05
 cg2d: Sum(rhs),rhsMax =  -4.95513593355856E+01  1.73979688993271E+00
(PID.TID 0000.0001)  ploadbar=  1.01009306339346E+05
 cg2d: Sum(rhs),rhsMax =  -4.98314664915759E+01  1.72965647568980E+00
(PID.TID 0000.0001)  ploadbar=  1.01009371306423E+05
 cg2d: Sum(rhs),rhsMax =  -5.00927829641186E+01  1.72023823292599E+00
(PID.TID 0000.0001)  ploadbar=  1.01009436273500E+05
 cg2d: Sum(rhs),rhsMax =  -5.02760929796753E+01  1.71366012470666E+00
(PID.TID 0000.0001)  ploadbar=  1.01009981688788E+05
 cg2d: Sum(rhs),rhsMax =  -5.04556597674194E+01  1.70733854333539E+00
(PID.TID 0000.0001)  ploadbar=  1.01010527104076E+05
 cg2d: Sum(rhs),rhsMax =  -5.06276565108078E+01  1.70139119558673E+00
(PID.TID 0000.0001)  ploadbar=  1.01011072519363E+05
 cg2d: Sum(rhs),rhsMax =  -5.07938700531482E+01  1.69574469384132E+00
(PID.TID 0000.0001)  ploadbar=  1.01011617934651E+05
 cg2d: Sum(rhs),rhsMax =  -5.09572452442611E+01  1.69029011796206E+00
(PID.TID 0000.0001)  ploadbar=  1.01012163349939E+05
 cg2d: Sum(rhs),rhsMax =  -5.11142702443147E+01  1.68513455276361E+00
(PID.TID 0000.0001)  ploadbar=  1.01012708765226E+05
 cg2d: Sum(rhs),rhsMax =  -5.12433118359048E+01  1.68092176750280E+00
(PID.TID 0000.0001)  ploadbar=  1.01011997236032E+05
 cg2d: Sum(rhs),rhsMax =  -5.13689314030956E+01  1.67682510793438E+00
(PID.TID 0000.0001)  ploadbar=  1.01011285706839E+05
 cg2d: Sum(rhs),rhsMax =  -5.14949576685835E+01  1.67271261984772E+00
(PID.TID 0000.0001)  ploadbar=  1.01010574177645E+05
 cg2d: Sum(rhs),rhsMax =  -5.16201599300614E+01  1.66862022660985E+00
(PID.TID 0000.0001)  ploadbar=  1.01009862648451E+05
 cg2d: Sum(rhs),rhsMax =  -5.17449900893743E+01  1.66452601934854E+00
(PID.TID 0000.0001)  ploadbar=  1.01009151119258E+05
 cg2d: Sum(rhs),rhsMax =  -5.18679377692831E+01  1.66047447300888E+00
(PID.TID 0000.0001)  ploadbar=  1.01008439590064E+05
 cg2d: Sum(rhs),rhsMax =  -5.19842449558869E+01  1.65664740327483E+00
(PID.TID 0000.0001)  ploadbar=  1.01007821123086E+05
 cg2d: Sum(rhs),rhsMax =  -5.20953721095673E+01  1.65298993730609E+00
(PID.TID 0000.0001)  ploadbar=  1.01007202656107E+05
 cg2d: Sum(rhs),rhsMax =  -5.22123140715690E+01  1.64915039061624E+00
(PID.TID 0000.0001)  ploadbar=  1.01006584189128E+05
 cg2d: Sum(rhs),rhsMax =  -5.23293238584082E+01  1.64530764431880E+00
(PID.TID 0000.0001)  ploadbar=  1.01005965722150E+05
 cg2d: Sum(rhs),rhsMax =  -5.24462221950586E+01  1.64146362356959E+00
(PID.TID 0000.0001)  ploadbar=  1.01005347255171E+05
 cg2d: Sum(rhs),rhsMax =  -5.25634944832677E+01  1.63760016769234E+00
(PID.TID 0000.0001)  ploadbar=  1.01004728788192E+05
 cg2d: Sum(rhs),rhsMax =  -5.26988850338255E+01  1.63318163587697E+00
(PID.TID 0000.0001)  ploadbar=  1.01004440862180E+05
 cg2d: Sum(rhs),rhsMax =  -5.28341192034764E+01  1.62877864154624E+00
(PID.TID 0000.0001)  ploadbar=  1.01004152936168E+05
 cg2d: Sum(rhs),rhsMax =  -5.29678669552592E+01  1.62442713674124E+00
(PID.TID 0000.0001)  ploadbar=  1.01003865010157E+05
 cg2d: Sum(rhs),rhsMax =  -5.31001821902129E+01  1.62011815185301E+00
(PID.TID 0000.0001)  ploadbar=  1.01003577084145E+05
 cg2d: Sum(rhs),rhsMax =  -5.32280276189895E+01  1.61593855400830E+00
(PID.TID 0000.0001)  ploadbar=  1.01003289158133E+05
 cg2d: Sum(rhs),rhsMax =  -5.33470164472239E+01  1.61201992778376E+00
(PID.TID 0000.0001)  ploadbar=  1.01003001232121E+05
 cg2d: Sum(rhs),rhsMax =  -5.34487869111778E+01  1.60871590800071E+00
(PID.TID 0000.0001)  ploadbar=  1.01003189086114E+05
 cg2d: Sum(rhs),rhsMax =  -5.35300504719432E+01  1.60611552171538E+00
(PID.TID 0000.0001)  ploadbar=  1.01003376940107E+05
 cg2d: Sum(rhs),rhsMax =  -5.35887883952526E+01  1.60426873455597E+00
(PID.TID 0000.0001)  ploadbar=  1.01003564794101E+05
 cg2d: Sum(rhs),rhsMax =  -5.36191671361583E+01  1.60334034901952E+00
(PID.TID 0000.0001)  ploadbar=  1.01003752648094E+05
 cg2d: Sum(rhs),rhsMax =  -5.36190748840589E+01  1.60338557529509E+00
(PID.TID 0000.0001)  ploadbar=  1.01003940502087E+05
 cg2d: Sum(rhs),rhsMax =  -5.35900462980763E+01  1.60435155712691E+00
(PID.TID 0000.0001)  ploadbar=  1.01004128356081E+05
 cg2d: Sum(rhs),rhsMax =  -5.35482046941145E+01  1.60569748158593E+00
(PID.TID 0000.0001)  ploadbar=  1.01003486071884E+05
 cg2d: Sum(rhs),rhsMax =  -5.34796193703082E+01  1.60784000902398E+00
(PID.TID 0000.0001)  ploadbar=  1.01002843787686E+05
 cg2d: Sum(rhs),rhsMax =  -5.33811540373446E+01  1.61087311703814E+00
(PID.TID 0000.0001)  ploadbar=  1.01002201503489E+05
 cg2d: Sum(rhs),rhsMax =  -5.32538784927875E+01  1.61476779958347E+00
(PID.TID 0000.0001)  ploadbar=  1.01001559219292E+05
 cg2d: Sum(rhs),rhsMax =  -5.30965683391368E+01  1.61956700769179E+00
(PID.TID 0000.0001)  ploadbar=  1.01000916935095E+05
 cg2d: Sum(rhs),rhsMax =  -5.29085135039656E+01  1.62530498666232E+00
(PID.TID 0000.0001)  ploadbar=  1.01000274650898E+05
 cg2d: Sum(rhs),rhsMax =  -5.26999423585380E+01  1.63173807835541E+00
(PID.TID 0000.0001)  ploadbar=  1.00999766561883E+05
 cg2d: Sum(rhs),rhsMax =  -5.24888250608716E+01  1.63831432792545E+00
(PID.TID 0000.0001)  ploadbar=  1.00999258472867E+05
 cg2d: Sum(rhs),rhsMax =  -5.22952462696927E+01  1.64440018798962E+00
(PID.TID 0000.0001)  ploadbar=  1.00998750383852E+05
 cg2d: Sum(rhs),rhsMax =  -5.21234855529248E+01  1.64984464614157E+00
(PID.TID 0000.0001)  ploadbar=  1.00998242294836E+05
 cg2d: Sum(rhs),rhsMax =  -5.19812078521915E+01  1.65438462429431E+00
(PID.TID 0000.0001)  ploadbar=  1.00997734205821E+05
 cg2d: Sum(rhs),rhsMax =  -5.18728570573304E+01  1.65785574973252E+00
(PID.TID 0000.0001)  ploadbar=  1.00997226116805E+05
 cg2d: Sum(rhs),rhsMax =  -5.18213831498734E+01  1.65951879496512E+00
(PID.TID 0000.0001)  ploadbar=  1.00996314948131E+05
 cg2d: Sum(rhs),rhsMax =  -5.18118004132745E+01  1.65983131978744E+00
(PID.TID 0000.0001)  ploadbar=  1.00995403779457E+05
 cg2d: Sum(rhs),rhsMax =  -5.18352098005076E+01  1.65907029714258E+00
(PID.TID 0000.0001)  ploadbar=  1.00994492610782E+05
 cg2d: Sum(rhs),rhsMax =  -5.18944384465143E+01  1.65714839459330E+00
(PID.TID 0000.0001)  ploadbar=  1.00993581442108E+05
 cg2d: Sum(rhs),rhsMax =  -5.19853163895376E+01  1.65420584918120E+00
(PID.TID 0000.0001)  ploadbar=  1.00992670273433E+05
 cg2d: Sum(rhs),rhsMax =  -5.21032375059083E+01  1.65039637879993E+00
(PID.TID 0000.0001)  ploadbar=  1.00991759104759E+05
 cg2d: Sum(rhs),rhsMax =  -5.22651512795470E+01  1.64528412338310E+00
(PID.TID 0000.0001)  ploadbar=  1.00992949505258E+05
 cg2d: Sum(rhs),rhsMax =  -5.24495662186114E+01  1.63956681034107E+00
(PID.TID 0000.0001)  ploadbar=  1.00994139905757E+05
 cg2d: Sum(rhs),rhsMax =  -5.26453517455667E+01  1.63360552104466E+00
(PID.TID 0000.0001)  ploadbar=  1.00995330306256E+05
 cg2d: Sum(rhs),rhsMax =  -5.28444202738222E+01  1.62764942982862E+00
(PID.TID 0000.0001)  ploadbar=  1.00996520706754E+05
 cg2d: Sum(rhs),rhsMax =  -5.30410328668739E+01  1.62186666383231E+00
(PID.TID 0000.0001)  ploadbar=  1.00997711107253E+05
 cg2d: Sum(rhs),rhsMax =  -5.32321239559284E+01  1.61634121344807E+00
(PID.TID 0000.0001)  ploadbar=  1.00998901507752E+05
 cg2d: Sum(rhs),rhsMax =  -5.34203149127276E+01  1.61092107205669E+00
(PID.TID 0000.0001)  ploadbar=  1.00999550211358E+05
 cg2d: Sum(rhs),rhsMax =  -5.36042349720863E+01  1.60564123370175E+00
(PID.TID 0000.0001)  ploadbar=  1.01000198914964E+05
 cg2d: Sum(rhs),rhsMax =  -5.37803977122153E+01  1.60059482407081E+00
(PID.TID 0000.0001)  ploadbar=  1.01000847618570E+05
 cg2d: Sum(rhs),rhsMax =  -5.39489317263290E+01  1.59576706244015E+00
(PID.TID 0000.0001)  ploadbar=  1.01001496322175E+05
 cg2d: Sum(rhs),rhsMax =  -5.41122841864232E+01  1.59107583666661E+00
(PID.TID 0000.0001)  ploadbar=  1.01002145025781E+05
 cg2d: Sum(rhs),rhsMax =  -5.42683386338068E+01  1.58657933570327E+00
(PID.TID 0000.0001)  ploadbar=  1.01002793729387E+05
 cg2d: Sum(rhs),rhsMax =  -5.44125662164584E+01  1.58245142897334E+00
(PID.TID 0000.0001)  ploadbar=  1.01004354675381E+05
 cg2d: Sum(rhs),rhsMax =  -5.45493479207840E+01  1.57855458808871E+00
(PID.TID 0000.0001)  ploadbar=  1.01005915621374E+05
 cg2d: Sum(rhs),rhsMax =  -5.46745973089152E+01  1.57499718835008E+00
(PID.TID 0000.0001)  ploadbar=  1.01007476567368E+05
 cg2d: Sum(rhs),rhsMax =  -5.47967718188256E+01  1.57152818663455E+00
(PID.TID 0000.0001)  ploadbar=  1.01009037513361E+05
 cg2d: Sum(rhs),rhsMax =  -5.49246625181606E+01  1.56788975749496E+00
(PID.TID 0000.0001)  ploadbar=  1.01010598459355E+05
 cg2d: Sum(rhs),rhsMax =  -5.50570988004252E+01  1.56411039901223E+00
(PID.TID 0000.0001)  ploadbar=  1.01012159405348E+05
 cg2d: Sum(rhs),rhsMax =  -5.51692241204906E+01  1.56088469755852E+00
(PID.TID 0000.0001)  ploadbar=  1.01013901388504E+05
 cg2d: Sum(rhs),rhsMax =  -5.52747860204558E+01  1.55781831770866E+00
(PID.TID 0000.0001)  ploadbar=  1.01015643371660E+05
 cg2d: Sum(rhs),rhsMax =  -5.53873459516157E+01  1.55452384943504E+00
(PID.TID 0000.0001)  ploadbar=  1.01017385354815E+05
 cg2d: Sum(rhs),rhsMax =  -5.55053083124567E+01  1.55104781449547E+00
(PID.TID 0000.0001)  ploadbar=  1.01019127337971E+05
 cg2d: Sum(rhs),rhsMax =  -5.56199647896958E+01  1.54763363229968E+00
(PID.TID 0000.0001)  ploadbar=  1.01020869321127E+05
 cg2d: Sum(rhs),rhsMax =  -5.57288132757108E+01  1.54434763383382E+00
(PID.TID 0000.0001)  ploadbar=  1.01022611304282E+05
 cg2d: Sum(rhs),rhsMax =  -5.58404970832673E+01  1.54105882026271E+00
(PID.TID 0000.0001)  ploadbar=  1.01025423218284E+05
 cg2d: Sum(rhs),rhsMax =  -5.59400954891380E+01  1.53817720481593E+00
(PID.TID 0000.0001)  ploadbar=  1.01028235132286E+05
 cg2d: Sum(rhs),rhsMax =  -5.60335995192116E+01  1.53553433228485E+00
(PID.TID 0000.0001)  ploadbar=  1.01031047046288E+05
 cg2d: Sum(rhs),rhsMax =  -5.61141419832388E+01  1.53331069669075E+00
(PID.TID 0000.0001)  ploadbar=  1.01033858960290E+05
 cg2d: Sum(rhs),rhsMax =  -5.61809728059681E+01  1.53151634227389E+00
(PID.TID 0000.0001)  ploadbar=  1.01036670874291E+05
 cg2d: Sum(rhs),rhsMax =  -5.62380202758874E+01  1.53003500128526E+00
(PID.TID 0000.0001)  ploadbar=  1.01039482788293E+05
 cg2d: Sum(rhs),rhsMax =  -5.62702017404559E+01  1.52924727869035E+00
(PID.TID 0000.0001)  ploadbar=  1.01041155659772E+05
 cg2d: Sum(rhs),rhsMax =  -5.62870013540263E+01  1.52888730648888E+00
(PID.TID 0000.0001)  ploadbar=  1.01042828531251E+05
 cg2d: Sum(rhs),rhsMax =  -5.62948490226767E+01  1.52877680847569E+00
(PID.TID 0000.0001)  ploadbar=  1.01044501402730E+05
 cg2d: Sum(rhs),rhsMax =  -5.62924635602169E+01  1.52894132365355E+00
(PID.TID 0000.0001)  ploadbar=  1.01046174274209E+05
 cg2d: Sum(rhs),rhsMax =  -5.62777637795036E+01  1.52942888752371E+00
(PID.TID 0000.0001)  ploadbar=  1.01047847145688E+05
 cg2d: Sum(rhs),rhsMax =  -5.62470249716152E+01  1.53033713554428E+00
(PID.TID 0000.0001)  ploadbar=  1.01049520017167E+05
 cg2d: Sum(rhs),rhsMax =  -5.61759822123292E+01  1.53230685141588E+00
(PID.TID 0000.0001)  ploadbar=  1.01051209824911E+05
 cg2d: Sum(rhs),rhsMax =  -5.60653591207013E+01  1.53532251710638E+00
(PID.TID 0000.0001)  ploadbar=  1.01052899632655E+05
 cg2d: Sum(rhs),rhsMax =  -5.59109766796853E+01  1.53950759565538E+00
(PID.TID 0000.0001)  ploadbar=  1.01054589440398E+05
 cg2d: Sum(rhs),rhsMax =  -5.57083557313782E+01  1.54500414818282E+00
(PID.TID 0000.0001)  ploadbar=  1.01056279248142E+05
 cg2d: Sum(rhs),rhsMax =  -5.54484037773451E+01  1.55209019955991E+00
(PID.TID 0000.0001)  ploadbar=  1.01057969055886E+05
 cg2d: Sum(rhs),rhsMax =  -5.50977200642217E+01  1.56174772680749E+00
(PID.TID 0000.0001)  ploadbar=  1.01059658863629E+05
 cg2d: Sum(rhs),rhsMax =  -5.46937100368769E+01  1.57304583399616E+00
(PID.TID 0000.0001)  ploadbar=  1.01061059325345E+05
 cg2d: Sum(rhs),rhsMax =  -5.42402177374505E+01  1.58593864824113E+00
(PID.TID 0000.0001)  ploadbar=  1.01062459787061E+05
 cg2d: Sum(rhs),rhsMax =  -5.37501827777156E+01  1.60011285000242E+00
(PID.TID 0000.0001)  ploadbar=  1.01063860248777E+05
 cg2d: Sum(rhs),rhsMax =  -5.32277463685176E+01  1.61550728335699E+00
(PID.TID 0000.0001)  ploadbar=  1.01065260710493E+05
 cg2d: Sum(rhs),rhsMax =  -5.26658177978637E+01  1.63240506997058E+00
(PID.TID 0000.0001)  ploadbar=  1.01066661172209E+05
 cg2d: Sum(rhs),rhsMax =  -5.20566322681582E+01  1.65113843077050E+00
(PID.TID 0000.0001)  ploadbar=  1.01068061633925E+05
 cg2d: Sum(rhs),rhsMax =  -5.14047606960969E+01  1.67177241428046E+00
(PID.TID 0000.0001)  ploadbar=  1.01068830276689E+05
 cg2d: Sum(rhs),rhsMax =  -5.07104263646936E+01  1.69442300404386E+00
(PID.TID 0000.0001)  ploadbar=  1.01069598919453E+05
 cg2d: Sum(rhs),rhsMax =  -4.99699802843737E+01  1.71935526919282E+00
(PID.TID 0000.0001)  ploadbar=  1.01070367562217E+05
 cg2d: Sum(rhs),rhsMax =  -4.91804320748164E+01  1.74684620542823E+00
(PID.TID 0000.0001)  ploadbar=  1.01071136204981E+05
 cg2d: Sum(rhs),rhsMax =  -4.83414536564088E+01  1.77710666088502E+00
(PID.TID 0000.0001)  ploadbar=  1.01071904847746E+05
 cg2d: Sum(rhs),rhsMax =  -4.74530324077635E+01  1.81036703360154E+00
(PID.TID 0000.0001)  ploadbar=  1.01072673490510E+05
 cg2d: Sum(rhs),rhsMax =  -4.59395512958153E+01  1.86994679000835E+00
(PID.TID 0000.0001)  ploadbar=  1.01072580482623E+05
 cg2d: Sum(rhs),rhsMax =  -4.45025767110365E+01  1.93019803428104E+00
(PID.TID 0000.0001)  ploadbar=  1.01072487474736E+05
 cg2d: Sum(rhs),rhsMax =  -4.31607526857853E+01  1.98999972693081E+00
(PID.TID 0000.0001)  ploadbar=  1.01072394466850E+05
 cg2d: Sum(rhs),rhsMax =  -4.19145301648573E+01  2.04886972629389E+00
(PID.TID 0000.0001)  ploadbar=  1.01072301458963E+05
 cg2d: Sum(rhs),rhsMax =  -4.07515435092318E+01  2.10694103793756E+00
(PID.TID 0000.0001)  ploadbar=  1.01072208451077E+05
 cg2d: Sum(rhs),rhsMax =  -3.95893163638360E+01  2.16827845604179E+00
(PID.TID 0000.0001)  ploadbar=  1.01072115443190E+05
 cg2d: Sum(rhs),rhsMax =  -3.85563086198746E+01  2.22583384454459E+00
(PID.TID 0000.0001)  ploadbar=  1.01072022508781E+05
 cg2d: Sum(rhs),rhsMax =  -3.76543613693710E+01  2.27858390252556E+00
(PID.TID 0000.0001)  ploadbar=  1.01071929574373E+05
 cg2d: Sum(rhs),rhsMax =  -3.68748356556513E+01  2.32615410682107E+00
(PID.TID 0000.0001)  ploadbar=  1.01071836639964E+05
 cg2d: Sum(rhs),rhsMax =  -3.62031187581810E+01  2.36867841659913E+00
(PID.TID 0000.0001)  ploadbar=  1.01071743705555E+05
 cg2d: Sum(rhs),rhsMax =  -3.56316110906265E+01  2.40599558990667E+00
(PID.TID 0000.0001)  ploadbar=  1.01071650771147E+05
 cg2d: Sum(rhs),rhsMax =  -3.51507690760936E+01  2.43818672485096E+00
(PID.TID 0000.0001)  ploadbar=  1.01071557836738E+05
 cg2d: Sum(rhs),rhsMax =  -3.47206995279599E+01  2.46765925790882E+00
(PID.TID 0000.0001)  ploadbar=  1.01070657567954E+05
 cg2d: Sum(rhs),rhsMax =  -3.43556773103030E+01  2.49313271242006E+00
(PID.TID 0000.0001)  ploadbar=  1.01069757299170E+05
 cg2d: Sum(rhs),rhsMax =  -3.40375019756935E+01  2.51567416153994E+00
(PID.TID 0000.0001)  ploadbar=  1.01068857030386E+05
 cg2d: Sum(rhs),rhsMax =  -3.38283639919404E+01  2.53044406205518E+00
(PID.TID 0000.0001)  ploadbar=  1.01067956761602E+05
 cg2d: Sum(rhs),rhsMax =  -3.36425938121286E+01  2.54361352535388E+00
(PID.TID 0000.0001)  ploadbar=  1.01067056492818E+05
 cg2d: Sum(rhs),rhsMax =  -3.34911779762050E+01  2.55429050806844E+00
(PID.TID 0000.0001)  ploadbar=  1.01066156224034E+05
 cg2d: Sum(rhs),rhsMax =  -3.33614809787096E+01  2.56353836820393E+00
(PID.TID 0000.0001)  ploadbar=  1.01064661629086E+05
 cg2d: Sum(rhs),rhsMax =  -3.32577417798502E+01  2.57099300716898E+00
(PID.TID 0000.0001)  ploadbar=  1.01063167034138E+05
 cg2d: Sum(rhs),rhsMax =  -3.32056719712097E+01  2.57462114984934E+00
(PID.TID 0000.0001)  ploadbar=  1.01061672439190E+05
 cg2d: Sum(rhs),rhsMax =  -3.32082653231839E+01  2.57414855184429E+00
(PID.TID 0000.0001)  ploadbar=  1.01060177844242E+05
 cg2d: Sum(rhs),rhsMax =  -3.32684505134760E+01  2.56933691391542E+00
(PID.TID 0000.0001)  ploadbar=  1.01058683249294E+05
 cg2d: Sum(rhs),rhsMax =  -3.34014862611485E+01  2.55905433742124E+00
(PID.TID 0000.0001)  ploadbar=  1.01057188654347E+05
 cg2d: Sum(rhs),rhsMax =  -3.35798946962323E+01  2.54535623953194E+00
(PID.TID 0000.0001)  ploadbar=  1.01055772366905E+05
 cg2d: Sum(rhs),rhsMax =  -3.38498554593669E+01  2.52489395502803E+00
(PID.TID 0000.0001)  ploadbar=  1.01054356079463E+05
 cg2d: Sum(rhs),rhsMax =  -3.42040595811120E+01  2.49851164453940E+00
(PID.TID 0000.0001)  ploadbar=  1.01052939792021E+05
 cg2d: Sum(rhs),rhsMax =  -3.46330599729921E+01  2.46725306417653E+00
(PID.TID 0000.0001)  ploadbar=  1.01051523504579E+05
 cg2d: Sum(rhs),rhsMax =  -3.51266919305504E+01  2.43219595662601E+00
(PID.TID 0000.0001)  ploadbar=  1.01050107217137E+05
 cg2d: Sum(rhs),rhsMax =  -3.56752031764060E+01  2.39433941433222E+00
(PID.TID 0000.0001)  ploadbar=  1.01048690929695E+05
 cg2d: Sum(rhs),rhsMax =  -3.62959197214596E+01  2.35292638902841E+00
(PID.TID 0000.0001)  ploadbar=  1.01048052080934E+05
 cg2d: Sum(rhs),rhsMax =  -3.68820742680201E+01  2.31505681943893E+00
(PID.TID 0000.0001)  ploadbar=  1.01047413232173E+05
 cg2d: Sum(rhs),rhsMax =  -3.74286021240835E+01  2.28076561053640E+00
(PID.TID 0000.0001)  ploadbar=  1.01046774383412E+05
 cg2d: Sum(rhs),rhsMax =  -3.79570606256434E+01  2.24850668000340E+00
(PID.TID 0000.0001)  ploadbar=  1.01046135534651E+05
 cg2d: Sum(rhs),rhsMax =  -3.85023419026749E+01  2.21613206813527E+00
(PID.TID 0000.0001)  ploadbar=  1.01045496685890E+05
 cg2d: Sum(rhs),rhsMax =  -3.90993679768643E+01  2.18172789476316E+00
(PID.TID 0000.0001)  ploadbar=  1.01044857837129E+05
 cg2d: Sum(rhs),rhsMax =  -3.97523271092993E+01  2.14529894187045E+00
(PID.TID 0000.0001)  ploadbar=  1.01044223273188E+05
 cg2d: Sum(rhs),rhsMax =  -4.05149717717419E+01  2.10429564332149E+00
(PID.TID 0000.0001)  ploadbar=  1.01043588709246E+05
 cg2d: Sum(rhs),rhsMax =  -4.13596456787116E+01  2.06066577455974E+00
(PID.TID 0000.0001)  ploadbar=  1.01042954145305E+05
 cg2d: Sum(rhs),rhsMax =  -4.22399880995379E+01  2.01702903737779E+00
(PID.TID 0000.0001)  ploadbar=  1.01042319581363E+05
 cg2d: Sum(rhs),rhsMax =  -4.37853325066915E+01  1.94512626116662E+00
(PID.TID 0000.0001)  ploadbar=  1.01041685017422E+05
 cg2d: Sum(rhs),rhsMax =  -4.55963462412010E+01  1.86713475754900E+00
(PID.TID 0000.0001)  ploadbar=  1.01041050453480E+05
 cg2d: Sum(rhs),rhsMax =  -4.76119149143177E+01  1.78746877093799E+00
(PID.TID 0000.0001)  ploadbar=  1.01041634494518E+05
 cg2d: Sum(rhs),rhsMax =  -4.98550100121883E+01  1.70652477961477E+00
(PID.TID 0000.0001)  ploadbar=  1.01042218535556E+05
 cg2d: Sum(rhs),rhsMax =  -5.23708795349024E+01  1.62411624697383E+00
(PID.TID 0000.0001)  ploadbar=  1.01042802576595E+05
 cg2d: Sum(rhs),rhsMax =  -5.51928471002361E+01  1.54073182638081E+00
(PID.TID 0000.0001)  ploadbar=  1.01043386617633E+05
 cg2d: Sum(rhs),rhsMax =  -5.83032737375219E+01  1.45825970387798E+00
(PID.TID 0000.0001)  ploadbar=  1.01043970658671E+05
 cg2d: Sum(rhs),rhsMax =  -6.16499876717219E+01  1.37887879221116E+00
(PID.TID 0000.0001)  ploadbar=  1.01044554699709E+05
 cg2d: Sum(rhs),rhsMax =  -6.50255370905817E+01  1.30709134461568E+00
(PID.TID 0000.0001)  ploadbar=  1.01044040293573E+05
 cg2d: Sum(rhs),rhsMax =  -6.73994261801019E+01  1.26084234779773E+00
(PID.TID 0000.0001)  ploadbar=  1.01043525887436E+05
 cg2d: Sum(rhs),rhsMax =  -6.49860978892695E+01  1.30743067750507E+00
(PID.TID 0000.0001)  ploadbar=  1.01043011481300E+05
 cg2d: Sum(rhs),rhsMax =  -6.30838354143033E+01  1.34659482793093E+00
(PID.TID 0000.0001)  ploadbar=  1.01042497075164E+05
 cg2d: Sum(rhs),rhsMax =  -6.16673698626042E+01  1.37723509576942E+00
(PID.TID 0000.0001)  ploadbar=  1.01041982669028E+05
 cg2d: Sum(rhs),rhsMax =  -6.06535114244714E+01  1.39993530034905E+00
(PID.TID 0000.0001)  ploadbar=  1.01041468262891E+05
 cg2d: Sum(rhs),rhsMax =  -6.00186315561479E+01  1.41442776086958E+00
(PID.TID 0000.0001)  ploadbar=  1.01040898851457E+05
 cg2d: Sum(rhs),rhsMax =  -5.95699865899367E+01  1.42476503337111E+00
(PID.TID 0000.0001)  ploadbar=  1.01040329440023E+05
 cg2d: Sum(rhs),rhsMax =  -5.92558076316010E+01  1.43200068222498E+00
(PID.TID 0000.0001)  ploadbar=  1.01039760028589E+05
 cg2d: Sum(rhs),rhsMax =  -5.90313070140567E+01  1.43712042833537E+00
(PID.TID 0000.0001)  ploadbar=  1.01039190617155E+05
 cg2d: Sum(rhs),rhsMax =  -5.88652472870358E+01  1.44083511390281E+00
(PID.TID 0000.0001)  ploadbar=  1.01038621205722E+05
 cg2d: Sum(rhs),rhsMax =  -5.87512592885740E+01  1.44327281045634E+00
(PID.TID 0000.0001)  ploadbar=  1.01038051794288E+05
 cg2d: Sum(rhs),rhsMax =  -5.86927788221426E+01  1.44435011943222E+00
(PID.TID 0000.0001)  ploadbar=  1.01037918909047E+05
 cg2d: Sum(rhs),rhsMax =  -5.87073980408349E+01  1.44362249203867E+00
(PID.TID 0000.0001)  ploadbar=  1.01037786023807E+05
 cg2d: Sum(rhs),rhsMax =  -5.88064917637497E+01  1.44081110297847E+00
(PID.TID 0000.0001)  ploadbar=  1.01037653138566E+05
 cg2d: Sum(rhs),rhsMax =  -5.89601358283077E+01  1.43666515399787E+00
(PID.TID 0000.0001)  ploadbar=  1.01037520253326E+05
 cg2d: Sum(rhs),rhsMax =  -5.91315899102971E+01  1.43209527502102E+00
(PID.TID 0000.0001)  ploadbar=  1.01037387368086E+05
 cg2d: Sum(rhs),rhsMax =  -5.92436697038359E+01  1.42896617695872E+00
(PID.TID 0000.0001)  ploadbar=  1.01037254482845E+05
 cg2d: Sum(rhs),rhsMax =  -5.92919203707935E+01  1.42743056505189E+00
(PID.TID 0000.0001)  ploadbar=  1.01036891688356E+05
 cg2d: Sum(rhs),rhsMax =  -5.93595577464356E+01  1.42547710054662E+00
(PID.TID 0000.0001)  ploadbar=  1.01036528893866E+05
 cg2d: Sum(rhs),rhsMax =  -5.94770813307474E+01  1.42237638002129E+00
(PID.TID 0000.0001)  ploadbar=  1.01036166099377E+05
 cg2d: Sum(rhs),rhsMax =  -5.96679184316233E+01  1.41758302709114E+00
(PID.TID 0000.0001)  ploadbar=  1.01035803304887E+05
 cg2d: Sum(rhs),rhsMax =  -6.01336875194171E+01  1.40639402462333E+00
(PID.TID 0000.0001)  ploadbar=  1.01035440510398E+05
 cg2d: Sum(rhs),rhsMax =  -6.08971218671808E+01  1.38858411651667E+00
(PID.TID 0000.0001)  ploadbar=  1.01035077715908E+05
 cg2d: Sum(rhs),rhsMax =  -6.17206667079981E+01  1.36985599792866E+00
(PID.TID 0000.0001)  ploadbar=  1.01034456757163E+05
 cg2d: Sum(rhs),rhsMax =  -6.26127123316919E+01  1.35011187076376E+00
(PID.TID 0000.0001)  ploadbar=  1.01033835798419E+05
 cg2d: Sum(rhs),rhsMax =  -6.35814344125965E+01  1.32928419178673E+00
(PID.TID 0000.0001)  ploadbar=  1.01033214839674E+05
 cg2d: Sum(rhs),rhsMax =  -6.46238751143510E+01  1.30755409944252E+00
(PID.TID 0000.0001)  ploadbar=  1.01032593880930E+05
 cg2d: Sum(rhs),rhsMax =  -6.57317913051093E+01  1.28519801885742E+00
(PID.TID 0000.0001)  ploadbar=  1.01031972922185E+05
 cg2d: Sum(rhs),rhsMax =  -6.68852303378683E+01  1.26268708633544E+00
(PID.TID 0000.0001)  ploadbar=  1.01031351963441E+05
 cg2d: Sum(rhs),rhsMax =  -6.80774515758469E+01  1.24023410793352E+00
(PID.TID 0000.0001)  ploadbar=  1.01031400113219E+05
 cg2d: Sum(rhs),rhsMax =  -6.92820923605535E+01  1.21833315583240E+00
(PID.TID 0000.0001)  ploadbar=  1.01031448262997E+05
 cg2d: Sum(rhs),rhsMax =  -7.04908187959261E+01  1.19710549041402E+00
(PID.TID 0000.0001)  ploadbar=  1.01031496412775E+05
 cg2d: Sum(rhs),rhsMax =  -7.17178207389959E+01  1.17628658948833E+00
(PID.TID 0000.0001)  ploadbar=  1.01031544562554E+05
 cg2d: Sum(rhs),rhsMax =  -7.29610580044885E+01  1.15590134834342E+00
(PID.TID 0000.0001)  ploadbar=  1.01031592712332E+05
 cg2d: Sum(rhs),rhsMax =  -7.42085638540245E+01  1.13612207703952E+00
(PID.TID 0000.0001)  ploadbar=  1.01031640862110E+05
 cg2d: Sum(rhs),rhsMax =  -7.53943970855921E+01  1.11787946813748E+00
(PID.TID 0000.0001)  ploadbar=  1.01032188205096E+05
 cg2d: Sum(rhs),rhsMax =  -7.65080135190700E+01  1.10120789284024E+00
(PID.TID 0000.0001)  ploadbar=  1.01032735548082E+05
 cg2d: Sum(rhs),rhsMax =  -7.75387388236017E+01  1.08614102208015E+00
(PID.TID 0000.0001)  ploadbar=  1.01033282891068E+05
 cg2d: Sum(rhs),rhsMax =  -7.80057787978989E+01  1.07917715486810E+00
(PID.TID 0000.0001)  ploadbar=  1.01033830234054E+05
 cg2d: Sum(rhs),rhsMax =  -7.80311606446745E+01  1.07832807508425E+00
(PID.TID 0000.0001)  ploadbar=  1.01034377577040E+05
 cg2d: Sum(rhs),rhsMax =  -7.80482704789550E+01  1.07755692273056E+00
(PID.TID 0000.0001)  ploadbar=  1.01034924920025E+05
 cg2d: Sum(rhs),rhsMax =  -7.80649600783480E+01  1.07682703196960E+00
(PID.TID 0000.0001)  ploadbar=  1.01035054250421E+05
 cg2d: Sum(rhs),rhsMax =  -7.80798196177033E+01  1.07615650059501E+00
(PID.TID 0000.0001)  ploadbar=  1.01035183580817E+05
 cg2d: Sum(rhs),rhsMax =  -7.80912715974771E+01  1.07556419478942E+00
(PID.TID 0000.0001)  ploadbar=  1.01035312911213E+05
 cg2d: Sum(rhs),rhsMax =  -7.80972930768436E+01  1.07507514659097E+00
(PID.TID 0000.0001)  ploadbar=  1.01035442241609E+05
 cg2d: Sum(rhs),rhsMax =  -7.80968382906143E+01  1.07470100292118E+00
(PID.TID 0000.0001)  ploadbar=  1.01035571572005E+05
 cg2d: Sum(rhs),rhsMax =  -7.80935187644608E+01  1.07438818524933E+00
(PID.TID 0000.0001)  ploadbar=  1.01035700902401E+05
 cg2d: Sum(rhs),rhsMax =  -7.81019447361310E+01  1.07394033901411E+00
(PID.TID 0000.0001)  ploadbar=  1.01035811788439E+05
 cg2d: Sum(rhs),rhsMax =  -7.81025654292865E+01  1.07362054479032E+00
(PID.TID 0000.0001)  ploadbar=  1.01035922674476E+05
 cg2d: Sum(rhs),rhsMax =  -7.81082683447228E+01  1.07324816704290E+00
(PID.TID 0000.0001)  ploadbar=  1.01036033560513E+05
 cg2d: Sum(rhs),rhsMax =  -7.81159819530518E+01  1.07286019824797E+00
(PID.TID 0000.0001)  ploadbar=  1.01036144446550E+05
 cg2d: Sum(rhs),rhsMax =  -7.81253746158040E+01  1.07245869346067E+00
(PID.TID 0000.0001)  ploadbar=  1.01036255332587E+05
 cg2d: Sum(rhs),rhsMax =  -7.81366992227340E+01  1.07203896851072E+00
(PID.TID 0000.0001)  ploadbar=  1.01036366218624E+05
 cg2d: Sum(rhs),rhsMax =  -7.81722674055286E+01  1.07129196143087E+00
(PID.TID 0000.0001)  ploadbar=  1.01038101281333E+05
 cg2d: Sum(rhs),rhsMax =  -7.82035007840966E+01  1.07060924489882E+00
(PID.TID 0000.0001)  ploadbar=  1.01039836344042E+05
 cg2d: Sum(rhs),rhsMax =  -7.82332791864421E+01  1.06994886599916E+00
(PID.TID 0000.0001)  ploadbar=  1.01041571406750E+05
 cg2d: Sum(rhs),rhsMax =  -7.82674401318675E+01  1.06922719557766E+00
(PID.TID 0000.0001)  ploadbar=  1.01043306469459E+05
 cg2d: Sum(rhs),rhsMax =  -7.82936765010222E+01  1.06860829581211E+00
(PID.TID 0000.0001)  ploadbar=  1.01045041532168E+05
 cg2d: Sum(rhs),rhsMax =  -7.83139670810139E+01  1.06806153271473E+00
(PID.TID 0000.0001)  ploadbar=  1.01046776594877E+05
 cg2d: Sum(rhs),rhsMax =  -7.83402875300736E+01  1.06739953857472E+00
(PID.TID 0000.0001)  ploadbar=  1.01046879623631E+05
 cg2d: Sum(rhs),rhsMax =  -7.83562806212457E+01  1.06684210483961E+00
(PID.TID 0000.0001)  ploadbar=  1.01046982652385E+05
 cg2d: Sum(rhs),rhsMax =  -7.83547561851517E+01  1.06648378456313E+00
(PID.TID 0000.0001)  ploadbar=  1.01047085681140E+05
 cg2d: Sum(rhs),rhsMax =  -7.83425077825746E+01  1.06622949374599E+00
(PID.TID 0000.0001)  ploadbar=  1.01047188709894E+05
 cg2d: Sum(rhs),rhsMax =  -7.83192606261511E+01  1.06608046601701E+00
(PID.TID 0000.0001)  ploadbar=  1.01047291738649E+05
 cg2d: Sum(rhs),rhsMax =  -7.82860850553724E+01  1.06601987835759E+00
(PID.TID 0000.0001)  ploadbar=  1.01047394767403E+05
 cg2d: Sum(rhs),rhsMax =  -7.82274368881558E+01  1.06636104600058E+00
(PID.TID 0000.0001)  ploadbar=  1.01047500157859E+05
 cg2d: Sum(rhs),rhsMax =  -7.81662109094304E+01  1.06679060337308E+00
(PID.TID 0000.0001)  ploadbar=  1.01047605548314E+05
 cg2d: Sum(rhs),rhsMax =  -7.81074208850510E+01  1.06723877083954E+00
(PID.TID 0000.0001)  ploadbar=  1.01047710938770E+05
 cg2d: Sum(rhs),rhsMax =  -7.80480709153494E+01  1.06774373802062E+00
(PID.TID 0000.0001)  ploadbar=  1.01047816329226E+05
 cg2d: Sum(rhs),rhsMax =  -7.79884965736145E+01  1.06829772057489E+00
(PID.TID 0000.0001)  ploadbar=  1.01047921719682E+05
 cg2d: Sum(rhs),rhsMax =  -7.79291691786382E+01  1.06888952815523E+00
(PID.TID 0000.0001)  ploadbar=  1.01048027110138E+05
 cg2d: Sum(rhs),rhsMax =  -7.78643189908313E+01  1.06955129431902E+00
(PID.TID 0000.0001)  ploadbar=  1.01048286154831E+05
 cg2d: Sum(rhs),rhsMax =  -7.78061203220391E+01  1.07010578880595E+00
(PID.TID 0000.0001)  ploadbar=  1.01048545199524E+05
 cg2d: Sum(rhs),rhsMax =  -7.77430695881701E+01  1.07070698669660E+00
(PID.TID 0000.0001)  ploadbar=  1.01048804244218E+05
 cg2d: Sum(rhs),rhsMax =  -7.76754033466717E+01  1.07134933875431E+00
(PID.TID 0000.0001)  ploadbar=  1.01049063288911E+05
 cg2d: Sum(rhs),rhsMax =  -7.76065124036477E+01  1.07198326047651E+00
(PID.TID 0000.0001)  ploadbar=  1.01049322333605E+05
 cg2d: Sum(rhs),rhsMax =  -7.75357978537164E+01  1.07261445295999E+00
(PID.TID 0000.0001)  ploadbar=  1.01049581378298E+05
 cg2d: Sum(rhs),rhsMax =  -7.73521148745157E+01  1.07481409666874E+00
(PID.TID 0000.0001)  ploadbar=  1.01049121924585E+05
 cg2d: Sum(rhs),rhsMax =  -7.71768663917466E+01  1.07690346842488E+00
(PID.TID 0000.0001)  ploadbar=  1.01048662470872E+05
 cg2d: Sum(rhs),rhsMax =  -7.69993604589994E+01  1.07902777766253E+00
(PID.TID 0000.0001)  ploadbar=  1.01048203017159E+05
 cg2d: Sum(rhs),rhsMax =  -7.68183014128887E+01  1.08120117785089E+00
(PID.TID 0000.0001)  ploadbar=  1.01047743563446E+05
 cg2d: Sum(rhs),rhsMax =  -7.66390639941391E+01  1.08334293776704E+00
(PID.TID 0000.0001)  ploadbar=  1.01047284109734E+05
 cg2d: Sum(rhs),rhsMax =  -7.64616754086363E+01  1.08544664742013E+00
(PID.TID 0000.0001)  ploadbar=  1.01046824656021E+05
 cg2d: Sum(rhs),rhsMax =  -7.62513997475098E+01  1.08800292365369E+00
(PID.TID 0000.0001)  ploadbar=  1.01046882601928E+05
 cg2d: Sum(rhs),rhsMax =  -7.60353791453229E+01  1.09062604658510E+00
(PID.TID 0000.0001)  ploadbar=  1.01046940547836E+05
 cg2d: Sum(rhs),rhsMax =  -7.58213380174786E+01  1.09320334948397E+00
(PID.TID 0000.0001)  ploadbar=  1.01046998493743E+05
 cg2d: Sum(rhs),rhsMax =  -7.56053376692633E+01  1.09578891137052E+00
(PID.TID 0000.0001)  ploadbar=  1.01047056439651E+05
 cg2d: Sum(rhs),rhsMax =  -7.53824947901203E+01  1.09845257926122E+00
(PID.TID 0000.0001)  ploadbar=  1.01047114385558E+05
 cg2d: Sum(rhs),rhsMax =  -7.51508227390182E+01  1.10122368965739E+00
(PID.TID 0000.0001)  ploadbar=  1.01047172331466E+05
 cg2d: Sum(rhs),rhsMax =  -7.49289512768029E+01  1.10392623814516E+00
(PID.TID 0000.0001)  ploadbar=  1.01048164406128E+05
 cg2d: Sum(rhs),rhsMax =  -7.47128387008916E+01  1.10661521802603E+00
(PID.TID 0000.0001)  ploadbar=  1.01049156480791E+05
 cg2d: Sum(rhs),rhsMax =  -7.45154995755992E+01  1.10909418461526E+00
(PID.TID 0000.0001)  ploadbar=  1.01050148555453E+05
 cg2d: Sum(rhs),rhsMax =  -7.43349003454417E+01  1.11138656828118E+00
(PID.TID 0000.0001)  ploadbar=  1.01051140630116E+05
 cg2d: Sum(rhs),rhsMax =  -7.41734820471757E+01  1.11344912263404E+00
(PID.TID 0000.0001)  ploadbar=  1.01052132704778E+05
 cg2d: Sum(rhs),rhsMax =  -7.40350628867122E+01  1.11521616468496E+00
(PID.TID 0000.0001)  ploadbar=  1.01053124779440E+05
 cg2d: Sum(rhs),rhsMax =  -7.39618932661442E+01  1.11600762133243E+00
(PID.TID 0000.0001)  ploadbar=  1.01053902937000E+05
 cg2d: Sum(rhs),rhsMax =  -7.39042929340481E+01  1.11656199892321E+00
(PID.TID 0000.0001)  ploadbar=  1.01054681094559E+05
 cg2d: Sum(rhs),rhsMax =  -7.39014281493760E+01  1.11628000441907E+00
(PID.TID 0000.0001)  ploadbar=  1.01055459252118E+05
 cg2d: Sum(rhs),rhsMax =  -7.39436706191740E+01  1.11530252788229E+00
(PID.TID 0000.0001)  ploadbar=  1.01056237409677E+05
 cg2d: Sum(rhs),rhsMax =  -7.40303356873578E+01  1.11364000495505E+00
(PID.TID 0000.0001)  ploadbar=  1.01057015567237E+05
 cg2d: Sum(rhs),rhsMax =  -7.41626707015464E+01  1.11127480246694E+00
(PID.TID 0000.0001)  ploadbar=  1.01057793724796E+05
 cg2d: Sum(rhs),rhsMax =  -7.43953873902465E+01  1.10742442774443E+00
(PID.TID 0000.0001)  ploadbar=  1.01058624667408E+05
 cg2d: Sum(rhs),rhsMax =  -7.46509249382084E+01  1.10325938545261E+00
(PID.TID 0000.0001)  ploadbar=  1.01059455610021E+05
 cg2d: Sum(rhs),rhsMax =  -7.49142147928255E+01  1.09900619608966E+00
(PID.TID 0000.0001)  ploadbar=  1.01060286552633E+05
 cg2d: Sum(rhs),rhsMax =  -7.51778418929223E+01  1.09477167797951E+00
(PID.TID 0000.0001)  ploadbar=  1.01061117495246E+05
 cg2d: Sum(rhs),rhsMax =  -7.54387231518570E+01  1.09059515101258E+00
(PID.TID 0000.0001)  ploadbar=  1.01061948437858E+05
 cg2d: Sum(rhs),rhsMax =  -7.56978147591735E+01  1.08645557462170E+00
(PID.TID 0000.0001)  ploadbar=  1.01062779380471E+05
 cg2d: Sum(rhs),rhsMax =  -7.59961831869386E+01  1.08176497683159E+00
(PID.TID 0000.0001)  ploadbar=  1.01063156302304E+05
 cg2d: Sum(rhs),rhsMax =  -7.63036426074153E+01  1.07695970632670E+00
(PID.TID 0000.0001)  ploadbar=  1.01063533224138E+05
 cg2d: Sum(rhs),rhsMax =  -7.66037397874295E+01  1.07227132309484E+00
(PID.TID 0000.0001)  ploadbar=  1.01063910145971E+05
 cg2d: Sum(rhs),rhsMax =  -7.69108786557391E+01  1.06749572554465E+00
(PID.TID 0000.0001)  ploadbar=  1.01064287067805E+05
 cg2d: Sum(rhs),rhsMax =  -7.72245755513845E+01  1.06264073253014E+00
(PID.TID 0000.0001)  ploadbar=  1.01064663989638E+05
 cg2d: Sum(rhs),rhsMax =  -7.75442057613042E+01  1.05771532157082E+00
(PID.TID 0000.0001)  ploadbar=  1.01065040911472E+05
 cg2d: Sum(rhs),rhsMax =  -7.78504835536194E+01  1.05307961771422E+00
(PID.TID 0000.0001)  ploadbar=  1.01066900075468E+05
 cg2d: Sum(rhs),rhsMax =  -7.81770927141835E+01  1.04827333668458E+00
(PID.TID 0000.0001)  ploadbar=  1.01068759239464E+05
 cg2d: Sum(rhs),rhsMax =  -7.81423830559434E+01  1.04839405454720E+00
(PID.TID 0000.0001)  ploadbar=  1.01070618403460E+05
 cg2d: Sum(rhs),rhsMax =  -7.76793348075979E+01  1.05435511211738E+00
(PID.TID 0000.0001)  ploadbar=  1.01072477567456E+05
 cg2d: Sum(rhs),rhsMax =  -7.72283428199552E+01  1.06027816168356E+00
(PID.TID 0000.0001)  ploadbar=  1.01074336731452E+05
 cg2d: Sum(rhs),rhsMax =  -7.67882377610954E+01  1.06616998353129E+00
(PID.TID 0000.0001)  ploadbar=  1.01076195895449E+05
 cg2d: Sum(rhs),rhsMax =  -7.63431533351540E+01  1.07219715862990E+00
(PID.TID 0000.0001)  ploadbar=  1.01076673255673E+05
 cg2d: Sum(rhs),rhsMax =  -7.58724921467176E+01  1.07864807631487E+00
(PID.TID 0000.0001)  ploadbar=  1.01077150615898E+05
 cg2d: Sum(rhs),rhsMax =  -7.53781182135970E+01  1.08550577999989E+00
(PID.TID 0000.0001)  ploadbar=  1.01077627976123E+05
 cg2d: Sum(rhs),rhsMax =  -7.48586016968306E+01  1.09280389876546E+00
(PID.TID 0000.0001)  ploadbar=  1.01078105336348E+05
 cg2d: Sum(rhs),rhsMax =  -7.43318985071177E+01  1.10028943296597E+00
(PID.TID 0000.0001)  ploadbar=  1.01078582696573E+05
 cg2d: Sum(rhs),rhsMax =  -7.38076010968736E+01  1.10782289303877E+00
(PID.TID 0000.0001)  ploadbar=  1.01079060056798E+05
 cg2d: Sum(rhs),rhsMax =  -7.33018362058409E+01  1.11521772000747E+00
(PID.TID 0000.0001)  ploadbar=  1.01078337724003E+05
 cg2d: Sum(rhs),rhsMax =  -7.28343313690420E+01  1.12215871592087E+00
(PID.TID 0000.0001)  ploadbar=  1.01077615391208E+05
 cg2d: Sum(rhs),rhsMax =  -7.24786389695166E+01  1.12747831820075E+00
(PID.TID 0000.0001)  ploadbar=  1.01076893058414E+05
 cg2d: Sum(rhs),rhsMax =  -7.21454620267829E+01  1.13252529929820E+00
(PID.TID 0000.0001)  ploadbar=  1.01076170725619E+05
 cg2d: Sum(rhs),rhsMax =  -7.18449340549442E+01  1.13712803877361E+00
(PID.TID 0000.0001)  ploadbar=  1.01075448392824E+05
 cg2d: Sum(rhs),rhsMax =  -7.15751226451074E+01  1.14130166174827E+00
(PID.TID 0000.0001)  ploadbar=  1.01074726060030E+05
 cg2d: Sum(rhs),rhsMax =  -7.13038677512124E+01  1.14551468597332E+00
(PID.TID 0000.0001)  ploadbar=  1.01074970455422E+05
 cg2d: Sum(rhs),rhsMax =  -7.10816755734076E+01  1.14894948247609E+00
(PID.TID 0000.0001)  ploadbar=  1.01075214850815E+05
 cg2d: Sum(rhs),rhsMax =  -7.08783841608575E+01  1.15208013484599E+00
(PID.TID 0000.0001)  ploadbar=  1.01075459246208E+05
 cg2d: Sum(rhs),rhsMax =  -7.07144930663025E+01  1.15456650173597E+00
(PID.TID 0000.0001)  ploadbar=  1.01075703641601E+05
 cg2d: Sum(rhs),rhsMax =  -7.05982331751536E+01  1.15626310618134E+00
(PID.TID 0000.0001)  ploadbar=  1.01075948036993E+05
 cg2d: Sum(rhs),rhsMax =  -7.05354698561698E+01  1.15706582759590E+00
(PID.TID 0000.0001)  ploadbar=  1.01076192432386E+05
 cg2d: Sum(rhs),rhsMax =  -7.04767187443734E+01  1.15785962560453E+00
(PID.TID 0000.0001)  ploadbar=  1.01076601434197E+05
 cg2d: Sum(rhs),rhsMax =  -7.05097569431340E+01  1.15720169241102E+00
(PID.TID 0000.0001)  ploadbar=  1.01077010436009E+05
 cg2d: Sum(rhs),rhsMax =  -7.06361194505558E+01  1.15507029347550E+00
(PID.TID 0000.0001)  ploadbar=  1.01077419437820E+05
 cg2d: Sum(rhs),rhsMax =  -7.08620881079492E+01  1.15137699122399E+00
(PID.TID 0000.0001)  ploadbar=  1.01077828439631E+05
 cg2d: Sum(rhs),rhsMax =  -7.11771399010446E+01  1.14631751986490E+00
(PID.TID 0000.0001)  ploadbar=  1.01078237441442E+05
 cg2d: Sum(rhs),rhsMax =  -7.15637942198825E+01  1.14020346073733E+00
(PID.TID 0000.0001)  ploadbar=  1.01078646443253E+05
 cg2d: Sum(rhs),rhsMax =  -7.21678559003188E+01  1.13071144284576E+00
(PID.TID 0000.0001)  ploadbar=  1.01078984630535E+05
 cg2d: Sum(rhs),rhsMax =  -7.30845323813826E+01  1.11655102600550E+00
(PID.TID 0000.0001)  ploadbar=  1.01079322817817E+05
 cg2d: Sum(rhs),rhsMax =  -7.39816336354566E+01  1.10300463197414E+00
(PID.TID 0000.0001)  ploadbar=  1.01079661005098E+05
 cg2d: Sum(rhs),rhsMax =  -7.48261511925912E+01  1.09052056638419E+00
(PID.TID 0000.0001)  ploadbar=  1.01079999192380E+05
 cg2d: Sum(rhs),rhsMax =  -7.55875815515816E+01  1.07947214219572E+00
(PID.TID 0000.0001)  ploadbar=  1.01080337379662E+05
 cg2d: Sum(rhs),rhsMax =  -7.62270899118478E+01  1.07032684513975E+00
(PID.TID 0000.0001)  ploadbar=  1.01080675566943E+05
 cg2d: Sum(rhs),rhsMax =  -7.66892386891750E+01  1.06379976822184E+00
(PID.TID 0000.0001)  ploadbar=  1.01080942046733E+05
 cg2d: Sum(rhs),rhsMax =  -7.70251231104511E+01  1.05908965904159E+00
(PID.TID 0000.0001)  ploadbar=  1.01081208526523E+05
 cg2d: Sum(rhs),rhsMax =  -7.73558934818410E+01  1.05449450907149E+00
(PID.TID 0000.0001)  ploadbar=  1.01081475006313E+05
 cg2d: Sum(rhs),rhsMax =  -7.76796698749437E+01  1.05003468635938E+00
(PID.TID 0000.0001)  ploadbar=  1.01081741486102E+05
 cg2d: Sum(rhs),rhsMax =  -7.79889125953416E+01  1.04580592478882E+00
(PID.TID 0000.0001)  ploadbar=  1.01082007965892E+05
 cg2d: Sum(rhs),rhsMax =  -7.82739022690352E+01  1.04193069305915E+00
(PID.TID 0000.0001)  ploadbar=  1.01082274445682E+05
 cg2d: Sum(rhs),rhsMax =  -7.85490003069731E+01  1.03817577680541E+00
(PID.TID 0000.0001)  ploadbar=  1.01082266736926E+05
 cg2d: Sum(rhs),rhsMax =  -7.87540320009183E+01  1.03532929203649E+00
(PID.TID 0000.0001)  ploadbar=  1.01082259028169E+05
 cg2d: Sum(rhs),rhsMax =  -7.88968031075400E+01  1.03327274370216E+00
(PID.TID 0000.0001)  ploadbar=  1.01082251319413E+05
 cg2d: Sum(rhs),rhsMax =  -7.89664973929486E+01  1.03213797194331E+00
(PID.TID 0000.0001)  ploadbar=  1.01082243610656E+05
 cg2d: Sum(rhs),rhsMax =  -7.89614020239531E+01  1.03194120739802E+00
(PID.TID 0000.0001)  ploadbar=  1.01082235901899E+05
 cg2d: Sum(rhs),rhsMax =  -7.88874371128138E+01  1.03260513685341E+00
(PID.TID 0000.0001)  ploadbar=  1.01082228193143E+05
 cg2d: Sum(rhs),rhsMax =  -7.87270385592368E+01  1.03444350688445E+00
(PID.TID 0000.0001)  ploadbar=  1.01082329589709E+05
 cg2d: Sum(rhs),rhsMax =  -7.88324197923767E+01  1.03283430116813E+00
(PID.TID 0000.0001)  ploadbar=  1.01082430986276E+05
 cg2d: Sum(rhs),rhsMax =  -7.91593790144978E+01  1.02838023014660E+00
(PID.TID 0000.0001)  ploadbar=  1.01082532382842E+05
 cg2d: Sum(rhs),rhsMax =  -7.94225454644436E+01  1.02482119082859E+00
(PID.TID 0000.0001)  ploadbar=  1.01082633779408E+05
 cg2d: Sum(rhs),rhsMax =  -7.96383622007636E+01  1.02192493842359E+00
(PID.TID 0000.0001)  ploadbar=  1.01082735175974E+05
 cg2d: Sum(rhs),rhsMax =  -7.98326033374841E+01  1.01934659534845E+00
(PID.TID 0000.0001)  ploadbar=  1.01082836572541E+05
 cg2d: Sum(rhs),rhsMax =  -8.00547471101491E+01  1.01640115672248E+00
(PID.TID 0000.0001)  ploadbar=  1.01083444578217E+05
 cg2d: Sum(rhs),rhsMax =  -8.03061275051891E+01  1.01307825691625E+00
(PID.TID 0000.0001)  ploadbar=  1.01084052583893E+05
 cg2d: Sum(rhs),rhsMax =  -8.06161631363459E+01  1.00901597833006E+00
(PID.TID 0000.0001)  ploadbar=  1.01084660589570E+05
 cg2d: Sum(rhs),rhsMax =  -8.09959127652422E+01  1.00409252467128E+00
(PID.TID 0000.0001)  ploadbar=  1.01085268595246E+05
 cg2d: Sum(rhs),rhsMax =  -8.14514272193725E+01  9.98256721391181E-01
(PID.TID 0000.0001)  ploadbar=  1.01085876600922E+05
 cg2d: Sum(rhs),rhsMax =  -8.18948694496953E+01  9.92601159834436E-01
(PID.TID 0000.0001)  ploadbar=  1.01086484606599E+05
 cg2d: Sum(rhs),rhsMax =  -8.09642823743152E+01  1.00377514584263E+00
(PID.TID 0000.0001)  ploadbar=  1.01087368950073E+05
 cg2d: Sum(rhs),rhsMax =  -8.01365608639710E+01  1.01392031436473E+00
(PID.TID 0000.0001)  ploadbar=  1.01088253293547E+05
 cg2d: Sum(rhs),rhsMax =  -7.94305266640469E+01  1.02271883701665E+00
(PID.TID 0000.0001)  ploadbar=  1.01089137637020E+05
 cg2d: Sum(rhs),rhsMax =  -7.88481245175292E+01  1.03006576451993E+00
(PID.TID 0000.0001)  ploadbar=  1.01090021980494E+05
 cg2d: Sum(rhs),rhsMax =  -7.83684065312140E+01  1.03616746630955E+00
(PID.TID 0000.0001)  ploadbar=  1.01090906323968E+05
 cg2d: Sum(rhs),rhsMax =  -7.79793026635787E+01  1.04113488423431E+00
(PID.TID 0000.0001)  ploadbar=  1.01091790667442E+05
 cg2d: Sum(rhs),rhsMax =  -7.76626522032672E+01  1.04514494560658E+00
(PID.TID 0000.0001)  ploadbar=  1.01091554231372E+05
 cg2d: Sum(rhs),rhsMax =  -7.73768414959638E+01  1.04873365907407E+00
(PID.TID 0000.0001)  ploadbar=  1.01091317795302E+05
 cg2d: Sum(rhs),rhsMax =  -7.71313558524371E+01  1.05175940693023E+00
(PID.TID 0000.0001)  ploadbar=  1.01091081359231E+05
 cg2d: Sum(rhs),rhsMax =  -7.69184972577970E+01  1.05431550876651E+00
(PID.TID 0000.0001)  ploadbar=  1.01090844923161E+05
 cg2d: Sum(rhs),rhsMax =  -7.67312263063921E+01  1.05649031029439E+00
(PID.TID 0000.0001)  ploadbar=  1.01090608487090E+05
 cg2d: Sum(rhs),rhsMax =  -7.65675759857342E+01  1.05830475855559E+00
(PID.TID 0000.0001)  ploadbar=  1.01090372051020E+05
 cg2d: Sum(rhs),rhsMax =  -7.65103178883288E+01  1.05871384001905E+00
(PID.TID 0000.0001)  ploadbar=  1.01089377493088E+05
 cg2d: Sum(rhs),rhsMax =  -7.64797464954513E+01  1.05881264815266E+00
(PID.TID 0000.0001)  ploadbar=  1.01088382935156E+05
 cg2d: Sum(rhs),rhsMax =  -7.64026690185613E+01  1.05961265585127E+00
(PID.TID 0000.0001)  ploadbar=  1.01087388377225E+05
 cg2d: Sum(rhs),rhsMax =  -7.62328591424176E+01  1.06175694845307E+00
(PID.TID 0000.0001)  ploadbar=  1.01086393819293E+05
 cg2d: Sum(rhs),rhsMax =  -7.59856151554293E+01  1.06504200545314E+00
(PID.TID 0000.0001)  ploadbar=  1.01085399261361E+05
 cg2d: Sum(rhs),rhsMax =  -7.57135871209330E+01  1.06873991306018E+00
(PID.TID 0000.0001)  ploadbar=  1.01084404703429E+05
 cg2d: Sum(rhs),rhsMax =  -7.54471304672090E+01  1.07231342932352E+00
(PID.TID 0000.0001)  ploadbar=  1.01083918165940E+05
 cg2d: Sum(rhs),rhsMax =  -7.51743023838594E+01  1.07592905026559E+00
(PID.TID 0000.0001)  ploadbar=  1.01083431628450E+05
 cg2d: Sum(rhs),rhsMax =  -7.49057208330403E+01  1.07943377103972E+00
(PID.TID 0000.0001)  ploadbar=  1.01082945090961E+05
 cg2d: Sum(rhs),rhsMax =  -7.46375789176491E+01  1.08287946726749E+00
(PID.TID 0000.0001)  ploadbar=  1.01082458553471E+05
 cg2d: Sum(rhs),rhsMax =  -7.43724074382429E+01  1.08622716930599E+00
(PID.TID 0000.0001)  ploadbar=  1.01081972015982E+05
 cg2d: Sum(rhs),rhsMax =  -7.41141188823672E+01  1.08941572224166E+00
(PID.TID 0000.0001)  ploadbar=  1.01081485478492E+05
 cg2d: Sum(rhs),rhsMax =  -7.38747609163563E+01  1.09238881381287E+00
(PID.TID 0000.0001)  ploadbar=  1.01080887656985E+05
 cg2d: Sum(rhs),rhsMax =  -7.36695347272192E+01  1.09491012324603E+00
(PID.TID 0000.0001)  ploadbar=  1.01080289835479E+05
 cg2d: Sum(rhs),rhsMax =  -7.34721728918286E+01  1.09735979098803E+00
(PID.TID 0000.0001)  ploadbar=  1.01079692013972E+05
 cg2d: Sum(rhs),rhsMax =  -7.32815327270679E+01  1.09975080657077E+00
(PID.TID 0000.0001)  ploadbar=  1.01079094192465E+05
 cg2d: Sum(rhs),rhsMax =  -7.31041511462456E+01  1.10197838542216E+00
(PID.TID 0000.0001)  ploadbar=  1.01078496370958E+05
 cg2d: Sum(rhs),rhsMax =  -7.29374642552503E+01  1.10407347721671E+00
(PID.TID 0000.0001)  ploadbar=  1.01077898549452E+05
 cg2d: Sum(rhs),rhsMax =  -7.28050823098999E+01  1.10561835257095E+00
(PID.TID 0000.0001)  ploadbar=  1.01078037262684E+05
 cg2d: Sum(rhs),rhsMax =  -7.26908016773210E+01  1.10685164826295E+00
(PID.TID 0000.0001)  ploadbar=  1.01078175975916E+05
 cg2d: Sum(rhs),rhsMax =  -7.25759826780452E+01  1.10805381665027E+00
(PID.TID 0000.0001)  ploadbar=  1.01078314689148E+05
 cg2d: Sum(rhs),rhsMax =  -7.24701748797670E+01  1.10907689715858E+00
(PID.TID 0000.0001)  ploadbar=  1.01078453402380E+05
 cg2d: Sum(rhs),rhsMax =  -7.23771558063237E+01  1.10985990252082E+00
(PID.TID 0000.0001)  ploadbar=  1.01078592115613E+05
 cg2d: Sum(rhs),rhsMax =  -7.23011112111884E+01  1.11033593636587E+00
(PID.TID 0000.0001)  ploadbar=  1.01078730828845E+05
 cg2d: Sum(rhs),rhsMax =  -7.22183318059286E+01  1.11097420613092E+00
(PID.TID 0000.0001)  ploadbar=  1.01077496404402E+05
 cg2d: Sum(rhs),rhsMax =  -7.21549936895437E+01  1.11137162895027E+00
(PID.TID 0000.0001)  ploadbar=  1.01076261979958E+05
 cg2d: Sum(rhs),rhsMax =  -7.21036918178302E+01  1.11164021140649E+00
(PID.TID 0000.0001)  ploadbar=  1.01075027555515E+05
 cg2d: Sum(rhs),rhsMax =  -7.20643423070754E+01  1.11177765821695E+00
(PID.TID 0000.0001)  ploadbar=  1.01073793131072E+05
 cg2d: Sum(rhs),rhsMax =  -7.20349605914769E+01  1.11181058630938E+00
(PID.TID 0000.0001)  ploadbar=  1.01072558706628E+05
 cg2d: Sum(rhs),rhsMax =  -7.20135647979953E+01  1.11176530014035E+00
(PID.TID 0000.0001)  ploadbar=  1.01071324282185E+05
 cg2d: Sum(rhs),rhsMax =  -7.20056747243652E+01  1.11151330655044E+00
(PID.TID 0000.0001)  ploadbar=  1.01071836258937E+05
 cg2d: Sum(rhs),rhsMax =  -7.19952570706082E+01  1.11129940197296E+00
(PID.TID 0000.0001)  ploadbar=  1.01072348235689E+05
 cg2d: Sum(rhs),rhsMax =  -7.19854367004241E+01  1.11107258973215E+00
(PID.TID 0000.0001)  ploadbar=  1.01072860212442E+05
 cg2d: Sum(rhs),rhsMax =  -7.19731812614326E+01  1.11087565569789E+00
(PID.TID 0000.0001)  ploadbar=  1.01073372189194E+05
 cg2d: Sum(rhs),rhsMax =  -7.19550708638327E+01  1.11075770181802E+00
(PID.TID 0000.0001)  ploadbar=  1.01073884165946E+05
 cg2d: Sum(rhs),rhsMax =  -7.19312830520742E+01  1.11071252123396E+00
(PID.TID 0000.0001)  ploadbar=  1.01074396142698E+05
 cg2d: Sum(rhs),rhsMax =  -7.19102639212292E+01  1.11065443693954E+00
(PID.TID 0000.0001)  ploadbar=  1.01076214073284E+05
 cg2d: Sum(rhs),rhsMax =  -7.18869063251207E+01  1.11065761288430E+00
(PID.TID 0000.0001)  ploadbar=  1.01078032003870E+05
 cg2d: Sum(rhs),rhsMax =  -7.18634062112573E+01  1.11068378050681E+00
(PID.TID 0000.0001)  ploadbar=  1.01079849934456E+05
 cg2d: Sum(rhs),rhsMax =  -7.18427479545051E+01  1.11068209143837E+00
(PID.TID 0000.0001)  ploadbar=  1.01081667865043E+05
 cg2d: Sum(rhs),rhsMax =  -7.18237585253382E+01  1.11066685556537E+00
(PID.TID 0000.0001)  ploadbar=  1.01083485795629E+05
 cg2d: Sum(rhs),rhsMax =  -7.18063768323648E+01  1.11063459408500E+00
(PID.TID 0000.0001)  ploadbar=  1.01085303726215E+05
 cg2d: Sum(rhs),rhsMax =  -7.18250785881479E+01  1.11003300687978E+00
(PID.TID 0000.0001)  ploadbar=  1.01085579519652E+05
 cg2d: Sum(rhs),rhsMax =  -7.18479879805032E+01  1.10935360110773E+00
(PID.TID 0000.0001)  ploadbar=  1.01085855313089E+05
 cg2d: Sum(rhs),rhsMax =  -7.18684360597207E+01  1.10869852723155E+00
(PID.TID 0000.0001)  ploadbar=  1.01086131106526E+05
 cg2d: Sum(rhs),rhsMax =  -7.18888986319359E+01  1.10802884218395E+00
(PID.TID 0000.0001)  ploadbar=  1.01086406899963E+05
 cg2d: Sum(rhs),rhsMax =  -7.19091209574669E+01  1.10734778311827E+00
(PID.TID 0000.0001)  ploadbar=  1.01086682693400E+05
 cg2d: Sum(rhs),rhsMax =  -7.19307275204909E+01  1.10663208718481E+00
(PID.TID 0000.0001)  ploadbar=  1.01086958486837E+05
 cg2d: Sum(rhs),rhsMax =  -7.19408348583042E+01  1.10614202464006E+00
(PID.TID 0000.0001)  ploadbar=  1.01087771102374E+05
 cg2d: Sum(rhs),rhsMax =  -7.19611347853494E+01  1.10554196790807E+00
(PID.TID 0000.0001)  ploadbar=  1.01088583717910E+05
 cg2d: Sum(rhs),rhsMax =  -7.19882180511922E+01  1.10488480771704E+00
(PID.TID 0000.0001)  ploadbar=  1.01089396333447E+05
 cg2d: Sum(rhs),rhsMax =  -7.20225263359215E+01  1.10416082160559E+00
(PID.TID 0000.0001)  ploadbar=  1.01090208948983E+05
 cg2d: Sum(rhs),rhsMax =  -7.20654395744972E+01  1.10334380647809E+00
(PID.TID 0000.0001)  ploadbar=  1.01091021564520E+05
 cg2d: Sum(rhs),rhsMax =  -7.21160037124368E+01  1.10244381611004E+00
(PID.TID 0000.0001)  ploadbar=  1.01091834180056E+05
 cg2d: Sum(rhs),rhsMax =  -7.21818109617656E+01  1.10129149927660E+00
(PID.TID 0000.0001)  ploadbar=  1.01091599692257E+05
 cg2d: Sum(rhs),rhsMax =  -7.22539925696729E+01  1.10002263257240E+00
(PID.TID 0000.0001)  ploadbar=  1.01091365204457E+05
 cg2d: Sum(rhs),rhsMax =  -7.23291557405609E+01  1.09868583651749E+00
(PID.TID 0000.0001)  ploadbar=  1.01091130716657E+05
 cg2d: Sum(rhs),rhsMax =  -7.24061925475299E+01  1.09729262615489E+00
(PID.TID 0000.0001)  ploadbar=  1.01090896228858E+05
 cg2d: Sum(rhs),rhsMax =  -7.24788881923544E+01  1.09593677165677E+00
(PID.TID 0000.0001)  ploadbar=  1.01090661741058E+05
 cg2d: Sum(rhs),rhsMax =  -7.25447947289269E+01  1.09465131690450E+00
(PID.TID 0000.0001)  ploadbar=  1.01090427253259E+05
 cg2d: Sum(rhs),rhsMax =  -7.25626949887555E+01  1.09409579692046E+00
(PID.TID 0000.0001)  ploadbar=  1.01090176463633E+05
 cg2d: Sum(rhs),rhsMax =  -7.25740065942939E+01  1.09364070864854E+00
(PID.TID 0000.0001)  ploadbar=  1.01089925674008E+05
 cg2d: Sum(rhs),rhsMax =  -7.25841648105934E+01  1.09320379768145E+00
(PID.TID 0000.0001)  ploadbar=  1.01089674884383E+05
 cg2d: Sum(rhs),rhsMax =  -7.25891148719713E+01  1.09284437771908E+00
(PID.TID 0000.0001)  ploadbar=  1.01089424094757E+05
 cg2d: Sum(rhs),rhsMax =  -7.25904747479952E+01  1.09253626168894E+00
(PID.TID 0000.0001)  ploadbar=  1.01089173305132E+05
 cg2d: Sum(rhs),rhsMax =  -7.25892143119240E+01  1.09225920430512E+00
(PID.TID 0000.0001)  ploadbar=  1.01088922515506E+05
 cg2d: Sum(rhs),rhsMax =  -7.25139777737136E+01  1.09304562030654E+00
(PID.TID 0000.0001)  ploadbar=  1.01088480963382E+05
 cg2d: Sum(rhs),rhsMax =  -7.20339390446670E+01  1.09992739106470E+00
(PID.TID 0000.0001)  ploadbar=  1.01088039411259E+05
 cg2d: Sum(rhs),rhsMax =  -7.14339013807813E+01  1.10870691394278E+00
(PID.TID 0000.0001)  ploadbar=  1.01087597859135E+05
 cg2d: Sum(rhs),rhsMax =  -7.09016886247594E+01  1.11651134803210E+00
(PID.TID 0000.0001)  ploadbar=  1.01087156307011E+05
 cg2d: Sum(rhs),rhsMax =  -7.04105078985773E+01  1.12372424962566E+00
(PID.TID 0000.0001)  ploadbar=  1.01086714754887E+05
 cg2d: Sum(rhs),rhsMax =  -7.01147987327663E+01  1.12782876816720E+00
(PID.TID 0000.0001)  ploadbar=  1.01086273202763E+05
 cg2d: Sum(rhs),rhsMax =  -6.97101417545666E+01  1.13378542428388E+00
(PID.TID 0000.0001)  ploadbar=  1.01087339906479E+05
 cg2d: Sum(rhs),rhsMax =  -6.91561363147752E+01  1.14232178189778E+00
(PID.TID 0000.0001)  ploadbar=  1.01088406610195E+05
 cg2d: Sum(rhs),rhsMax =  -6.83952107479667E+01  1.15452773602502E+00
(PID.TID 0000.0001)  ploadbar=  1.01089473313911E+05
 cg2d: Sum(rhs),rhsMax =  -6.73458509863450E+01  1.17205323032796E+00
(PID.TID 0000.0001)  ploadbar=  1.01090540017628E+05
 cg2d: Sum(rhs),rhsMax =  -6.59878048325288E+01  1.19574193176170E+00
(PID.TID 0000.0001)  ploadbar=  1.01091606721344E+05
 cg2d: Sum(rhs),rhsMax =  -6.43644423943927E+01  1.22549126128588E+00
(PID.TID 0000.0001)  ploadbar=  1.01092673425060E+05
 cg2d: Sum(rhs),rhsMax =  -6.25213406750364E+01  1.26117920002002E+00
(PID.TID 0000.0001)  ploadbar=  1.01093439800319E+05
 cg2d: Sum(rhs),rhsMax =  -6.07218106089594E+01  1.29808116468662E+00
(PID.TID 0000.0001)  ploadbar=  1.01094206175578E+05
 cg2d: Sum(rhs),rhsMax =  -5.90777785973801E+01  1.33368795944271E+00
(PID.TID 0000.0001)  ploadbar=  1.01094972550837E+05
 cg2d: Sum(rhs),rhsMax =  -5.76337667215492E+01  1.36653779775596E+00
(PID.TID 0000.0001)  ploadbar=  1.01095738926096E+05
 cg2d: Sum(rhs),rhsMax =  -5.64043069891139E+01  1.39570550435199E+00
(PID.TID 0000.0001)  ploadbar=  1.01096505301355E+05
 cg2d: Sum(rhs),rhsMax =  -5.55437317955993E+01  1.41665558665570E+00
(PID.TID 0000.0001)  ploadbar=  1.01097271676614E+05
 cg2d: Sum(rhs),rhsMax =  -5.48384526425975E+01  1.43423155361813E+00
(PID.TID 0000.0001)  ploadbar=  1.01098038292916E+05
 cg2d: Sum(rhs),rhsMax =  -5.43900492837487E+01  1.44544392279460E+00
(PID.TID 0000.0001)  ploadbar=  1.01098804909217E+05
 cg2d: Sum(rhs),rhsMax =  -5.43063045433594E+01  1.44709391668972E+00
(PID.TID 0000.0001)  ploadbar=  1.01099571525519E+05
 cg2d: Sum(rhs),rhsMax =  -5.45562030610783E+01  1.43992068828950E+00
(PID.TID 0000.0001)  ploadbar=  1.01100338141820E+05
 cg2d: Sum(rhs),rhsMax =  -5.50680664974462E+01  1.42602351074883E+00
(PID.TID 0000.0001)  ploadbar=  1.01101104758121E+05
 cg2d: Sum(rhs),rhsMax =  -5.55679095133075E+01  1.41270687408024E+00
(PID.TID 0000.0001)  ploadbar=  1.01101871374423E+05
 cg2d: Sum(rhs),rhsMax =  -5.60440220292425E+01  1.40022546749414E+00
(PID.TID 0000.0001)  ploadbar=  1.01103290491945E+05
 cg2d: Sum(rhs),rhsMax =  -5.65138370816094E+01  1.38811156076281E+00
(PID.TID 0000.0001)  ploadbar=  1.01104709609467E+05
 cg2d: Sum(rhs),rhsMax =  -5.69881703923395E+01  1.37608827392556E+00
(PID.TID 0000.0001)  ploadbar=  1.01106128726988E+05
 cg2d: Sum(rhs),rhsMax =  -5.74585670396021E+01  1.36435521521549E+00
(PID.TID 0000.0001)  ploadbar=  1.01107547844510E+05
 cg2d: Sum(rhs),rhsMax =  -5.79229063187428E+01  1.35295067133360E+00
(PID.TID 0000.0001)  ploadbar=  1.01108966962032E+05
 cg2d: Sum(rhs),rhsMax =  -5.84179516902665E+01  1.34101915517622E+00
(PID.TID 0000.0001)  ploadbar=  1.01110386079554E+05
 cg2d: Sum(rhs),rhsMax =  -5.88547560974034E+01  1.33066999898941E+00
(PID.TID 0000.0001)  ploadbar=  1.01110465577970E+05
 cg2d: Sum(rhs),rhsMax =  -5.92657555152285E+01  1.32111140400348E+00
(PID.TID 0000.0001)  ploadbar=  1.01110545076385E+05
 cg2d: Sum(rhs),rhsMax =  -5.97203244204106E+01  1.31078904397811E+00
(PID.TID 0000.0001)  ploadbar=  1.01110624574801E+05
 cg2d: Sum(rhs),rhsMax =  -5.89781179969472E+01  1.32707461338981E+00
(PID.TID 0000.0001)  ploadbar=  1.01110704073217E+05
 cg2d: Sum(rhs),rhsMax =  -5.69027154936572E+01  1.37531509627595E+00
(PID.TID 0000.0001)  ploadbar=  1.01110783571632E+05
 cg2d: Sum(rhs),rhsMax =  -5.49676627439874E+01  1.42361046491702E+00
(PID.TID 0000.0001)  ploadbar=  1.01110863070048E+05
 cg2d: Sum(rhs),rhsMax =  -5.33421238421917E+01  1.46682686517734E+00
(PID.TID 0000.0001)  ploadbar=  1.01111010929829E+05
 cg2d: Sum(rhs),rhsMax =  -5.20425663144784E+01  1.50323335222234E+00
(PID.TID 0000.0001)  ploadbar=  1.01111158789610E+05
 cg2d: Sum(rhs),rhsMax =  -5.10841979895105E+01  1.53114815293035E+00
(PID.TID 0000.0001)  ploadbar=  1.01111306649391E+05
 cg2d: Sum(rhs),rhsMax =  -5.04904012080968E+01  1.54880361221992E+00
(PID.TID 0000.0001)  ploadbar=  1.01111454509172E+05
 cg2d: Sum(rhs),rhsMax =  -5.02881037682340E+01  1.55461301460826E+00
(PID.TID 0000.0001)  ploadbar=  1.01111602368953E+05
 cg2d: Sum(rhs),rhsMax =  -5.04985000710848E+01  1.54764210479611E+00
(PID.TID 0000.0001)  ploadbar=  1.01111750228734E+05
 cg2d: Sum(rhs),rhsMax =  -5.10586886318472E+01  1.53019420098126E+00
(PID.TID 0000.0001)  ploadbar=  1.01113944626248E+05
 cg2d: Sum(rhs),rhsMax =  -5.18616090385949E+01  1.50605881527960E+00
(PID.TID 0000.0001)  ploadbar=  1.01116139023763E+05
 cg2d: Sum(rhs),rhsMax =  -5.28212620691566E+01  1.47827101647807E+00
(PID.TID 0000.0001)  ploadbar=  1.01118333421277E+05
 cg2d: Sum(rhs),rhsMax =  -5.38892602462030E+01  1.44856322068752E+00
(PID.TID 0000.0001)  ploadbar=  1.01120527818792E+05
 cg2d: Sum(rhs),rhsMax =  -5.50352610012529E+01  1.41799727860663E+00
(PID.TID 0000.0001)  ploadbar=  1.01122722216306E+05
 cg2d: Sum(rhs),rhsMax =  -5.62543858842160E+01  1.38686571139721E+00
(PID.TID 0000.0001)  ploadbar=  1.01124916613820E+05
 cg2d: Sum(rhs),rhsMax =  -5.75188001362149E+01  1.35597787964398E+00
(PID.TID 0000.0001)  ploadbar=  1.01125517273692E+05
 cg2d: Sum(rhs),rhsMax =  -5.88482570624958E+01  1.32494157683200E+00
(PID.TID 0000.0001)  ploadbar=  1.01126117933564E+05
 cg2d: Sum(rhs),rhsMax =  -6.02577145542720E+01  1.29354249273949E+00
(PID.TID 0000.0001)  ploadbar=  1.01126718593436E+05
 cg2d: Sum(rhs),rhsMax =  -6.16442762697991E+01  1.26403251910647E+00
(PID.TID 0000.0001)  ploadbar=  1.01127319253308E+05
 cg2d: Sum(rhs),rhsMax =  -6.29543697544042E+01  1.23730514859360E+00
(PID.TID 0000.0001)  ploadbar=  1.01127919913180E+05
 cg2d: Sum(rhs),rhsMax =  -6.42703411507511E+01  1.21153791938676E+00
(PID.TID 0000.0001)  ploadbar=  1.01128520573052E+05
 cg2d: Sum(rhs),rhsMax =  -6.56139472053738E+01  1.18635805009661E+00
(PID.TID 0000.0001)  ploadbar=  1.01127907207810E+05
 cg2d: Sum(rhs),rhsMax =  -6.69682555553425E+01  1.16205239264934E+00
(PID.TID 0000.0001)  ploadbar=  1.01127293842568E+05
 cg2d: Sum(rhs),rhsMax =  -6.79773202991597E+01  1.14453773884555E+00
(PID.TID 0000.0001)  ploadbar=  1.01126680477326E+05
 cg2d: Sum(rhs),rhsMax =  -6.88779347125427E+01  1.12934762708822E+00
(PID.TID 0000.0001)  ploadbar=  1.01126067112085E+05
 cg2d: Sum(rhs),rhsMax =  -6.98442580740368E+01  1.11353485592130E+00
(PID.TID 0000.0001)  ploadbar=  1.01125453746843E+05
 cg2d: Sum(rhs),rhsMax =  -7.05507837398333E+01  1.10222360196514E+00
(PID.TID 0000.0001)  ploadbar=  1.01124840381601E+05
 cg2d: Sum(rhs),rhsMax =  -7.05264281798714E+01  1.10243026529183E+00
(PID.TID 0000.0001)  ploadbar=  1.01125355523469E+05
 cg2d: Sum(rhs),rhsMax =  -7.05087838327710E+01  1.10251304737705E+00
(PID.TID 0000.0001)  ploadbar=  1.01125870665337E+05
 cg2d: Sum(rhs),rhsMax =  -7.04964755637459E+01  1.10248728529038E+00
(PID.TID 0000.0001)  ploadbar=  1.01126385807205E+05
 cg2d: Sum(rhs),rhsMax =  -7.04907652782037E+01  1.10232786293056E+00
(PID.TID 0000.0001)  ploadbar=  1.01126900949074E+05
 cg2d: Sum(rhs),rhsMax =  -7.04921433022446E+01  1.10202395521289E+00
(PID.TID 0000.0001)  ploadbar=  1.01127416090942E+05
 cg2d: Sum(rhs),rhsMax =  -7.05056569211345E+01  1.10149750242211E+00
(PID.TID 0000.0001)  ploadbar=  1.01127931232810E+05
 cg2d: Sum(rhs),rhsMax =  -7.05142077048974E+01  1.10108908708237E+00
(PID.TID 0000.0001)  ploadbar=  1.01128341997165E+05
 cg2d: Sum(rhs),rhsMax =  -7.05528191943915E+01  1.10024839428610E+00
(PID.TID 0000.0001)  ploadbar=  1.01128752761520E+05
 cg2d: Sum(rhs),rhsMax =  -7.06202174294981E+01  1.09899099012679E+00
(PID.TID 0000.0001)  ploadbar=  1.01129163525874E+05
 cg2d: Sum(rhs),rhsMax =  -7.07182131002522E+01  1.09728708051864E+00
(PID.TID 0000.0001)  ploadbar=  1.01129574290229E+05
 cg2d: Sum(rhs),rhsMax =  -7.08496154632483E+01  1.09509275484027E+00
(PID.TID 0000.0001)  ploadbar=  1.01129985054584E+05
 cg2d: Sum(rhs),rhsMax =  -7.10153136948762E+01  1.09239545786902E+00
(PID.TID 0000.0001)  ploadbar=  1.01130395818939E+05
 cg2d: Sum(rhs),rhsMax =  -7.12065512775817E+01  1.08930375340624E+00
(PID.TID 0000.0001)  ploadbar=  1.01130181135977E+05
 cg2d: Sum(rhs),rhsMax =  -7.14298619811841E+01  1.08572241162566E+00
(PID.TID 0000.0001)  ploadbar=  1.01129966453015E+05
 cg2d: Sum(rhs),rhsMax =  -7.16851585752114E+01  1.08166141199191E+00
(PID.TID 0000.0001)  ploadbar=  1.01129751770054E+05
 cg2d: Sum(rhs),rhsMax =  -7.19735422427330E+01  1.07711314726945E+00
(PID.TID 0000.0001)  ploadbar=  1.01129537087092E+05
 cg2d: Sum(rhs),rhsMax =  -7.22936294648511E+01  1.07210897849263E+00
(PID.TID 0000.0001)  ploadbar=  1.01129322404131E+05
 cg2d: Sum(rhs),rhsMax =  -7.26448946221579E+01  1.06667114406018E+00
(PID.TID 0000.0001)  ploadbar=  1.01129107721169E+05
 cg2d: Sum(rhs),rhsMax =  -7.32197313047656E+01  1.05808719529804E+00
(PID.TID 0000.0001)  ploadbar=  1.01130053025957E+05
 cg2d: Sum(rhs),rhsMax =  -7.38526542100541E+01  1.04884948250024E+00
(PID.TID 0000.0001)  ploadbar=  1.01130998330745E+05
 cg2d: Sum(rhs),rhsMax =  -7.45082998598569E+01  1.03948895575925E+00
(PID.TID 0000.0001)  ploadbar=  1.01131943635533E+05
 cg2d: Sum(rhs),rhsMax =  -7.51796341572779E+01  1.03011039861798E+00
(PID.TID 0000.0001)  ploadbar=  1.01132888940320E+05
 cg2d: Sum(rhs),rhsMax =  -7.58624603481648E+01  1.02077227933786E+00
(PID.TID 0000.0001)  ploadbar=  1.01133834245108E+05
 cg2d: Sum(rhs),rhsMax =  -7.65553461378178E+01  1.01149087866972E+00
(PID.TID 0000.0001)  ploadbar=  1.01134779549896E+05
 cg2d: Sum(rhs),rhsMax =  -7.68841084228622E+01  1.00709850679475E+00
(PID.TID 0000.0001)  ploadbar=  1.01134600024823E+05
 cg2d: Sum(rhs),rhsMax =  -7.68229398856363E+01  1.00780801460145E+00
(PID.TID 0000.0001)  ploadbar=  1.01134420499751E+05
 cg2d: Sum(rhs),rhsMax =  -7.67606494136902E+01  1.00850652107225E+00
(PID.TID 0000.0001)  ploadbar=  1.01134240974679E+05
 cg2d: Sum(rhs),rhsMax =  -7.66931033308880E+01  1.00924705424437E+00
(PID.TID 0000.0001)  ploadbar=  1.01134061449607E+05
 cg2d: Sum(rhs),rhsMax =  -7.66218108581899E+01  1.01000712964939E+00
(PID.TID 0000.0001)  ploadbar=  1.01133881924535E+05
 cg2d: Sum(rhs),rhsMax =  -7.65478656424581E+01  1.01076881702511E+00
(PID.TID 0000.0001)  ploadbar=  1.01133702399462E+05
 cg2d: Sum(rhs),rhsMax =  -7.64412702845969E+01  1.01198423401794E+00
(PID.TID 0000.0001)  ploadbar=  1.01133491020908E+05
 cg2d: Sum(rhs),rhsMax =  -7.63377519295220E+01  1.01317936691932E+00
(PID.TID 0000.0001)  ploadbar=  1.01133279642353E+05
 cg2d: Sum(rhs),rhsMax =  -7.62300981733229E+01  1.01444395755356E+00
(PID.TID 0000.0001)  ploadbar=  1.01133068263799E+05
 cg2d: Sum(rhs),rhsMax =  -7.61222666265493E+01  1.01571936622799E+00
(PID.TID 0000.0001)  ploadbar=  1.01132856885244E+05
 cg2d: Sum(rhs),rhsMax =  -7.60168014115920E+01  1.01696714654885E+00
(PID.TID 0000.0001)  ploadbar=  1.01132645506689E+05
 cg2d: Sum(rhs),rhsMax =  -7.59123358884778E+01  1.01819730148560E+00
(PID.TID 0000.0001)  ploadbar=  1.01132434128135E+05
 cg2d: Sum(rhs),rhsMax =  -7.58660432441131E+01  1.01865994456115E+00
(PID.TID 0000.0001)  ploadbar=  1.01131999398357E+05
 cg2d: Sum(rhs),rhsMax =  -7.58152514845257E+01  1.01919330221916E+00
(PID.TID 0000.0001)  ploadbar=  1.01131564668579E+05
 cg2d: Sum(rhs),rhsMax =  -7.56474540408564E+01  1.02131246600702E+00
(PID.TID 0000.0001)  ploadbar=  1.01131129938801E+05
 cg2d: Sum(rhs),rhsMax =  -7.53901546384720E+01  1.02466261967066E+00
(PID.TID 0000.0001)  ploadbar=  1.01130695209023E+05
 cg2d: Sum(rhs),rhsMax =  -7.52646252747892E+01  1.02624104570570E+00
(PID.TID 0000.0001)  ploadbar=  1.01130260479245E+05
 cg2d: Sum(rhs),rhsMax =  -7.52644265686380E+01  1.02612037644872E+00
(PID.TID 0000.0001)  ploadbar=  1.01129825749467E+05
 cg2d: Sum(rhs),rhsMax =  -7.53755267107721E+01  1.02453730533361E+00
(PID.TID 0000.0001)  ploadbar=  1.01129134438497E+05
 cg2d: Sum(rhs),rhsMax =  -7.55303743004569E+01  1.02241258559790E+00
(PID.TID 0000.0001)  ploadbar=  1.01128443127526E+05
 cg2d: Sum(rhs),rhsMax =  -7.55214272510840E+01  1.02255264463541E+00
(PID.TID 0000.0001)  ploadbar=  1.01127751816556E+05
 cg2d: Sum(rhs),rhsMax =  -7.55328835120467E+01  1.02245618723122E+00
(PID.TID 0000.0001)  ploadbar=  1.01127060505585E+05
 cg2d: Sum(rhs),rhsMax =  -7.55682486976198E+01  1.02207348056974E+00
(PID.TID 0000.0001)  ploadbar=  1.01126369194615E+05
 cg2d: Sum(rhs),rhsMax =  -7.56241492937460E+01  1.02144397597806E+00
(PID.TID 0000.0001)  ploadbar=  1.01125677883644E+05
 cg2d: Sum(rhs),rhsMax =  -7.56767869326518E+01  1.02081675027633E+00
(PID.TID 0000.0001)  ploadbar=  1.01124821086462E+05
 cg2d: Sum(rhs),rhsMax =  -7.57628586633652E+01  1.01969632291816E+00
(PID.TID 0000.0001)  ploadbar=  1.01123964289280E+05
 cg2d: Sum(rhs),rhsMax =  -7.58636110178688E+01  1.01833568858432E+00
(PID.TID 0000.0001)  ploadbar=  1.01123107492097E+05
 cg2d: Sum(rhs),rhsMax =  -7.59661984716953E+01  1.01690583775047E+00
(PID.TID 0000.0001)  ploadbar=  1.01122250694915E+05
 cg2d: Sum(rhs),rhsMax =  -7.60579450851918E+01  1.01557320383258E+00
(PID.TID 0000.0001)  ploadbar=  1.01121393897733E+05
 cg2d: Sum(rhs),rhsMax =  -7.61232571270677E+01  1.01454219667904E+00
(PID.TID 0000.0001)  ploadbar=  1.01120537100551E+05
 cg2d: Sum(rhs),rhsMax =  -7.61314314912283E+01  1.01427698641935E+00
(PID.TID 0000.0001)  ploadbar=  1.01118958240237E+05
 cg2d: Sum(rhs),rhsMax =  -7.60511967544286E+01  1.01518955660132E+00
(PID.TID 0000.0001)  ploadbar=  1.01117379379923E+05
 cg2d: Sum(rhs),rhsMax =  -7.58748265607089E+01  1.01738691132494E+00
(PID.TID 0000.0001)  ploadbar=  1.01115800519610E+05
 cg2d: Sum(rhs),rhsMax =  -7.56531759346467E+01  1.02019649237671E+00
(PID.TID 0000.0001)  ploadbar=  1.01114221659296E+05
 cg2d: Sum(rhs),rhsMax =  -7.54144065497408E+01  1.02324419511190E+00
(PID.TID 0000.0001)  ploadbar=  1.01112642798982E+05
 cg2d: Sum(rhs),rhsMax =  -7.51825127361488E+01  1.02620560347728E+00
(PID.TID 0000.0001)  ploadbar=  1.01111063938668E+05
 cg2d: Sum(rhs),rhsMax =  -7.52208414029048E+01  1.02546484230679E+00
(PID.TID 0000.0001)  ploadbar=  1.01110649286739E+05
 cg2d: Sum(rhs),rhsMax =  -7.52732332944153E+01  1.02451060398199E+00
(PID.TID 0000.0001)  ploadbar=  1.01110234634809E+05
 cg2d: Sum(rhs),rhsMax =  -7.53402311523936E+01  1.02333434555693E+00
(PID.TID 0000.0001)  ploadbar=  1.01109819982880E+05
 cg2d: Sum(rhs),rhsMax =  -7.54288731913092E+01  1.02184091826946E+00
(PID.TID 0000.0001)  ploadbar=  1.01109405330950E+05
 cg2d: Sum(rhs),rhsMax =  -7.55292337871922E+01  1.02016539141765E+00
(PID.TID 0000.0001)  ploadbar=  1.01108990679021E+05
 cg2d: Sum(rhs),rhsMax =  -7.56511513417554E+01  1.01818038746303E+00
(PID.TID 0000.0001)  ploadbar=  1.01108576027092E+05
 cg2d: Sum(rhs),rhsMax =  -7.44589494877249E+01  1.03416303549128E+00
(PID.TID 0000.0001)  ploadbar=  1.01108514453760E+05
 cg2d: Sum(rhs),rhsMax =  -7.24637698681197E+01  1.06232924913155E+00
(PID.TID 0000.0001)  ploadbar=  1.01108452880428E+05
 cg2d: Sum(rhs),rhsMax =  -7.04273313110333E+01  1.09274934161149E+00
(PID.TID 0000.0001)  ploadbar=  1.01108391307096E+05
 cg2d: Sum(rhs),rhsMax =  -6.83540025249214E+01  1.12560675202151E+00
(PID.TID 0000.0001)  ploadbar=  1.01108329733764E+05
 cg2d: Sum(rhs),rhsMax =  -6.62844978393463E+01  1.16047061905149E+00
(PID.TID 0000.0001)  ploadbar=  1.01108268160432E+05
 cg2d: Sum(rhs),rhsMax =  -6.42291397698222E+01  1.19733000836493E+00
(PID.TID 0000.0001)  ploadbar=  1.01108206587101E+05
 cg2d: Sum(rhs),rhsMax =  -6.23791330413125E+01  1.23255097535679E+00
(PID.TID 0000.0001)  ploadbar=  1.01107772021316E+05
 cg2d: Sum(rhs),rhsMax =  -6.07288546640227E+01  1.26573942517548E+00
(PID.TID 0000.0001)  ploadbar=  1.01107337455531E+05
 cg2d: Sum(rhs),rhsMax =  -5.93375668930721E+01  1.29509249467943E+00
(PID.TID 0000.0001)  ploadbar=  1.01106902889746E+05
 cg2d: Sum(rhs),rhsMax =  -5.82525166308529E+01  1.31886904218555E+00
(PID.TID 0000.0001)  ploadbar=  1.01106468323961E+05
 cg2d: Sum(rhs),rhsMax =  -5.74618071792712E+01  1.33664744502678E+00
(PID.TID 0000.0001)  ploadbar=  1.01106033758176E+05
 cg2d: Sum(rhs),rhsMax =  -5.75611340359647E+01  1.33394893421688E+00
(PID.TID 0000.0001)  ploadbar=  1.01105599192391E+05
 cg2d: Sum(rhs),rhsMax =  -5.78862861374145E+01  1.32609217725195E+00
(PID.TID 0000.0001)  ploadbar=  1.01105855250403E+05
 cg2d: Sum(rhs),rhsMax =  -5.82711616179757E+01  1.31699470906606E+00
(PID.TID 0000.0001)  ploadbar=  1.01106111308415E+05
 cg2d: Sum(rhs),rhsMax =  -5.87026819335713E+01  1.30699464232994E+00
(PID.TID 0000.0001)  ploadbar=  1.01106367366426E+05
 cg2d: Sum(rhs),rhsMax =  -5.92097829127932E+01  1.29549621522223E+00
(PID.TID 0000.0001)  ploadbar=  1.01106623424438E+05
 cg2d: Sum(rhs),rhsMax =  -5.98041944577625E+01  1.28232372034051E+00
(PID.TID 0000.0001)  ploadbar=  1.01106879482449E+05
 cg2d: Sum(rhs),rhsMax =  -6.04922841555310E+01  1.26744595823205E+00
(PID.TID 0000.0001)  ploadbar=  1.01107135540461E+05
 cg2d: Sum(rhs),rhsMax =  -6.12989590334607E+01  1.25046827185733E+00
(PID.TID 0000.0001)  ploadbar=  1.01107351185738E+05
 cg2d: Sum(rhs),rhsMax =  -6.22002411195155E+01  1.23204261158698E+00
(PID.TID 0000.0001)  ploadbar=  1.01107566831015E+05
 cg2d: Sum(rhs),rhsMax =  -6.31948666359445E+01  1.21233565411390E+00
(PID.TID 0000.0001)  ploadbar=  1.01107782476292E+05
 cg2d: Sum(rhs),rhsMax =  -6.42773076683070E+01  1.19159379412061E+00
(PID.TID 0000.0001)  ploadbar=  1.01107998121569E+05
 cg2d: Sum(rhs),rhsMax =  -6.54336109519110E+01  1.17020039195444E+00
(PID.TID 0000.0001)  ploadbar=  1.01108213766846E+05
 cg2d: Sum(rhs),rhsMax =  -6.66399813981036E+01  1.14866880002162E+00
(PID.TID 0000.0001)  ploadbar=  1.01108429412122E+05
 cg2d: Sum(rhs),rhsMax =  -6.79965760643689E+01  1.12545219381284E+00
(PID.TID 0000.0001)  ploadbar=  1.01109037645365E+05
 cg2d: Sum(rhs),rhsMax =  -6.89727206444684E+01  1.10926489117369E+00
(PID.TID 0000.0001)  ploadbar=  1.01109645878607E+05
 cg2d: Sum(rhs),rhsMax =  -6.84567629544097E+01  1.11739862109760E+00
(PID.TID 0000.0001)  ploadbar=  1.01110254111849E+05
 cg2d: Sum(rhs),rhsMax =  -6.79763923714426E+01  1.12509967603144E+00
(PID.TID 0000.0001)  ploadbar=  1.01110862345091E+05
 cg2d: Sum(rhs),rhsMax =  -6.75429628598593E+01  1.13215431295932E+00
(PID.TID 0000.0001)  ploadbar=  1.01111470578333E+05
 cg2d: Sum(rhs),rhsMax =  -6.71604149660058E+01  1.13846294844617E+00
(PID.TID 0000.0001)  ploadbar=  1.01112078811575E+05
 cg2d: Sum(rhs),rhsMax =  -6.68527641635769E+01  1.14354789122587E+00
(PID.TID 0000.0001)  ploadbar=  1.01113022071624E+05
 cg2d: Sum(rhs),rhsMax =  -6.65848442078004E+01  1.14797611500298E+00
(PID.TID 0000.0001)  ploadbar=  1.01113965331674E+05
 cg2d: Sum(rhs),rhsMax =  -6.63359336588125E+01  1.15208859963512E+00
(PID.TID 0000.0001)  ploadbar=  1.01114908591723E+05
 cg2d: Sum(rhs),rhsMax =  -6.61098445613372E+01  1.15580810121023E+00
(PID.TID 0000.0001)  ploadbar=  1.01115851851772E+05
 cg2d: Sum(rhs),rhsMax =  -6.59009144928219E+01  1.15922392007298E+00
(PID.TID 0000.0001)  ploadbar=  1.01116795111822E+05
 cg2d: Sum(rhs),rhsMax =  -6.57055940980589E+01  1.16239035198861E+00
(PID.TID 0000.0001)  ploadbar=  1.01117738371871E+05
 cg2d: Sum(rhs),rhsMax =  -6.55732058473409E+01  1.16445342449052E+00
(PID.TID 0000.0001)  ploadbar=  1.01120157273323E+05
 cg2d: Sum(rhs),rhsMax =  -6.54478268984942E+01  1.16639500833107E+00
(PID.TID 0000.0001)  ploadbar=  1.01122576174774E+05
 cg2d: Sum(rhs),rhsMax =  -6.53242714435891E+01  1.16830259067128E+00
(PID.TID 0000.0001)  ploadbar=  1.01124995076226E+05
 cg2d: Sum(rhs),rhsMax =  -6.52020362909585E+01  1.17018085667019E+00
(PID.TID 0000.0001)  ploadbar=  1.01127413977677E+05
 cg2d: Sum(rhs),rhsMax =  -6.50804954999614E+01  1.17203733601621E+00
(PID.TID 0000.0001)  ploadbar=  1.01129832879129E+05
 cg2d: Sum(rhs),rhsMax =  -6.49602681153727E+01  1.17385568998282E+00
(PID.TID 0000.0001)  ploadbar=  1.01132251780581E+05
 cg2d: Sum(rhs),rhsMax =  -6.47614826619603E+01  1.17710005481287E+00
(PID.TID 0000.0001)  ploadbar=  1.01132622184965E+05
 cg2d: Sum(rhs),rhsMax =  -6.45530324029145E+01  1.18053286703860E+00
(PID.TID 0000.0001)  ploadbar=  1.01132992589348E+05
 cg2d: Sum(rhs),rhsMax =  -6.43591452394524E+01  1.18370910863142E+00
(PID.TID 0000.0001)  ploadbar=  1.01133362993732E+05
 cg2d: Sum(rhs),rhsMax =  -6.41729028211073E+01  1.18675084954863E+00
(PID.TID 0000.0001)  ploadbar=  1.01133733398116E+05
 cg2d: Sum(rhs),rhsMax =  -6.39932292244358E+01  1.18967451397259E+00
(PID.TID 0000.0001)  ploadbar=  1.01134103802500E+05
 cg2d: Sum(rhs),rhsMax =  -6.37492782066265E+01  1.19380378716743E+00
(PID.TID 0000.0001)  ploadbar=  1.01134474206884E+05
 cg2d: Sum(rhs),rhsMax =  -6.35100192571158E+01  1.19792479689381E+00
(PID.TID 0000.0001)  ploadbar=  1.01134225448527E+05
 cg2d: Sum(rhs),rhsMax =  -6.33165287870744E+01  1.20125100494682E+00
(PID.TID 0000.0001)  ploadbar=  1.01133976690171E+05
 cg2d: Sum(rhs),rhsMax =  -6.31664548086930E+01  1.20381134119237E+00
(PID.TID 0000.0001)  ploadbar=  1.01133727931814E+05
 cg2d: Sum(rhs),rhsMax =  -6.30534676988826E+01  1.20571447778438E+00
(PID.TID 0000.0001)  ploadbar=  1.01133479173457E+05
 cg2d: Sum(rhs),rhsMax =  -6.29734672121369E+01  1.20702773728526E+00
(PID.TID 0000.0001)  ploadbar=  1.01133230415100E+05
 cg2d: Sum(rhs),rhsMax =  -6.29228062666129E+01  1.20780829330489E+00
(PID.TID 0000.0001)  ploadbar=  1.01132981656743E+05
 cg2d: Sum(rhs),rhsMax =  -6.29022892460225E+01  1.20802479488335E+00
(PID.TID 0000.0001)  ploadbar=  1.01133213362912E+05
 cg2d: Sum(rhs),rhsMax =  -6.28768604822333E+01  1.20834401776270E+00
(PID.TID 0000.0001)  ploadbar=  1.01133445069081E+05
 cg2d: Sum(rhs),rhsMax =  -6.28453543835810E+01  1.20878260894138E+00
(PID.TID 0000.0001)  ploadbar=  1.01133676775250E+05
 cg2d: Sum(rhs),rhsMax =  -6.28083424955971E+01  1.20932848525453E+00
(PID.TID 0000.0001)  ploadbar=  1.01133908481419E+05
 cg2d: Sum(rhs),rhsMax =  -6.27648912944388E+01  1.20999668452245E+00
(PID.TID 0000.0001)  ploadbar=  1.01134140187588E+05
 cg2d: Sum(rhs),rhsMax =  -6.27159779714249E+01  1.21076445329391E+00
(PID.TID 0000.0001)  ploadbar=  1.01134371893757E+05
 cg2d: Sum(rhs),rhsMax =  -6.26800982082531E+01  1.21129916676744E+00
(PID.TID 0000.0001)  ploadbar=  1.01134096444280E+05
 cg2d: Sum(rhs),rhsMax =  -6.26237127711173E+01  1.21224132832640E+00
(PID.TID 0000.0001)  ploadbar=  1.01133820994804E+05
 cg2d: Sum(rhs),rhsMax =  -6.25475167689852E+01  1.21357353698211E+00
(PID.TID 0000.0001)  ploadbar=  1.01133545545328E+05
 cg2d: Sum(rhs),rhsMax =  -6.24516330212984E+01  1.21529063030859E+00
(PID.TID 0000.0001)  ploadbar=  1.01133270095852E+05
 cg2d: Sum(rhs),rhsMax =  -6.23482309414879E+01  1.21715298950019E+00
(PID.TID 0000.0001)  ploadbar=  1.01132994646375E+05
 cg2d: Sum(rhs),rhsMax =  -6.22350541970178E+01  1.21920045376145E+00
(PID.TID 0000.0001)  ploadbar=  1.01132719196899E+05
 cg2d: Sum(rhs),rhsMax =  -6.21213447314753E+01  1.22125109475987E+00
(PID.TID 0000.0001)  ploadbar=  1.01132289180700E+05
 cg2d: Sum(rhs),rhsMax =  -6.19895095956740E+01  1.22364867096628E+00
(PID.TID 0000.0001)  ploadbar=  1.01131859164502E+05
 cg2d: Sum(rhs),rhsMax =  -6.18439356815674E+01  1.22630500411664E+00
(PID.TID 0000.0001)  ploadbar=  1.01131429148303E+05
 cg2d: Sum(rhs),rhsMax =  -6.16903900455321E+01  1.22910422438835E+00
(PID.TID 0000.0001)  ploadbar=  1.01130999132104E+05
 cg2d: Sum(rhs),rhsMax =  -6.15330369836376E+01  1.23196296938304E+00
(PID.TID 0000.0001)  ploadbar=  1.01130569115906E+05
 cg2d: Sum(rhs),rhsMax =  -6.13752771150416E+01  1.23481409763371E+00
(PID.TID 0000.0001)  ploadbar=  1.01130139099707E+05
 cg2d: Sum(rhs),rhsMax =  -6.03255194901677E+01  1.25601524161576E+00
(PID.TID 0000.0001)  ploadbar=  1.01130483979560E+05
 cg2d: Sum(rhs),rhsMax =  -5.93238019647061E+01  1.27696314918249E+00
(PID.TID 0000.0001)  ploadbar=  1.01130828859414E+05
 cg2d: Sum(rhs),rhsMax =  -5.84407493530905E+01  1.29602342588612E+00
(PID.TID 0000.0001)  ploadbar=  1.01131173739267E+05
 cg2d: Sum(rhs),rhsMax =  -5.76645571066150E+01  1.31325464209616E+00
(PID.TID 0000.0001)  ploadbar=  1.01131518619120E+05
 cg2d: Sum(rhs),rhsMax =  -5.69711490876913E+01  1.32904079927529E+00
(PID.TID 0000.0001)  ploadbar=  1.01131863498974E+05
 cg2d: Sum(rhs),rhsMax =  -5.63499973301135E+01  1.34349918927079E+00
(PID.TID 0000.0001)  ploadbar=  1.01132208378827E+05
 cg2d: Sum(rhs),rhsMax =  -5.58366099205285E+01  1.35563406862908E+00
(PID.TID 0000.0001)  ploadbar=  1.01132153548016E+05
 cg2d: Sum(rhs),rhsMax =  -5.53904135519605E+01  1.36630204370760E+00
(PID.TID 0000.0001)  ploadbar=  1.01132098717205E+05
 cg2d: Sum(rhs),rhsMax =  -5.50106509990171E+01  1.37544684928316E+00
(PID.TID 0000.0001)  ploadbar=  1.01132043886394E+05
 cg2d: Sum(rhs),rhsMax =  -5.46940296131588E+01  1.38308556294444E+00
(PID.TID 0000.0001)  ploadbar=  1.01131989055583E+05
 cg2d: Sum(rhs),rhsMax =  -5.44396767809434E+01  1.38918263579339E+00
(PID.TID 0000.0001)  ploadbar=  1.01131934224772E+05
 cg2d: Sum(rhs),rhsMax =  -5.42468757682782E+01  1.39370866606172E+00
(PID.TID 0000.0001)  ploadbar=  1.01131879393961E+05
 cg2d: Sum(rhs),rhsMax =  -5.40995966825332E+01  1.39711031403886E+00
(PID.TID 0000.0001)  ploadbar=  1.01131611986170E+05
 cg2d: Sum(rhs),rhsMax =  -5.39547212022286E+01  1.40048231787300E+00
(PID.TID 0000.0001)  ploadbar=  1.01131344578379E+05
 cg2d: Sum(rhs),rhsMax =  -5.38074264370885E+01  1.40394380735142E+00
(PID.TID 0000.0001)  ploadbar=  1.01131077170589E+05
 cg2d: Sum(rhs),rhsMax =  -5.37173044378400E+01  1.40593243722418E+00
(PID.TID 0000.0001)  ploadbar=  1.01130809762798E+05
 cg2d: Sum(rhs),rhsMax =  -5.37661202717529E+01  1.40428873222024E+00
(PID.TID 0000.0001)  ploadbar=  1.01130542355008E+05
 cg2d: Sum(rhs),rhsMax =  -5.39716373725686E+01  1.39857105566058E+00
(PID.TID 0000.0001)  ploadbar=  1.01130274947217E+05
 cg2d: Sum(rhs),rhsMax =  -5.44555410118240E+01  1.38574554950808E+00
(PID.TID 0000.0001)  ploadbar=  1.01130437282464E+05
 cg2d: Sum(rhs),rhsMax =  -5.52470221686875E+01  1.36546857763608E+00
(PID.TID 0000.0001)  ploadbar=  1.01130599617711E+05
 cg2d: Sum(rhs),rhsMax =  -5.64878996547912E+01  1.33502363851051E+00
(PID.TID 0000.0001)  ploadbar=  1.01130761952957E+05
 cg2d: Sum(rhs),rhsMax =  -5.74213897009924E+01  1.31284288330132E+00
(PID.TID 0000.0001)  ploadbar=  1.01130924288204E+05
 cg2d: Sum(rhs),rhsMax =  -5.72888919522711E+01  1.31536720552900E+00
(PID.TID 0000.0001)  ploadbar=  1.01131086623451E+05
 cg2d: Sum(rhs),rhsMax =  -5.71743114655902E+01  1.31745850183070E+00
(PID.TID 0000.0001)  ploadbar=  1.01131248958698E+05
 cg2d: Sum(rhs),rhsMax =  -5.70870832841181E+01  1.31898293560266E+00
(PID.TID 0000.0001)  ploadbar=  1.01131674386836E+05
 cg2d: Sum(rhs),rhsMax =  -5.70211946409787E+01  1.32006890953378E+00
(PID.TID 0000.0001)  ploadbar=  1.01132099814974E+05
 cg2d: Sum(rhs),rhsMax =  -5.69732431780982E+01  1.32079133368059E+00
(PID.TID 0000.0001)  ploadbar=  1.01132525243112E+05
 cg2d: Sum(rhs),rhsMax =  -5.69414554548817E+01  1.32118718784794E+00
(PID.TID 0000.0001)  ploadbar=  1.01132950671250E+05
 cg2d: Sum(rhs),rhsMax =  -5.69291948262745E+01  1.32116877627041E+00
(PID.TID 0000.0001)  ploadbar=  1.01133376099388E+05
 cg2d: Sum(rhs),rhsMax =  -5.69413580226340E+01  1.32061138372045E+00
(PID.TID 0000.0001)  ploadbar=  1.01133801527526E+05
 cg2d: Sum(rhs),rhsMax =  -5.69886926851105E+01  1.31920290122052E+00
(PID.TID 0000.0001)  ploadbar=  1.01134598120213E+05
 cg2d: Sum(rhs),rhsMax =  -5.70860347123707E+01  1.31660474451429E+00
(PID.TID 0000.0001)  ploadbar=  1.01135394712901E+05
 cg2d: Sum(rhs),rhsMax =  -5.72467587651925E+01  1.31251952003755E+00
(PID.TID 0000.0001)  ploadbar=  1.01136191305588E+05
 cg2d: Sum(rhs),rhsMax =  -5.74705535836748E+01  1.30697676923416E+00
(PID.TID 0000.0001)  ploadbar=  1.01136987898275E+05
 cg2d: Sum(rhs),rhsMax =  -5.77576036901604E+01  1.30000443736843E+00
(PID.TID 0000.0001)  ploadbar=  1.01137784490963E+05
 cg2d: Sum(rhs),rhsMax =  -5.81062412746479E+01  1.29168111329363E+00
(PID.TID 0000.0001)  ploadbar=  1.01138581083650E+05
 cg2d: Sum(rhs),rhsMax =  -5.84972746836309E+01  1.28255734500556E+00
(PID.TID 0000.0001)  ploadbar=  1.01139574892079E+05
 cg2d: Sum(rhs),rhsMax =  -5.88902745622412E+01  1.27353410359594E+00
(PID.TID 0000.0001)  ploadbar=  1.01140568700509E+05
 cg2d: Sum(rhs),rhsMax =  -5.92721756865592E+01  1.26488388189079E+00
(PID.TID 0000.0001)  ploadbar=  1.01141562508938E+05
 cg2d: Sum(rhs),rhsMax =  -5.96437380487641E+01  1.25657271539732E+00
(PID.TID 0000.0001)  ploadbar=  1.01142556317367E+05
 cg2d: Sum(rhs),rhsMax =  -5.99874123843807E+01  1.24895315754564E+00
(PID.TID 0000.0001)  ploadbar=  1.01143550125797E+05
 cg2d: Sum(rhs),rhsMax =  -6.02895331542712E+01  1.24227887610481E+00
(PID.TID 0000.0001)  ploadbar=  1.01144543934226E+05
 cg2d: Sum(rhs),rhsMax =  -6.05738827170976E+01  1.23601577159985E+00
(PID.TID 0000.0001)  ploadbar=  1.01145839302230E+05
 cg2d: Sum(rhs),rhsMax =  -6.08113671919803E+01  1.23073536424522E+00
(PID.TID 0000.0001)  ploadbar=  1.01147134670234E+05
 cg2d: Sum(rhs),rhsMax =  -6.10032800170725E+01  1.22638390966287E+00
(PID.TID 0000.0001)  ploadbar=  1.01148430038238E+05
 cg2d: Sum(rhs),rhsMax =  -6.11721448764875E+01  1.22248936851734E+00
(PID.TID 0000.0001)  ploadbar=  1.01149725406242E+05
 cg2d: Sum(rhs),rhsMax =  -6.13238222677830E+01  1.21892384228122E+00
(PID.TID 0000.0001)  ploadbar=  1.01151020774246E+05
 cg2d: Sum(rhs),rhsMax =  -6.14569749821936E+01  1.21570570611789E+00
(PID.TID 0000.0001)  ploadbar=  1.01152316142250E+05
 cg2d: Sum(rhs),rhsMax =  -6.15612168962771E+01  1.21312311773286E+00
(PID.TID 0000.0001)  ploadbar=  1.01152514014368E+05
 cg2d: Sum(rhs),rhsMax =  -6.16695346256228E+01  1.21051684035794E+00
(PID.TID 0000.0001)  ploadbar=  1.01152711886486E+05
 cg2d: Sum(rhs),rhsMax =  -6.17945118213496E+01  1.20763755536249E+00
(PID.TID 0000.0001)  ploadbar=  1.01152909758604E+05
 cg2d: Sum(rhs),rhsMax =  -6.19324284741827E+01  1.20455931531752E+00
(PID.TID 0000.0001)  ploadbar=  1.01153107630722E+05
 cg2d: Sum(rhs),rhsMax =  -6.20882088588356E+01  1.20118595376397E+00
(PID.TID 0000.0001)  ploadbar=  1.01153305502840E+05
 cg2d: Sum(rhs),rhsMax =  -6.20237226692396E+01  1.20211021478519E+00
(PID.TID 0000.0001)  ploadbar=  1.01153503374958E+05
 cg2d: Sum(rhs),rhsMax =  -6.17670633099940E+01  1.20676804699892E+00
(PID.TID 0000.0001)  ploadbar=  1.01154010039222E+05
 cg2d: Sum(rhs),rhsMax =  -6.14840358984531E+01  1.21196762912115E+00
(PID.TID 0000.0001)  ploadbar=  1.01154516703487E+05
 cg2d: Sum(rhs),rhsMax =  -6.11649005450214E+01  1.21791061759782E+00
(PID.TID 0000.0001)  ploadbar=  1.01155023367752E+05
 cg2d: Sum(rhs),rhsMax =  -6.08093655324421E+01  1.22461525139043E+00
(PID.TID 0000.0001)  ploadbar=  1.01155530032017E+05
 cg2d: Sum(rhs),rhsMax =  -6.04115095649173E+01  1.23222476891462E+00
(PID.TID 0000.0001)  ploadbar=  1.01156036696282E+05
 cg2d: Sum(rhs),rhsMax =  -5.99705071688709E+01  1.24078691386727E+00
(PID.TID 0000.0001)  ploadbar=  1.01156543360547E+05
 cg2d: Sum(rhs),rhsMax =  -5.94720244053366E+01  1.25073024549506E+00
(PID.TID 0000.0001)  ploadbar=  1.01156576781181E+05
 cg2d: Sum(rhs),rhsMax =  -5.89657140099787E+01  1.26104854791240E+00
(PID.TID 0000.0001)  ploadbar=  1.01156610201816E+05
 cg2d: Sum(rhs),rhsMax =  -5.84554130721159E+01  1.27166538082844E+00
(PID.TID 0000.0001)  ploadbar=  1.01156643622450E+05
 cg2d: Sum(rhs),rhsMax =  -5.79612037707531E+01  1.28214025260865E+00
(PID.TID 0000.0001)  ploadbar=  1.01156677043084E+05
 cg2d: Sum(rhs),rhsMax =  -5.74994713457405E+01  1.29208772505915E+00
(PID.TID 0000.0001)  ploadbar=  1.01156710463719E+05
 cg2d: Sum(rhs),rhsMax =  -5.70802499425487E+01  1.30124293238231E+00
(PID.TID 0000.0001)  ploadbar=  1.01156743884353E+05
 cg2d: Sum(rhs),rhsMax =  -5.66937729189130E+01  1.30975885771202E+00
(PID.TID 0000.0001)  ploadbar=  1.01155740934961E+05
 cg2d: Sum(rhs),rhsMax =  -5.63945286716738E+01  1.31633434548186E+00
(PID.TID 0000.0001)  ploadbar=  1.01154737985568E+05
 cg2d: Sum(rhs),rhsMax =  -5.61769342598226E+01  1.32103630885493E+00
(PID.TID 0000.0001)  ploadbar=  1.01153735036176E+05
 cg2d: Sum(rhs),rhsMax =  -5.60608622292196E+01  1.32334958102952E+00
(PID.TID 0000.0001)  ploadbar=  1.01152732086784E+05
 cg2d: Sum(rhs),rhsMax =  -5.60651109764553E+01  1.32280125174673E+00
(PID.TID 0000.0001)  ploadbar=  1.01151729137391E+05
 cg2d: Sum(rhs),rhsMax =  -5.61782110948482E+01  1.31966240691711E+00
(PID.TID 0000.0001)  ploadbar=  1.01150726187999E+05
 cg2d: Sum(rhs),rhsMax =  -5.64746930377375E+01  1.31234282996125E+00
(PID.TID 0000.0001)  ploadbar=  1.01148831066250E+05
 cg2d: Sum(rhs),rhsMax =  -5.68240307509572E+01  1.30395987991712E+00
(PID.TID 0000.0001)  ploadbar=  1.01146935944502E+05
 cg2d: Sum(rhs),rhsMax =  -5.71925792800609E+01  1.29531589716504E+00
(PID.TID 0000.0001)  ploadbar=  1.01145040822754E+05
 cg2d: Sum(rhs),rhsMax =  -5.75627161106224E+01  1.28681502918764E+00
(PID.TID 0000.0001)  ploadbar=  1.01143145701006E+05
 cg2d: Sum(rhs),rhsMax =  -5.79359314371137E+01  1.27841813302205E+00
(PID.TID 0000.0001)  ploadbar=  1.01141250579257E+05
 cg2d: Sum(rhs),rhsMax =  -5.83155903726363E+01  1.27004704902183E+00
(PID.TID 0000.0001)  ploadbar=  1.01139355457509E+05
 cg2d: Sum(rhs),rhsMax =  -5.87460367840282E+01  1.26067728206970E+00
(PID.TID 0000.0001)  ploadbar=  1.01138802128915E+05
 cg2d: Sum(rhs),rhsMax =  -5.91275616070720E+01  1.25245793441130E+00
(PID.TID 0000.0001)  ploadbar=  1.01138248800321E+05
 cg2d: Sum(rhs),rhsMax =  -5.94913400189378E+01  1.24468975483806E+00
(PID.TID 0000.0001)  ploadbar=  1.01137695471726E+05
 cg2d: Sum(rhs),rhsMax =  -5.98337715573599E+01  1.23742625801693E+00
(PID.TID 0000.0001)  ploadbar=  1.01137142143132E+05
 cg2d: Sum(rhs),rhsMax =  -6.00051072311324E+01  1.23371784237494E+00
(PID.TID 0000.0001)  ploadbar=  1.01136588814538E+05
 cg2d: Sum(rhs),rhsMax =  -6.00039889358696E+01  1.23352805015746E+00
(PID.TID 0000.0001)  ploadbar=  1.01136035485944E+05
 cg2d: Sum(rhs),rhsMax =  -5.98629783120750E+01  1.23623602349747E+00
(PID.TID 0000.0001)  ploadbar=  1.01135307360265E+05
 cg2d: Sum(rhs),rhsMax =  -5.97204489133560E+01  1.23899673739033E+00
(PID.TID 0000.0001)  ploadbar=  1.01134579234587E+05
 cg2d: Sum(rhs),rhsMax =  -5.96168744091222E+01  1.24096172893498E+00
(PID.TID 0000.0001)  ploadbar=  1.01133851108908E+05
 cg2d: Sum(rhs),rhsMax =  -5.95549952010756E+01  1.24206085714377E+00
(PID.TID 0000.0001)  ploadbar=  1.01133122983230E+05
 cg2d: Sum(rhs),rhsMax =  -5.95506073723675E+01  1.24195525919050E+00
(PID.TID 0000.0001)  ploadbar=  1.01132394857551E+05
 cg2d: Sum(rhs),rhsMax =  -5.96226091997296E+01  1.24024819366274E+00
(PID.TID 0000.0001)  ploadbar=  1.01131666731873E+05
 cg2d: Sum(rhs),rhsMax =  -5.98249835611962E+01  1.23580941596530E+00
(PID.TID 0000.0001)  ploadbar=  1.01130252615198E+05
 cg2d: Sum(rhs),rhsMax =  -6.00879250141551E+01  1.23011985038569E+00
(PID.TID 0000.0001)  ploadbar=  1.01128838498524E+05
 cg2d: Sum(rhs),rhsMax =  -6.01987625087085E+01  1.22753258242329E+00
(PID.TID 0000.0001)  ploadbar=  1.01127424381849E+05
 cg2d: Sum(rhs),rhsMax =  -5.99703957160262E+01  1.23184081306370E+00
(PID.TID 0000.0001)  ploadbar=  1.01126010265175E+05
 cg2d: Sum(rhs),rhsMax =  -5.97872705992383E+01  1.23520150602991E+00
(PID.TID 0000.0001)  ploadbar=  1.01124596148500E+05
 cg2d: Sum(rhs),rhsMax =  -5.96566285757747E+01  1.23744537225330E+00
(PID.TID 0000.0001)  ploadbar=  1.01123182031826E+05
 cg2d: Sum(rhs),rhsMax =  -5.97198570434544E+01  1.23573769242944E+00
(PID.TID 0000.0001)  ploadbar=  1.01122257447270E+05
 cg2d: Sum(rhs),rhsMax =  -5.98242940840338E+01  1.23324281321668E+00
(PID.TID 0000.0001)  ploadbar=  1.01121332862714E+05
 cg2d: Sum(rhs),rhsMax =  -5.99226023105950E+01  1.23093702991065E+00
(PID.TID 0000.0001)  ploadbar=  1.01120408278158E+05
 cg2d: Sum(rhs),rhsMax =  -6.00266789587963E+01  1.22856858982243E+00
(PID.TID 0000.0001)  ploadbar=  1.01119483693602E+05
 cg2d: Sum(rhs),rhsMax =  -6.01173159589398E+01  1.22652474980660E+00
(PID.TID 0000.0001)  ploadbar=  1.01118559109046E+05
 cg2d: Sum(rhs),rhsMax =  -6.01901584866976E+01  1.22488615363752E+00
(PID.TID 0000.0001)  ploadbar=  1.01117634524490E+05
 cg2d: Sum(rhs),rhsMax =  -6.03098292778050E+01  1.22231146147280E+00
(PID.TID 0000.0001)  ploadbar=  1.01116803585578E+05
 cg2d: Sum(rhs),rhsMax =  -6.04169013419518E+01  1.22000924020672E+00
(PID.TID 0000.0001)  ploadbar=  1.01115972646665E+05
 cg2d: Sum(rhs),rhsMax =  -6.04978327440672E+01  1.21824505971308E+00
(PID.TID 0000.0001)  ploadbar=  1.01115141707753E+05
 cg2d: Sum(rhs),rhsMax =  -6.05664900576449E+01  1.21673073775914E+00
(PID.TID 0000.0001)  ploadbar=  1.01114310768840E+05
 cg2d: Sum(rhs),rhsMax =  -5.82876908124248E+01  1.26415226010717E+00
(PID.TID 0000.0001)  ploadbar=  1.01113479829928E+05
 cg2d: Sum(rhs),rhsMax =  -5.60962682062101E+01  1.31337005093378E+00
(PID.TID 0000.0001)  ploadbar=  1.01112648891015E+05
 cg2d: Sum(rhs),rhsMax =  -5.40062803004670E+01  1.36404947574498E+00
(PID.TID 0000.0001)  ploadbar=  1.01112847438430E+05
 cg2d: Sum(rhs),rhsMax =  -5.20214779331737E+01  1.41595658040500E+00
(PID.TID 0000.0001)  ploadbar=  1.01113045985845E+05
 cg2d: Sum(rhs),rhsMax =  -5.02457837146618E+01  1.46586578335524E+00
(PID.TID 0000.0001)  ploadbar=  1.01113244533259E+05
 cg2d: Sum(rhs),rhsMax =  -4.87459101056527E+01  1.51083239319708E+00
(PID.TID 0000.0001)  ploadbar=  1.01113443080674E+05
 cg2d: Sum(rhs),rhsMax =  -4.72775799228371E+01  1.55760210986609E+00
(PID.TID 0000.0001)  ploadbar=  1.01113641628088E+05
 cg2d: Sum(rhs),rhsMax =  -4.58212955328266E+01  1.60692445977234E+00
(PID.TID 0000.0001)  ploadbar=  1.01113840175503E+05
 cg2d: Sum(rhs),rhsMax =  -4.45047379319887E+01  1.65422307522971E+00
(PID.TID 0000.0001)  ploadbar=  1.01113658029869E+05
 cg2d: Sum(rhs),rhsMax =  -4.35647424339790E+01  1.68961966833603E+00
(PID.TID 0000.0001)  ploadbar=  1.01113475884235E+05
 cg2d: Sum(rhs),rhsMax =  -4.29436116442301E+01  1.71369968226819E+00
(PID.TID 0000.0001)  ploadbar=  1.01113293738601E+05
 cg2d: Sum(rhs),rhsMax =  -4.30360309569181E+01  1.70960068208202E+00
(PID.TID 0000.0001)  ploadbar=  1.01113111592967E+05
 cg2d: Sum(rhs),rhsMax =  -4.35160975079451E+01  1.69026312049620E+00
(PID.TID 0000.0001)  ploadbar=  1.01112929447333E+05
 cg2d: Sum(rhs),rhsMax =  -4.40722986891479E+01  1.66839359209064E+00
(PID.TID 0000.0001)  ploadbar=  1.01112747301699E+05
 cg2d: Sum(rhs),rhsMax =  -4.46914186967989E+01  1.64484252212192E+00
(PID.TID 0000.0001)  ploadbar=  1.01112118974780E+05
 cg2d: Sum(rhs),rhsMax =  -4.53060629045439E+01  1.62218004256185E+00
(PID.TID 0000.0001)  ploadbar=  1.01111490647860E+05
 cg2d: Sum(rhs),rhsMax =  -4.59200049898468E+01  1.60022787347518E+00
(PID.TID 0000.0001)  ploadbar=  1.01110862320941E+05
 cg2d: Sum(rhs),rhsMax =  -4.65040623972405E+01  1.57994260610909E+00
(PID.TID 0000.0001)  ploadbar=  1.01110233994022E+05
 cg2d: Sum(rhs),rhsMax =  -4.70304002034295E+01  1.56214490451646E+00
(PID.TID 0000.0001)  ploadbar=  1.01109605667102E+05
 cg2d: Sum(rhs),rhsMax =  -4.74700248866684E+01  1.54762942110718E+00
(PID.TID 0000.0001)  ploadbar=  1.01108977340183E+05
 cg2d: Sum(rhs),rhsMax =  -4.78220465508390E+01  1.53615755832101E+00
(PID.TID 0000.0001)  ploadbar=  1.01108172380060E+05
 cg2d: Sum(rhs),rhsMax =  -4.82311454945180E+01  1.52300698462874E+00
(PID.TID 0000.0001)  ploadbar=  1.01107367419937E+05
 cg2d: Sum(rhs),rhsMax =  -4.86958519587937E+01  1.50830192933104E+00
(PID.TID 0000.0001)  ploadbar=  1.01106562459815E+05
 cg2d: Sum(rhs),rhsMax =  -4.91750544211251E+01  1.49337689901537E+00
(PID.TID 0000.0001)  ploadbar=  1.01105757499692E+05
 cg2d: Sum(rhs),rhsMax =  -4.96335864315990E+01  1.47929328662613E+00
(PID.TID 0000.0001)  ploadbar=  1.01104952539569E+05
 cg2d: Sum(rhs),rhsMax =  -5.00305400230207E+01  1.46720318046643E+00
(PID.TID 0000.0001)  ploadbar=  1.01104147579446E+05
 cg2d: Sum(rhs),rhsMax =  -5.03958937623430E+01  1.45622914073133E+00
(PID.TID 0000.0001)  ploadbar=  1.01104518031023E+05
 cg2d: Sum(rhs),rhsMax =  -5.08265294703784E+01  1.44356366810143E+00
(PID.TID 0000.0001)  ploadbar=  1.01104888482600E+05
 cg2d: Sum(rhs),rhsMax =  -5.12955091974521E+01  1.43004102511073E+00
(PID.TID 0000.0001)  ploadbar=  1.01105258934177E+05
 cg2d: Sum(rhs),rhsMax =  -5.17603584046328E+01  1.41687093127693E+00
(PID.TID 0000.0001)  ploadbar=  1.01105629385753E+05
 cg2d: Sum(rhs),rhsMax =  -5.21871250139000E+01  1.40495079957357E+00
(PID.TID 0000.0001)  ploadbar=  1.01105999837330E+05
 cg2d: Sum(rhs),rhsMax =  -5.25736162170558E+01  1.39427838952863E+00
(PID.TID 0000.0001)  ploadbar=  1.01106370288907E+05
 cg2d: Sum(rhs),rhsMax =  -5.30231263147284E+01  1.38205537847707E+00
(PID.TID 0000.0001)  ploadbar=  1.01105823844852E+05
 cg2d: Sum(rhs),rhsMax =  -5.34535702707211E+01  1.37046159906537E+00
(PID.TID 0000.0001)  ploadbar=  1.01105277400797E+05
 cg2d: Sum(rhs),rhsMax =  -5.38149140793499E+01  1.36073235645798E+00
(PID.TID 0000.0001)  ploadbar=  1.01104730956742E+05
 cg2d: Sum(rhs),rhsMax =  -5.41016631313863E+01  1.35292835456433E+00
(PID.TID 0000.0001)  ploadbar=  1.01104184512687E+05
 cg2d: Sum(rhs),rhsMax =  -5.47162328697699E+01  1.33707830577438E+00
(PID.TID 0000.0001)  ploadbar=  1.01103638068632E+05
 cg2d: Sum(rhs),rhsMax =  -5.51209184560917E+01  1.32654321189028E+00
(PID.TID 0000.0001)  ploadbar=  1.01103091624577E+05
 cg2d: Sum(rhs),rhsMax =  -5.54626057833851E+01  1.31775481138350E+00
(PID.TID 0000.0001)  ploadbar=  1.01102887685749E+05
 cg2d: Sum(rhs),rhsMax =  -5.57835957607543E+01  1.30965324794919E+00
(PID.TID 0000.0001)  ploadbar=  1.01102683746921E+05
 cg2d: Sum(rhs),rhsMax =  -5.61255075167640E+01  1.30124853915605E+00
(PID.TID 0000.0001)  ploadbar=  1.01102479808092E+05
 cg2d: Sum(rhs),rhsMax =  -5.64780911803354E+01  1.29278956682580E+00
(PID.TID 0000.0001)  ploadbar=  1.01102275869264E+05
 cg2d: Sum(rhs),rhsMax =  -5.68369205300768E+01  1.28437864535247E+00
(PID.TID 0000.0001)  ploadbar=  1.01102071930436E+05
 cg2d: Sum(rhs),rhsMax =  -5.71685507798788E+01  1.27676351278452E+00
(PID.TID 0000.0001)  ploadbar=  1.01101867991608E+05
 cg2d: Sum(rhs),rhsMax =  -5.74590889962282E+01  1.27011313890909E+00
(PID.TID 0000.0001)  ploadbar=  1.01102786265141E+05
 cg2d: Sum(rhs),rhsMax =  -5.77257970175749E+01  1.26401585785486E+00
(PID.TID 0000.0001)  ploadbar=  1.01103704538675E+05
 cg2d: Sum(rhs),rhsMax =  -5.79606526691428E+01  1.25862211148394E+00
(PID.TID 0000.0001)  ploadbar=  1.01104622812208E+05
 cg2d: Sum(rhs),rhsMax =  -5.81586159808820E+01  1.25401823917196E+00
(PID.TID 0000.0001)  ploadbar=  1.01105541085742E+05
 cg2d: Sum(rhs),rhsMax =  -5.83608156075586E+01  1.24930375348321E+00
(PID.TID 0000.0001)  ploadbar=  1.01106459359275E+05
 cg2d: Sum(rhs),rhsMax =  -5.85705361487774E+01  1.24440723278695E+00
(PID.TID 0000.0001)  ploadbar=  1.01107377632809E+05
 cg2d: Sum(rhs),rhsMax =  -5.87886102263460E+01  1.23942542424349E+00
(PID.TID 0000.0001)  ploadbar=  1.01107577195296E+05
 cg2d: Sum(rhs),rhsMax =  -5.86497248263470E+01  1.24204498867228E+00
(PID.TID 0000.0001)  ploadbar=  1.01107776757784E+05
 cg2d: Sum(rhs),rhsMax =  -5.76369286890162E+01  1.26359024100817E+00
(PID.TID 0000.0001)  ploadbar=  1.01107976320272E+05
 cg2d: Sum(rhs),rhsMax =  -5.66494125912904E+01  1.28536614168087E+00
(PID.TID 0000.0001)  ploadbar=  1.01108175882760E+05
 cg2d: Sum(rhs),rhsMax =  -5.56890949479375E+01  1.30730333619269E+00
(PID.TID 0000.0001)  ploadbar=  1.01108375445247E+05
 cg2d: Sum(rhs),rhsMax =  -5.47599781840710E+01  1.32927394811524E+00
(PID.TID 0000.0001)  ploadbar=  1.01108575007735E+05
 cg2d: Sum(rhs),rhsMax =  -5.38664126398222E+01  1.35106641220246E+00
(PID.TID 0000.0001)  ploadbar=  1.01108930100494E+05
 cg2d: Sum(rhs),rhsMax =  -5.30260235115493E+01  1.37216946745510E+00
(PID.TID 0000.0001)  ploadbar=  1.01109285193254E+05
 cg2d: Sum(rhs),rhsMax =  -5.22448131960272E+01  1.39232355970634E+00
(PID.TID 0000.0001)  ploadbar=  1.01109640286013E+05
 cg2d: Sum(rhs),rhsMax =  -5.15221221986086E+01  1.41143487412040E+00
(PID.TID 0000.0001)  ploadbar=  1.01109995378773E+05
 cg2d: Sum(rhs),rhsMax =  -5.08547044445076E+01  1.42948300229083E+00
(PID.TID 0000.0001)  ploadbar=  1.01110350471532E+05
 cg2d: Sum(rhs),rhsMax =  -5.02381477975596E+01  1.44649612127132E+00
(PID.TID 0000.0001)  ploadbar=  1.01110705564292E+05
 cg2d: Sum(rhs),rhsMax =  -4.96762478861689E+01  1.46240155551530E+00
(PID.TID 0000.0001)  ploadbar=  1.01112725634123E+05
 cg2d: Sum(rhs),rhsMax =  -4.91495641518773E+01  1.47768681799339E+00
(PID.TID 0000.0001)  ploadbar=  1.01114745703954E+05
 cg2d: Sum(rhs),rhsMax =  -4.86478823780253E+01  1.49261002105315E+00
(PID.TID 0000.0001)  ploadbar=  1.01116765773785E+05
 cg2d: Sum(rhs),rhsMax =  -4.81694236308878E+01  1.50718790665043E+00
(PID.TID 0000.0001)  ploadbar=  1.01118785843616E+05
 cg2d: Sum(rhs),rhsMax =  -4.77157752809808E+01  1.52133234690222E+00
(PID.TID 0000.0001)  ploadbar=  1.01120805913447E+05
 cg2d: Sum(rhs),rhsMax =  -4.72899648951985E+01  1.53490798781434E+00
(PID.TID 0000.0001)  ploadbar=  1.01122825983278E+05
 cg2d: Sum(rhs),rhsMax =  -4.68789374368119E+01  1.54818024098562E+00
(PID.TID 0000.0001)  ploadbar=  1.01122881896408E+05
 cg2d: Sum(rhs),rhsMax =  -4.64790542561063E+01  1.56124147906524E+00
(PID.TID 0000.0001)  ploadbar=  1.01122937809538E+05
 cg2d: Sum(rhs),rhsMax =  -4.60796812645946E+01  1.57443496298571E+00
(PID.TID 0000.0001)  ploadbar=  1.01122993722667E+05
 cg2d: Sum(rhs),rhsMax =  -4.56979368276122E+01  1.58716552585856E+00
(PID.TID 0000.0001)  ploadbar=  1.01123049635797E+05
 cg2d: Sum(rhs),rhsMax =  -4.53466507264104E+01  1.59895179036138E+00
(PID.TID 0000.0001)  ploadbar=  1.01123105548927E+05
 cg2d: Sum(rhs),rhsMax =  -4.50372765609687E+01  1.60933657503918E+00
(PID.TID 0000.0001)  ploadbar=  1.01123161462057E+05
 cg2d: Sum(rhs),rhsMax =  -4.47993911516614E+01  1.61731044072185E+00
(PID.TID 0000.0001)  ploadbar=  1.01121832884775E+05
 cg2d: Sum(rhs),rhsMax =  -4.46094439787343E+01  1.62364582332933E+00
(PID.TID 0000.0001)  ploadbar=  1.01120504307493E+05
 cg2d: Sum(rhs),rhsMax =  -4.44618776117706E+01  1.62849307715457E+00
(PID.TID 0000.0001)  ploadbar=  1.01119175730211E+05
 cg2d: Sum(rhs),rhsMax =  -4.43529839392994E+01  1.63195087590697E+00
(PID.TID 0000.0001)  ploadbar=  1.01117847152929E+05
 cg2d: Sum(rhs),rhsMax =  -4.42776437391518E+01  1.63417966976336E+00
(PID.TID 0000.0001)  ploadbar=  1.01116518575647E+05
 cg2d: Sum(rhs),rhsMax =  -4.42311087879147E+01  1.63533574295177E+00
(PID.TID 0000.0001)  ploadbar=  1.01115189998365E+05
 cg2d: Sum(rhs),rhsMax =  -4.39999542389198E+01  1.64331261232321E+00
(PID.TID 0000.0001)  ploadbar=  1.01114923660619E+05
 cg2d: Sum(rhs),rhsMax =  -4.34147673868246E+01  1.66478891759720E+00
(PID.TID 0000.0001)  ploadbar=  1.01114657322873E+05
 cg2d: Sum(rhs),rhsMax =  -4.28861196706899E+01  1.68456965726460E+00
(PID.TID 0000.0001)  ploadbar=  1.01114390985127E+05
 cg2d: Sum(rhs),rhsMax =  -4.24093252214981E+01  1.70269434637443E+00
(PID.TID 0000.0001)  ploadbar=  1.01114124647381E+05
 cg2d: Sum(rhs),rhsMax =  -4.19664016114765E+01  1.71977837114271E+00
(PID.TID 0000.0001)  ploadbar=  1.01113858309635E+05
 cg2d: Sum(rhs),rhsMax =  -4.15514480235277E+01  1.73599235028225E+00
(PID.TID 0000.0001)  ploadbar=  1.01113591971888E+05
 cg2d: Sum(rhs),rhsMax =  -4.11565422532558E+01  1.75182368881779E+00
(PID.TID 0000.0001)  ploadbar=  1.01112700354061E+05
 cg2d: Sum(rhs),rhsMax =  -4.07657127638695E+01  1.76792115143374E+00
(PID.TID 0000.0001)  ploadbar=  1.01111808736234E+05
 cg2d: Sum(rhs),rhsMax =  -4.03647058410161E+01  1.78491480106907E+00
(PID.TID 0000.0001)  ploadbar=  1.01110917118407E+05
 cg2d: Sum(rhs),rhsMax =  -3.99557010220631E+01  1.80273621431149E+00
(PID.TID 0000.0001)  ploadbar=  1.01110025500579E+05
 cg2d: Sum(rhs),rhsMax =  -3.95498688631543E+01  1.82089698268131E+00
(PID.TID 0000.0001)  ploadbar=  1.01109133882752E+05
 cg2d: Sum(rhs),rhsMax =  -3.91519692327261E+01  1.83916912311400E+00
(PID.TID 0000.0001)  ploadbar=  1.01108242264925E+05
 cg2d: Sum(rhs),rhsMax =  -3.87719620240976E+01  1.85691093528388E+00
(PID.TID 0000.0001)  ploadbar=  1.01108189943980E+05
 cg2d: Sum(rhs),rhsMax =  -3.84290439529495E+01  1.87313351048582E+00
(PID.TID 0000.0001)  ploadbar=  1.01108137623035E+05
 cg2d: Sum(rhs),rhsMax =  -3.81274211951503E+01  1.88753360480420E+00
(PID.TID 0000.0001)  ploadbar=  1.01108085302091E+05
 cg2d: Sum(rhs),rhsMax =  -3.78676264706344E+01  1.89998438687640E+00
(PID.TID 0000.0001)  ploadbar=  1.01108032981146E+05
 cg2d: Sum(rhs),rhsMax =  -3.76424856650108E+01  1.91075842173970E+00
(PID.TID 0000.0001)  ploadbar=  1.01107980660201E+05
 cg2d: Sum(rhs),rhsMax =  -3.74440511584603E+01  1.92019823265007E+00
(PID.TID 0000.0001)  ploadbar=  1.01107928339257E+05
 cg2d: Sum(rhs),rhsMax =  -3.72661392137196E+01  1.92875571943246E+00
(PID.TID 0000.0001)  ploadbar=  1.01108618194059E+05
 cg2d: Sum(rhs),rhsMax =  -3.71076076788126E+01  1.93645082621178E+00
(PID.TID 0000.0001)  ploadbar=  1.01109308048861E+05
 cg2d: Sum(rhs),rhsMax =  -3.69658743046795E+01  1.94337446821610E+00
(PID.TID 0000.0001)  ploadbar=  1.01109997903663E+05
 cg2d: Sum(rhs),rhsMax =  -3.68406294505009E+01  1.94951069480885E+00
(PID.TID 0000.0001)  ploadbar=  1.01110687758465E+05
 cg2d: Sum(rhs),rhsMax =  -3.67310825679932E+01  1.95487094803564E+00
(PID.TID 0000.0001)  ploadbar=  1.01111377613267E+05
 cg2d: Sum(rhs),rhsMax =  -3.66370586870327E+01  1.95943822594788E+00
(PID.TID 0000.0001)  ploadbar=  1.01112067468069E+05
 cg2d: Sum(rhs),rhsMax =  -3.65608958803620E+01  1.96302554509062E+00
(PID.TID 0000.0001)  ploadbar=  1.01113054428766E+05
 cg2d: Sum(rhs),rhsMax =  -3.65026911071216E+01  1.96561416297312E+00
(PID.TID 0000.0001)  ploadbar=  1.01114041389463E+05
 cg2d: Sum(rhs),rhsMax =  -3.64634845002443E+01  1.96713579486079E+00
(PID.TID 0000.0001)  ploadbar=  1.01115028350160E+05
 cg2d: Sum(rhs),rhsMax =  -3.64435740340253E+01  1.96756675243694E+00
(PID.TID 0000.0001)  ploadbar=  1.01116015310857E+05
 cg2d: Sum(rhs),rhsMax =  -3.64389221207295E+01  1.96711826121721E+00
(PID.TID 0000.0001)  ploadbar=  1.01117002271554E+05
 cg2d: Sum(rhs),rhsMax =  -3.64488229700477E+01  1.96583036546886E+00
(PID.TID 0000.0001)  ploadbar=  1.01117989232251E+05
 cg2d: Sum(rhs),rhsMax =  -3.64779399127804E+01  1.96361402509116E+00
(PID.TID 0000.0001)  ploadbar=  1.01118228414415E+05
 cg2d: Sum(rhs),rhsMax =  -3.65213522674199E+01  1.96072703994378E+00
(PID.TID 0000.0001)  ploadbar=  1.01118467596579E+05
 cg2d: Sum(rhs),rhsMax =  -3.65744705267335E+01  1.95741658955808E+00
(PID.TID 0000.0001)  ploadbar=  1.01118706778743E+05
 cg2d: Sum(rhs),rhsMax =  -3.66370212458881E+01  1.95369357817190E+00
(PID.TID 0000.0001)  ploadbar=  1.01118945960907E+05
 cg2d: Sum(rhs),rhsMax =  -3.67067847721728E+01  1.94967011913844E+00
(PID.TID 0000.0001)  ploadbar=  1.01119185143072E+05
 cg2d: Sum(rhs),rhsMax =  -3.67831469813341E+01  1.94537199282656E+00
(PID.TID 0000.0001)  ploadbar=  1.01119424325236E+05
 cg2d: Sum(rhs),rhsMax =  -3.68701430165366E+01  1.94048629908231E+00
(PID.TID 0000.0001)  ploadbar=  1.01119649442824E+05
 cg2d: Sum(rhs),rhsMax =  -3.69690188442300E+01  1.93495856215677E+00
(PID.TID 0000.0001)  ploadbar=  1.01119874560413E+05
 cg2d: Sum(rhs),rhsMax =  -3.70846532212035E+01  1.92853965275099E+00
(PID.TID 0000.0001)  ploadbar=  1.01120099678001E+05
 cg2d: Sum(rhs),rhsMax =  -3.72224992719419E+01  1.92096396698272E+00
(PID.TID 0000.0001)  ploadbar=  1.01120324795590E+05
 cg2d: Sum(rhs),rhsMax =  -3.73795984801037E+01  1.91240114161413E+00
(PID.TID 0000.0001)  ploadbar=  1.01120549913178E+05
 cg2d: Sum(rhs),rhsMax =  -3.75328664033648E+01  1.90404379368092E+00
(PID.TID 0000.0001)  ploadbar=  1.01120775030766E+05
 cg2d: Sum(rhs),rhsMax =  -3.76673803043184E+01  1.89684413133846E+00
(PID.TID 0000.0001)  ploadbar=  1.01122288258138E+05
 cg2d: Sum(rhs),rhsMax =  -3.78068084191051E+01  1.88958032078709E+00
(PID.TID 0000.0001)  ploadbar=  1.01123801485510E+05
 cg2d: Sum(rhs),rhsMax =  -3.79677428809292E+01  1.88142186382221E+00
(PID.TID 0000.0001)  ploadbar=  1.01125314712881E+05
 cg2d: Sum(rhs),rhsMax =  -3.81589880038044E+01  1.87195088941510E+00
(PID.TID 0000.0001)  ploadbar=  1.01126827940253E+05
 cg2d: Sum(rhs),rhsMax =  -3.83873093467688E+01  1.86087602951874E+00
(PID.TID 0000.0001)  ploadbar=  1.01128341167624E+05
 cg2d: Sum(rhs),rhsMax =  -3.86585401172447E+01  1.84796773849300E+00
(PID.TID 0000.0001)  ploadbar=  1.01129854394996E+05
 cg2d: Sum(rhs),rhsMax =  -3.89763058796212E+01  1.83300332992774E+00
(PID.TID 0000.0001)  ploadbar=  1.01129926671459E+05
 cg2d: Sum(rhs),rhsMax =  -3.93359569752009E+01  1.81629744198074E+00
(PID.TID 0000.0001)  ploadbar=  1.01129998947923E+05
 cg2d: Sum(rhs),rhsMax =  -3.97539379398101E+01  1.79720170824766E+00
(PID.TID 0000.0001)  ploadbar=  1.01130071224386E+05
 cg2d: Sum(rhs),rhsMax =  -4.02341907442414E+01  1.77569814909859E+00
(PID.TID 0000.0001)  ploadbar=  1.01130143500850E+05
 cg2d: Sum(rhs),rhsMax =  -4.07811114702864E+01  1.75177906544409E+00
(PID.TID 0000.0001)  ploadbar=  1.01130215777314E+05
 cg2d: Sum(rhs),rhsMax =  -4.14023489136733E+01  1.72533301132067E+00
(PID.TID 0000.0001)  ploadbar=  1.01130288053777E+05
 cg2d: Sum(rhs),rhsMax =  -4.21046692459240E+01  1.69647615277278E+00
(PID.TID 0000.0001)  ploadbar=  1.01131408724692E+05
 cg2d: Sum(rhs),rhsMax =  -4.28758178868376E+01  1.66595617137008E+00
(PID.TID 0000.0001)  ploadbar=  1.01132529395606E+05
 cg2d: Sum(rhs),rhsMax =  -4.37202510200853E+01  1.63383686754743E+00
(PID.TID 0000.0001)  ploadbar=  1.01133650066520E+05
 cg2d: Sum(rhs),rhsMax =  -4.46300122824510E+01  1.60064293903830E+00
(PID.TID 0000.0001)  ploadbar=  1.01134770737435E+05
 cg2d: Sum(rhs),rhsMax =  -4.55978024890430E+01  1.56682164204628E+00
(PID.TID 0000.0001)  ploadbar=  1.01135891408349E+05
 cg2d: Sum(rhs),rhsMax =  -4.66179646000114E+01  1.53271244201731E+00
(PID.TID 0000.0001)  ploadbar=  1.01137012079264E+05
 cg2d: Sum(rhs),rhsMax =  -4.76718393042677E+01  1.49893625747203E+00
(PID.TID 0000.0001)  ploadbar=  1.01137966259895E+05
 cg2d: Sum(rhs),rhsMax =  -4.83547157577437E+01  1.47779779140874E+00
(PID.TID 0000.0001)  ploadbar=  1.01138920440526E+05
 cg2d: Sum(rhs),rhsMax =  -4.84536792713456E+01  1.47471993004662E+00
(PID.TID 0000.0001)  ploadbar=  1.01139874621157E+05
 cg2d: Sum(rhs),rhsMax =  -4.85539199437337E+01  1.47151036003482E+00
(PID.TID 0000.0001)  ploadbar=  1.01140828801788E+05
 cg2d: Sum(rhs),rhsMax =  -4.86558002281927E+01  1.46815046972562E+00
(PID.TID 0000.0001)  ploadbar=  1.01141782982420E+05
 cg2d: Sum(rhs),rhsMax =  -4.87688338768618E+01  1.46434611699574E+00
(PID.TID 0000.0001)  ploadbar=  1.01142737163051E+05
 cg2d: Sum(rhs),rhsMax =  -4.88919998596242E+01  1.46030032727987E+00
(PID.TID 0000.0001)  ploadbar=  1.01144407810080E+05
 cg2d: Sum(rhs),rhsMax =  -4.88725110003410E+01  1.46055732206269E+00
(PID.TID 0000.0001)  ploadbar=  1.01146078457110E+05
 cg2d: Sum(rhs),rhsMax =  -4.87456144763290E+01  1.46405209512483E+00
(PID.TID 0000.0001)  ploadbar=  1.01147749104139E+05
 cg2d: Sum(rhs),rhsMax =  -4.86276461443560E+01  1.46731128118241E+00
(PID.TID 0000.0001)  ploadbar=  1.01149419751168E+05
 cg2d: Sum(rhs),rhsMax =  -4.85158178352998E+01  1.47040478775517E+00
(PID.TID 0000.0001)  ploadbar=  1.01151090398198E+05
 cg2d: Sum(rhs),rhsMax =  -4.84080160908514E+01  1.47337983180406E+00
(PID.TID 0000.0001)  ploadbar=  1.01152761045227E+05
 cg2d: Sum(rhs),rhsMax =  -4.82909621523913E+01  1.47662910022368E+00
(PID.TID 0000.0001)  ploadbar=  1.01153494401491E+05
 cg2d: Sum(rhs),rhsMax =  -4.81764879478645E+01  1.47978466475988E+00
(PID.TID 0000.0001)  ploadbar=  1.01154227757755E+05
 cg2d: Sum(rhs),rhsMax =  -4.80513365687930E+01  1.48325442028185E+00
(PID.TID 0000.0001)  ploadbar=  1.01154961114019E+05
 cg2d: Sum(rhs),rhsMax =  -4.79163652444455E+01  1.48701826404272E+00
(PID.TID 0000.0001)  ploadbar=  1.01155694470283E+05
 cg2d: Sum(rhs),rhsMax =  -4.77760963159801E+01  1.49093790020537E+00
(PID.TID 0000.0001)  ploadbar=  1.01156427826548E+05
 cg2d: Sum(rhs),rhsMax =  -4.76387432063978E+01  1.49475445085920E+00
(PID.TID 0000.0001)  ploadbar=  1.01157161182812E+05
 cg2d: Sum(rhs),rhsMax =  -4.74921093498850E+01  1.49898670385461E+00
(PID.TID 0000.0001)  ploadbar=  1.01158005252229E+05
 cg2d: Sum(rhs),rhsMax =  -4.73534289629253E+01  1.50309058120757E+00
(PID.TID 0000.0001)  ploadbar=  1.01158849321647E+05
 cg2d: Sum(rhs),rhsMax =  -4.72310408894768E+01  1.50679557568536E+00
(PID.TID 0000.0001)  ploadbar=  1.01159693391064E+05
 cg2d: Sum(rhs),rhsMax =  -4.71153773072307E+01  1.51039634987798E+00
(PID.TID 0000.0001)  ploadbar=  1.01160537460482E+05
 cg2d: Sum(rhs),rhsMax =  -4.70063801263268E+01  1.51388436037239E+00
(PID.TID 0000.0001)  ploadbar=  1.01161381529900E+05
 cg2d: Sum(rhs),rhsMax =  -4.69030375670815E+01  1.51728152599297E+00
(PID.TID 0000.0001)  ploadbar=  1.01162225599317E+05
 cg2d: Sum(rhs),rhsMax =  -4.67952194580332E+01  1.52076486465509E+00
(PID.TID 0000.0001)  ploadbar=  1.01162543498969E+05
 cg2d: Sum(rhs),rhsMax =  -4.66833360917995E+01  1.52431692095383E+00
(PID.TID 0000.0001)  ploadbar=  1.01162861398621E+05
 cg2d: Sum(rhs),rhsMax =  -4.65708593219893E+01  1.52781829586260E+00
(PID.TID 0000.0001)  ploadbar=  1.01163179298272E+05
 cg2d: Sum(rhs),rhsMax =  -4.64531383064011E+01  1.53141214841951E+00
(PID.TID 0000.0001)  ploadbar=  1.01163497197924E+05
 cg2d: Sum(rhs),rhsMax =  -4.63289558603703E+01  1.53514517013538E+00
(PID.TID 0000.0001)  ploadbar=  1.01163815097576E+05
 cg2d: Sum(rhs),rhsMax =  -4.61972400817889E+01  1.53905624046786E+00
(PID.TID 0000.0001)  ploadbar=  1.01164132997227E+05
 cg2d: Sum(rhs),rhsMax =  -4.60883827063116E+01  1.54227008263530E+00
(PID.TID 0000.0001)  ploadbar=  1.01162905630909E+05
 cg2d: Sum(rhs),rhsMax =  -4.59943734327512E+01  1.54502999483866E+00
(PID.TID 0000.0001)  ploadbar=  1.01161678264590E+05
 cg2d: Sum(rhs),rhsMax =  -4.59081804315554E+01  1.54755551151244E+00
(PID.TID 0000.0001)  ploadbar=  1.01160450898271E+05
 cg2d: Sum(rhs),rhsMax =  -4.58322313429575E+01  1.54976224219929E+00
(PID.TID 0000.0001)  ploadbar=  1.01159223531953E+05
 cg2d: Sum(rhs),rhsMax =  -4.57674795383899E+01  1.55161124573274E+00
(PID.TID 0000.0001)  ploadbar=  1.01157996165634E+05
 cg2d: Sum(rhs),rhsMax =  -4.57141300324680E+01  1.55309191971558E+00
(PID.TID 0000.0001)  ploadbar=  1.01156768799315E+05
 cg2d: Sum(rhs),rhsMax =  -4.56871973879483E+01  1.55363196415137E+00
(PID.TID 0000.0001)  ploadbar=  1.01155797586106E+05
 cg2d: Sum(rhs),rhsMax =  -4.56817879953256E+01  1.55339073895900E+00
(PID.TID 0000.0001)  ploadbar=  1.01154826372897E+05
 cg2d: Sum(rhs),rhsMax =  -4.56903841747544E+01  1.55262220999929E+00
(PID.TID 0000.0001)  ploadbar=  1.01153855159687E+05
 cg2d: Sum(rhs),rhsMax =  -4.57237292120702E+01  1.55096123095880E+00
(PID.TID 0000.0001)  ploadbar=  1.01152883946478E+05
 cg2d: Sum(rhs),rhsMax =  -4.57738845912401E+01  1.54867914886783E+00
(PID.TID 0000.0001)  ploadbar=  1.01151912733269E+05
 cg2d: Sum(rhs),rhsMax =  -4.58251949045522E+01  1.54630743669142E+00
(PID.TID 0000.0001)  ploadbar=  1.01150941520059E+05
 cg2d: Sum(rhs),rhsMax =  -4.58750185197202E+01  1.54406663036834E+00
(PID.TID 0000.0001)  ploadbar=  1.01150927752545E+05
 cg2d: Sum(rhs),rhsMax =  -4.59639895094561E+01  1.54058614391861E+00
(PID.TID 0000.0001)  ploadbar=  1.01150913985031E+05
 cg2d: Sum(rhs),rhsMax =  -4.60762827659401E+01  1.53640344273427E+00
(PID.TID 0000.0001)  ploadbar=  1.01150900217518E+05
 cg2d: Sum(rhs),rhsMax =  -4.62180725512459E+01  1.53132229506307E+00
(PID.TID 0000.0001)  ploadbar=  1.01150886450004E+05
 cg2d: Sum(rhs),rhsMax =  -4.64017044754904E+01  1.52494264668918E+00
(PID.TID 0000.0001)  ploadbar=  1.01150872682490E+05
 cg2d: Sum(rhs),rhsMax =  -4.66314592866221E+01  1.51714926592335E+00
(PID.TID 0000.0001)  ploadbar=  1.01150858914976E+05
 cg2d: Sum(rhs),rhsMax =  -4.68801095892695E+01  1.50875339503296E+00
(PID.TID 0000.0001)  ploadbar=  1.01150223898908E+05
 cg2d: Sum(rhs),rhsMax =  -4.71936420372684E+01  1.49830584095974E+00
(PID.TID 0000.0001)  ploadbar=  1.01149588882841E+05
 cg2d: Sum(rhs),rhsMax =  -4.75673522400072E+01  1.48603205880447E+00
(PID.TID 0000.0001)  ploadbar=  1.01148953866773E+05
 cg2d: Sum(rhs),rhsMax =  -4.79945616214206E+01  1.47221957235801E+00
(PID.TID 0000.0001)  ploadbar=  1.01148318850705E+05
 cg2d: Sum(rhs),rhsMax =  -4.84495618427929E+01  1.45772293890795E+00
(PID.TID 0000.0001)  ploadbar=  1.01147683834638E+05
 cg2d: Sum(rhs),rhsMax =  -4.88836053431585E+01  1.44401900674179E+00
(PID.TID 0000.0001)  ploadbar=  1.01147048818570E+05
 cg2d: Sum(rhs),rhsMax =  -4.93983736403893E+01  1.42829062287522E+00
(PID.TID 0000.0001)  ploadbar=  1.01146880866960E+05
 cg2d: Sum(rhs),rhsMax =  -4.98214141992341E+01  1.41554719928207E+00
(PID.TID 0000.0001)  ploadbar=  1.01146712915350E+05
 cg2d: Sum(rhs),rhsMax =  -5.01954992848451E+01  1.40443412248872E+00
(PID.TID 0000.0001)  ploadbar=  1.01146544963740E+05
 cg2d: Sum(rhs),rhsMax =  -5.05034500884799E+01  1.39534970102509E+00
(PID.TID 0000.0001)  ploadbar=  1.01146377012130E+05
 cg2d: Sum(rhs),rhsMax =  -5.07513188039722E+01  1.38804625232158E+00
(PID.TID 0000.0001)  ploadbar=  1.01146209060520E+05
 cg2d: Sum(rhs),rhsMax =  -5.08003953176160E+01  1.38623668967451E+00
(PID.TID 0000.0001)  ploadbar=  1.01146041108910E+05
 cg2d: Sum(rhs),rhsMax =  -5.08257582797195E+01  1.38503741209302E+00
(PID.TID 0000.0001)  ploadbar=  1.01147284312505E+05
 cg2d: Sum(rhs),rhsMax =  -5.08034182885994E+01  1.38509871049991E+00
(PID.TID 0000.0001)  ploadbar=  1.01148527516100E+05
 cg2d: Sum(rhs),rhsMax =  -5.07566887777433E+01  1.38578542699928E+00
(PID.TID 0000.0001)  ploadbar=  1.01149770719695E+05
 cg2d: Sum(rhs),rhsMax =  -5.06924910514527E+01  1.38691035250770E+00
(PID.TID 0000.0001)  ploadbar=  1.01151013923290E+05
 cg2d: Sum(rhs),rhsMax =  -5.06118730422656E+01  1.38844350139413E+00
(PID.TID 0000.0001)  ploadbar=  1.01152257126885E+05
 cg2d: Sum(rhs),rhsMax =  -5.05191922927015E+01  1.39026641192894E+00
(PID.TID 0000.0001)  ploadbar=  1.01153500330480E+05
 cg2d: Sum(rhs),rhsMax =  -5.04343164536776E+01  1.39193213739229E+00
(PID.TID 0000.0001)  ploadbar=  1.01153030193643E+05
 cg2d: Sum(rhs),rhsMax =  -5.03566810498070E+01  1.39345424190901E+00
(PID.TID 0000.0001)  ploadbar=  1.01152560056807E+05
 cg2d: Sum(rhs),rhsMax =  -5.02690234956664E+01  1.39530785248633E+00
(PID.TID 0000.0001)  ploadbar=  1.01152089919971E+05
 cg2d: Sum(rhs),rhsMax =  -5.01871078127318E+01  1.39705292619777E+00
(PID.TID 0000.0001)  ploadbar=  1.01151619783135E+05
 cg2d: Sum(rhs),rhsMax =  -5.01083742498643E+01  1.39875731729618E+00
(PID.TID 0000.0001)  ploadbar=  1.01151149646298E+05
 cg2d: Sum(rhs),rhsMax =  -5.00318398795416E+01  1.40044877327960E+00
(PID.TID 0000.0001)  ploadbar=  1.01150679509462E+05
 cg2d: Sum(rhs),rhsMax =  -4.99382193610636E+01  1.40262754616840E+00
(PID.TID 0000.0001)  ploadbar=  1.01150935884804E+05
 cg2d: Sum(rhs),rhsMax =  -4.98489356532335E+01  1.40469243914533E+00
(PID.TID 0000.0001)  ploadbar=  1.01151192260146E+05
 cg2d: Sum(rhs),rhsMax =  -4.97596460523142E+01  1.40676096845631E+00
(PID.TID 0000.0001)  ploadbar=  1.01151448635488E+05
 cg2d: Sum(rhs),rhsMax =  -4.96700116099848E+01  1.40884118968478E+00
(PID.TID 0000.0001)  ploadbar=  1.01151705010830E+05
 cg2d: Sum(rhs),rhsMax =  -4.95795803268207E+01  1.41094188153498E+00
(PID.TID 0000.0001)  ploadbar=  1.01151961386172E+05
 cg2d: Sum(rhs),rhsMax =  -4.94876642824886E+01  1.41308141884542E+00
(PID.TID 0000.0001)  ploadbar=  1.01152217761514E+05
 cg2d: Sum(rhs),rhsMax =  -4.93987858770080E+01  1.41520987424892E+00
(PID.TID 0000.0001)  ploadbar=  1.01152458799058E+05
 cg2d: Sum(rhs),rhsMax =  -4.93259778984619E+01  1.41694421627811E+00
(PID.TID 0000.0001)  ploadbar=  1.01152699836601E+05
 cg2d: Sum(rhs),rhsMax =  -4.92520774928554E+01  1.41876513614202E+00
(PID.TID 0000.0001)  ploadbar=  1.01152940874144E+05
 cg2d: Sum(rhs),rhsMax =  -4.91817460371290E+01  1.42053448106254E+00
(PID.TID 0000.0001)  ploadbar=  1.01153181911688E+05
 cg2d: Sum(rhs),rhsMax =  -4.91126451321557E+01  1.42231268558305E+00
(PID.TID 0000.0001)  ploadbar=  1.01153422949231E+05
 cg2d: Sum(rhs),rhsMax =  -4.90397898524326E+01  1.42423525137728E+00
(PID.TID 0000.0001)  ploadbar=  1.01153663986774E+05
 cg2d: Sum(rhs),rhsMax =  -4.89421163838118E+01  1.42684919413071E+00
(PID.TID 0000.0001)  ploadbar=  1.01153844254822E+05
 cg2d: Sum(rhs),rhsMax =  -4.88293378439043E+01  1.42987519741413E+00
(PID.TID 0000.0001)  ploadbar=  1.01154024522869E+05
 cg2d: Sum(rhs),rhsMax =  -4.86886353098718E+01  1.43369554785319E+00
(PID.TID 0000.0001)  ploadbar=  1.01154204790916E+05
 cg2d: Sum(rhs),rhsMax =  -4.85152627851310E+01  1.43846292457689E+00
(PID.TID 0000.0001)  ploadbar=  1.01154385058963E+05
 cg2d: Sum(rhs),rhsMax =  -4.83231470587641E+01  1.44378044026404E+00
(PID.TID 0000.0001)  ploadbar=  1.01154565327010E+05
 cg2d: Sum(rhs),rhsMax =  -4.81576998647434E+01  1.44829049369223E+00
(PID.TID 0000.0001)  ploadbar=  1.01154745595057E+05
 cg2d: Sum(rhs),rhsMax =  -4.81032828978952E+01  1.44952522425903E+00
(PID.TID 0000.0001)  ploadbar=  1.01153682843670E+05
 cg2d: Sum(rhs),rhsMax =  -4.76042850740792E+01  1.46435363751723E+00
(PID.TID 0000.0001)  ploadbar=  1.01152620092283E+05
 cg2d: Sum(rhs),rhsMax =  -4.68592910200317E+01  1.48730361316806E+00
(PID.TID 0000.0001)  ploadbar=  1.01151557340896E+05
 cg2d: Sum(rhs),rhsMax =  -4.59468808716138E+01  1.51653735781519E+00
(PID.TID 0000.0001)  ploadbar=  1.01150494589509E+05
 cg2d: Sum(rhs),rhsMax =  -4.49094623242115E+01  1.55129314498169E+00
(PID.TID 0000.0001)  ploadbar=  1.01149431838122E+05
 cg2d: Sum(rhs),rhsMax =  -4.38289680328453E+01  1.58928129328200E+00
(PID.TID 0000.0001)  ploadbar=  1.01148369086735E+05
 cg2d: Sum(rhs),rhsMax =  -4.28835658395857E+01  1.62399388182118E+00
(PID.TID 0000.0001)  ploadbar=  1.01148542469625E+05
 cg2d: Sum(rhs),rhsMax =  -4.21766978367896E+01  1.65081427839677E+00
(PID.TID 0000.0001)  ploadbar=  1.01148715852514E+05
 cg2d: Sum(rhs),rhsMax =  -4.18030675887763E+01  1.66509718928512E+00
(PID.TID 0000.0001)  ploadbar=  1.01148889235404E+05
 cg2d: Sum(rhs),rhsMax =  -4.17784736418312E+01  1.66552929241553E+00
(PID.TID 0000.0001)  ploadbar=  1.01149062618293E+05
 cg2d: Sum(rhs),rhsMax =  -4.20420975823430E+01  1.65446754260201E+00
(PID.TID 0000.0001)  ploadbar=  1.01149236001183E+05
 cg2d: Sum(rhs),rhsMax =  -4.25009619943733E+01  1.63591761527817E+00
(PID.TID 0000.0001)  ploadbar=  1.01149409384072E+05
 cg2d: Sum(rhs),rhsMax =  -4.30741956013434E+01  1.61361059195705E+00
(PID.TID 0000.0001)  ploadbar=  1.01150632565562E+05
 cg2d: Sum(rhs),rhsMax =  -4.37025986971660E+01  1.59000795949353E+00
(PID.TID 0000.0001)  ploadbar=  1.01151855747052E+05
 cg2d: Sum(rhs),rhsMax =  -4.43492797755208E+01  1.56653957050491E+00
(PID.TID 0000.0001)  ploadbar=  1.01153078928542E+05
 cg2d: Sum(rhs),rhsMax =  -4.49985541881784E+01  1.54375750563120E+00
(PID.TID 0000.0001)  ploadbar=  1.01154302110032E+05
 cg2d: Sum(rhs),rhsMax =  -4.56378634128196E+01  1.52204764595755E+00
(PID.TID 0000.0001)  ploadbar=  1.01155525291521E+05
 cg2d: Sum(rhs),rhsMax =  -4.62600808905222E+01  1.50157463594705E+00
(PID.TID 0000.0001)  ploadbar=  1.01156748473011E+05
 cg2d: Sum(rhs),rhsMax =  -4.68564028688677E+01  1.48244076255274E+00
(PID.TID 0000.0001)  ploadbar=  1.01156512314979E+05
 cg2d: Sum(rhs),rhsMax =  -4.74468093587008E+01  1.46394677921949E+00
(PID.TID 0000.0001)  ploadbar=  1.01156276156947E+05
 cg2d: Sum(rhs),rhsMax =  -4.80301520286095E+01  1.44610221792728E+00
(PID.TID 0000.0001)  ploadbar=  1.01156039998915E+05
 cg2d: Sum(rhs),rhsMax =  -4.86151517427400E+01  1.42861974313431E+00
(PID.TID 0000.0001)  ploadbar=  1.01155803840883E+05
 cg2d: Sum(rhs),rhsMax =  -4.92182498349578E+01  1.41101001227231E+00
(PID.TID 0000.0001)  ploadbar=  1.01155567682851E+05
 cg2d: Sum(rhs),rhsMax =  -4.98345468429764E+01  1.39343220083091E+00
(PID.TID 0000.0001)  ploadbar=  1.01155331524819E+05
 cg2d: Sum(rhs),rhsMax =  -5.04490800435035E+01  1.37645785546329E+00
(PID.TID 0000.0001)  ploadbar=  1.01153876350117E+05
 cg2d: Sum(rhs),rhsMax =  -5.10922029079300E+01  1.35925173587937E+00
(PID.TID 0000.0001)  ploadbar=  1.01152421175416E+05
 cg2d: Sum(rhs),rhsMax =  -5.17408263993485E+01  1.34244847382648E+00
(PID.TID 0000.0001)  ploadbar=  1.01150966000714E+05
 cg2d: Sum(rhs),rhsMax =  -5.24076582178276E+01  1.32571569438467E+00
(PID.TID 0000.0001)  ploadbar=  1.01149510826013E+05
 cg2d: Sum(rhs),rhsMax =  -5.30914391465468E+01  1.30909577420214E+00
(PID.TID 0000.0001)  ploadbar=  1.01148055651311E+05
 cg2d: Sum(rhs),rhsMax =  -5.37918298017333E+01  1.29260393017847E+00
(PID.TID 0000.0001)  ploadbar=  1.01146600476610E+05
 cg2d: Sum(rhs),rhsMax =  -5.37186383297942E+01  1.29484982534385E+00
(PID.TID 0000.0001)  ploadbar=  1.01145950641015E+05
 cg2d: Sum(rhs),rhsMax =  -5.34837543160086E+01  1.30095032764656E+00
(PID.TID 0000.0001)  ploadbar=  1.01145300805421E+05
 cg2d: Sum(rhs),rhsMax =  -5.32421086099109E+01  1.30719485254853E+00
(PID.TID 0000.0001)  ploadbar=  1.01144650969826E+05
 cg2d: Sum(rhs),rhsMax =  -5.29914450467729E+01  1.31363917219625E+00
(PID.TID 0000.0001)  ploadbar=  1.01144001134232E+05
 cg2d: Sum(rhs),rhsMax =  -5.27347187035763E+01  1.32020966190396E+00
(PID.TID 0000.0001)  ploadbar=  1.01143351298637E+05
 cg2d: Sum(rhs),rhsMax =  -5.24744720762480E+01  1.32684648800332E+00
(PID.TID 0000.0001)  ploadbar=  1.01142701463043E+05
 cg2d: Sum(rhs),rhsMax =  -5.22188663310566E+01  1.33346513568432E+00
(PID.TID 0000.0001)  ploadbar=  1.01141542055132E+05
 cg2d: Sum(rhs),rhsMax =  -5.19714731363988E+01  1.33995539561331E+00
(PID.TID 0000.0001)  ploadbar=  1.01140382647221E+05
 cg2d: Sum(rhs),rhsMax =  -5.17458082334765E+01  1.34595747467393E+00
(PID.TID 0000.0001)  ploadbar=  1.01139223239310E+05
 cg2d: Sum(rhs),rhsMax =  -5.15406484710571E+01  1.35148379005603E+00
(PID.TID 0000.0001)  ploadbar=  1.01138063831400E+05
 cg2d: Sum(rhs),rhsMax =  -5.13572836894102E+01  1.35648154804428E+00
(PID.TID 0000.0001)  ploadbar=  1.01136904423489E+05
 cg2d: Sum(rhs),rhsMax =  -5.11982372289069E+01  1.36086731591618E+00
(PID.TID 0000.0001)  ploadbar=  1.01135745015578E+05
 cg2d: Sum(rhs),rhsMax =  -5.10737631801555E+01  1.36433416023433E+00
(PID.TID 0000.0001)  ploadbar=  1.01134984938961E+05
 cg2d: Sum(rhs),rhsMax =  -5.09600624282042E+01  1.36750424920093E+00
(PID.TID 0000.0001)  ploadbar=  1.01134224862345E+05
 cg2d: Sum(rhs),rhsMax =  -5.08587391583762E+01  1.37032770317836E+00
(PID.TID 0000.0001)  ploadbar=  1.01133464785728E+05
 cg2d: Sum(rhs),rhsMax =  -5.07662257418714E+01  1.37289444487099E+00
(PID.TID 0000.0001)  ploadbar=  1.01132704709111E+05
 cg2d: Sum(rhs),rhsMax =  -5.06806750224139E+01  1.37524575730450E+00
(PID.TID 0000.0001)  ploadbar=  1.01131944632495E+05
 cg2d: Sum(rhs),rhsMax =  -5.05988418885084E+01  1.37746148177154E+00
(PID.TID 0000.0001)  ploadbar=  1.01131184555878E+05
 cg2d: Sum(rhs),rhsMax =  -5.05436039411805E+01  1.37902603926984E+00
(PID.TID 0000.0001)  ploadbar=  1.01130477966648E+05
 cg2d: Sum(rhs),rhsMax =  -5.05021017048189E+01  1.38028203307797E+00
(PID.TID 0000.0001)  ploadbar=  1.01129771377418E+05
 cg2d: Sum(rhs),rhsMax =  -5.04643846056748E+01  1.38149293744143E+00
(PID.TID 0000.0001)  ploadbar=  1.01129064788188E+05
 cg2d: Sum(rhs),rhsMax =  -5.04330565695500E+01  1.38258673133653E+00
(PID.TID 0000.0001)  ploadbar=  1.01128358198959E+05
 cg2d: Sum(rhs),rhsMax =  -5.04083597389433E+01  1.38355118010274E+00
(PID.TID 0000.0001)  ploadbar=  1.01127651609729E+05
 cg2d: Sum(rhs),rhsMax =  -5.03889260398262E+01  1.38441601397057E+00
(PID.TID 0000.0001)  ploadbar=  1.01126945020499E+05
 cg2d: Sum(rhs),rhsMax =  -5.03704912127983E+01  1.38526111214793E+00
(PID.TID 0000.0001)  ploadbar=  1.01126154676232E+05
 cg2d: Sum(rhs),rhsMax =  -5.03594264374239E+01  1.38590982863350E+00
(PID.TID 0000.0001)  ploadbar=  1.01125364331966E+05
 cg2d: Sum(rhs),rhsMax =  -5.03469433494010E+01  1.38659767701114E+00
(PID.TID 0000.0001)  ploadbar=  1.01124573987699E+05
 cg2d: Sum(rhs),rhsMax =  -5.03349128329930E+01  1.38726632448128E+00
(PID.TID 0000.0001)  ploadbar=  1.01123783643433E+05
 cg2d: Sum(rhs),rhsMax =  -5.03240577999534E+01  1.38789380549980E+00
(PID.TID 0000.0001)  ploadbar=  1.01122993299166E+05
 cg2d: Sum(rhs),rhsMax =  -5.03136064995146E+01  1.38849839725027E+00
(PID.TID 0000.0001)  ploadbar=  1.01122202954899E+05
 cg2d: Sum(rhs),rhsMax =  -5.02914628153013E+01  1.38946156119219E+00
(PID.TID 0000.0001)  ploadbar=  1.01123286159355E+05
 cg2d: Sum(rhs),rhsMax =  -5.02721302184436E+01  1.39037418566674E+00
(PID.TID 0000.0001)  ploadbar=  1.01124369363810E+05
 cg2d: Sum(rhs),rhsMax =  -5.02592046693959E+01  1.39113122642914E+00
(PID.TID 0000.0001)  ploadbar=  1.01125452568265E+05
 cg2d: Sum(rhs),rhsMax =  -5.02503586637042E+01  1.39179351858466E+00
(PID.TID 0000.0001)  ploadbar=  1.01126535772720E+05
 cg2d: Sum(rhs),rhsMax =  -5.02436050597831E+01  1.39240821964265E+00
(PID.TID 0000.0001)  ploadbar=  1.01127618977175E+05
 cg2d: Sum(rhs),rhsMax =  -5.02375508766255E+01  1.39301011730133E+00
(PID.TID 0000.0001)  ploadbar=  1.01128702181630E+05
 cg2d: Sum(rhs),rhsMax =  -5.02322696131736E+01  1.39353277452967E+00
(PID.TID 0000.0001)  ploadbar=  1.01128641255743E+05
 cg2d: Sum(rhs),rhsMax =  -5.02213140470270E+01  1.39415166064330E+00
(PID.TID 0000.0001)  ploadbar=  1.01128580329855E+05
 cg2d: Sum(rhs),rhsMax =  -5.02137007292743E+01  1.39461333510299E+00
(PID.TID 0000.0001)  ploadbar=  1.01128519403968E+05
 cg2d: Sum(rhs),rhsMax =  -5.02104069526048E+01  1.39488574320271E+00
(PID.TID 0000.0001)  ploadbar=  1.01128458478080E+05
 cg2d: Sum(rhs),rhsMax =  -5.02111605171473E+01  1.39497104006614E+00
(PID.TID 0000.0001)  ploadbar=  1.01128397552193E+05
 cg2d: Sum(rhs),rhsMax =  -5.02171332275558E+01  1.39483152682653E+00
(PID.TID 0000.0001)  ploadbar=  1.01128336626305E+05
 cg2d: Sum(rhs),rhsMax =  -5.02429861919463E+01  1.39423819197826E+00
(PID.TID 0000.0001)  ploadbar=  1.01127092995537E+05
 cg2d: Sum(rhs),rhsMax =  -5.02810814363523E+01  1.39339710044856E+00
(PID.TID 0000.0001)  ploadbar=  1.01125849364769E+05
 cg2d: Sum(rhs),rhsMax =  -5.03286930110735E+01  1.39238216739112E+00
(PID.TID 0000.0001)  ploadbar=  1.01124605734001E+05
 cg2d: Sum(rhs),rhsMax =  -5.03880371620285E+01  1.39113001625098E+00
(PID.TID 0000.0001)  ploadbar=  1.01123362103234E+05
 cg2d: Sum(rhs),rhsMax =  -5.04597324292959E+01  1.38962190793780E+00
(PID.TID 0000.0001)  ploadbar=  1.01122118472466E+05
 cg2d: Sum(rhs),rhsMax =  -5.05426044558950E+01  1.38788659271716E+00
(PID.TID 0000.0001)  ploadbar=  1.01120874841698E+05
 cg2d: Sum(rhs),rhsMax =  -5.06302234674020E+01  1.38593842500626E+00
(PID.TID 0000.0001)  ploadbar=  1.01120529945993E+05
 cg2d: Sum(rhs),rhsMax =  -5.07235487601673E+01  1.38374650412927E+00
(PID.TID 0000.0001)  ploadbar=  1.01120185050288E+05
 cg2d: Sum(rhs),rhsMax =  -5.08165357165166E+01  1.38147257861195E+00
(PID.TID 0000.0001)  ploadbar=  1.01119840154583E+05
 cg2d: Sum(rhs),rhsMax =  -5.09086810168082E+01  1.37912651163724E+00
(PID.TID 0000.0001)  ploadbar=  1.01119495258878E+05
 cg2d: Sum(rhs),rhsMax =  -5.10013955466968E+01  1.37666600751317E+00
(PID.TID 0000.0001)  ploadbar=  1.01119150363174E+05
 cg2d: Sum(rhs),rhsMax =  -5.10956471375938E+01  1.37406335892544E+00
(PID.TID 0000.0001)  ploadbar=  1.01118805467469E+05
 cg2d: Sum(rhs),rhsMax =  -5.11862786753139E+01  1.37159663938437E+00
(PID.TID 0000.0001)  ploadbar=  1.01119754393708E+05
 cg2d: Sum(rhs),rhsMax =  -5.12824736159262E+01  1.36901511846752E+00
(PID.TID 0000.0001)  ploadbar=  1.01120703319948E+05
 cg2d: Sum(rhs),rhsMax =  -5.13799255627423E+01  1.36643082892078E+00
(PID.TID 0000.0001)  ploadbar=  1.01121652246188E+05
 cg2d: Sum(rhs),rhsMax =  -5.14745480157486E+01  1.36394670277458E+00
(PID.TID 0000.0001)  ploadbar=  1.01122601172427E+05
 cg2d: Sum(rhs),rhsMax =  -5.15643254476983E+01  1.36161103846247E+00
(PID.TID 0000.0001)  ploadbar=  1.01123550098667E+05
 cg2d: Sum(rhs),rhsMax =  -5.16481686749956E+01  1.35944730703730E+00
(PID.TID 0000.0001)  ploadbar=  1.01124499024906E+05
 cg2d: Sum(rhs),rhsMax =  -5.17242677607287E+01  1.35746678098635E+00
(PID.TID 0000.0001)  ploadbar=  1.01124334447983E+05
 cg2d: Sum(rhs),rhsMax =  -5.17929563187730E+01  1.35565831250979E+00
(PID.TID 0000.0001)  ploadbar=  1.01124169871059E+05
 cg2d: Sum(rhs),rhsMax =  -5.18551572886705E+01  1.35399181564127E+00
(PID.TID 0000.0001)  ploadbar=  1.01124005294136E+05
 cg2d: Sum(rhs),rhsMax =  -5.19097770158664E+01  1.35249190399346E+00
(PID.TID 0000.0001)  ploadbar=  1.01123840717212E+05
 cg2d: Sum(rhs),rhsMax =  -5.19563848261919E+01  1.35116359169708E+00
(PID.TID 0000.0001)  ploadbar=  1.01123676140289E+05
 cg2d: Sum(rhs),rhsMax =  -5.19950932522843E+01  1.35000032976311E+00
(PID.TID 0000.0001)  ploadbar=  1.01123511563365E+05
 cg2d: Sum(rhs),rhsMax =  -5.20281534092692E+01  1.34905581698787E+00
(PID.TID 0000.0001)  ploadbar=  1.01123905361710E+05
 cg2d: Sum(rhs),rhsMax =  -5.20552838656472E+01  1.34833406204798E+00
(PID.TID 0000.0001)  ploadbar=  1.01124299160055E+05
 cg2d: Sum(rhs),rhsMax =  -5.20760599475304E+01  1.34784335403313E+00
(PID.TID 0000.0001)  ploadbar=  1.01124692958400E+05
 cg2d: Sum(rhs),rhsMax =  -5.20901034412462E+01  1.34759019339493E+00
(PID.TID 0000.0001)  ploadbar=  1.01125086756745E+05
 cg2d: Sum(rhs),rhsMax =  -5.20969938674969E+01  1.34758318642467E+00
(PID.TID 0000.0001)  ploadbar=  1.01125480555090E+05
 cg2d: Sum(rhs),rhsMax =  -5.20965456937119E+01  1.34781829409991E+00
(PID.TID 0000.0001)  ploadbar=  1.01125874353434E+05
 cg2d: Sum(rhs),rhsMax =  -5.20867491791668E+01  1.34822504169321E+00
(PID.TID 0000.0001)  ploadbar=  1.01125293874217E+05
 cg2d: Sum(rhs),rhsMax =  -5.20635015727645E+01  1.34891032748006E+00
(PID.TID 0000.0001)  ploadbar=  1.01124713394999E+05
 cg2d: Sum(rhs),rhsMax =  -5.20284040697522E+01  1.34982894414077E+00
(PID.TID 0000.0001)  ploadbar=  1.01124132915782E+05
 cg2d: Sum(rhs),rhsMax =  -5.19841281303752E+01  1.35090909553315E+00
(PID.TID 0000.0001)  ploadbar=  1.01123552436564E+05
 cg2d: Sum(rhs),rhsMax =  -5.19300861518574E+01  1.35216600573974E+00
(PID.TID 0000.0001)  ploadbar=  1.01122971957347E+05
 cg2d: Sum(rhs),rhsMax =  -5.18656222892830E+01  1.35361751367040E+00
(PID.TID 0000.0001)  ploadbar=  1.01122391478130E+05
 cg2d: Sum(rhs),rhsMax =  -5.17999308321492E+01  1.35513868209381E+00
(PID.TID 0000.0001)  ploadbar=  1.01121739328463E+05
 cg2d: Sum(rhs),rhsMax =  -5.17279518666421E+01  1.35685052702975E+00
(PID.TID 0000.0001)  ploadbar=  1.01121087178796E+05
 cg2d: Sum(rhs),rhsMax =  -5.16525720391374E+01  1.35867241293201E+00
(PID.TID 0000.0001)  ploadbar=  1.01120435029129E+05
 cg2d: Sum(rhs),rhsMax =  -5.15746697272420E+01  1.36057795292158E+00
(PID.TID 0000.0001)  ploadbar=  1.01119782879462E+05
 cg2d: Sum(rhs),rhsMax =  -5.14941270964275E+01  1.36257056303116E+00
(PID.TID 0000.0001)  ploadbar=  1.01119130729794E+05
 cg2d: Sum(rhs),rhsMax =  -5.14108824633374E+01  1.36464981614585E+00
(PID.TID 0000.0001)  ploadbar=  1.01118478580127E+05
 cg2d: Sum(rhs),rhsMax =  -5.13328541718527E+01  1.36657058213667E+00
(PID.TID 0000.0001)  ploadbar=  1.01118435262920E+05
 cg2d: Sum(rhs),rhsMax =  -5.12538639980043E+01  1.36849356602276E+00
(PID.TID 0000.0001)  ploadbar=  1.01118391945713E+05
 cg2d: Sum(rhs),rhsMax =  -5.11810120368688E+01  1.37023110389275E+00
(PID.TID 0000.0001)  ploadbar=  1.01118348628506E+05
 cg2d: Sum(rhs),rhsMax =  -5.11128502609928E+01  1.37181774061322E+00
(PID.TID 0000.0001)  ploadbar=  1.01118305311299E+05
 cg2d: Sum(rhs),rhsMax =  -5.10439951776541E+01  1.37339493742082E+00
(PID.TID 0000.0001)  ploadbar=  1.01118261994091E+05
 cg2d: Sum(rhs),rhsMax =  -5.09773723739503E+01  1.37488058768071E+00
(PID.TID 0000.0001)  ploadbar=  1.01118218676884E+05
 cg2d: Sum(rhs),rhsMax =  -5.09212621076895E+01  1.37616223619298E+00
(PID.TID 0000.0001)  ploadbar=  1.01118335184130E+05
 cg2d: Sum(rhs),rhsMax =  -5.08752222307442E+01  1.37724370562995E+00
(PID.TID 0000.0001)  ploadbar=  1.01118451691375E+05
 cg2d: Sum(rhs),rhsMax =  -5.08412973129174E+01  1.37806552903229E+00
(PID.TID 0000.0001)  ploadbar=  1.01118568198621E+05
 cg2d: Sum(rhs),rhsMax =  -5.08185503856023E+01  1.37864667478932E+00
(PID.TID 0000.0001)  ploadbar=  1.01118684705867E+05
 cg2d: Sum(rhs),rhsMax =  -5.08074631259774E+01  1.37896782248730E+00
(PID.TID 0000.0001)  ploadbar=  1.01118801213112E+05
 cg2d: Sum(rhs),rhsMax =  -5.08189894839044E+01  1.37872670541171E+00
(PID.TID 0000.0001)  ploadbar=  1.01118917720358E+05
 cg2d: Sum(rhs),rhsMax =  -5.08347959073749E+01  1.37834906610271E+00
(PID.TID 0000.0001)  ploadbar=  1.01117617047691E+05
 cg2d: Sum(rhs),rhsMax =  -5.08569114641012E+01  1.37777658180473E+00
(PID.TID 0000.0001)  ploadbar=  1.01116316375024E+05
 cg2d: Sum(rhs),rhsMax =  -5.08867196897264E+01  1.37696818711220E+00
(PID.TID 0000.0001)  ploadbar=  1.01115015702357E+05
 cg2d: Sum(rhs),rhsMax =  -5.09226426542370E+01  1.37596707751328E+00
(PID.TID 0000.0001)  ploadbar=  1.01113715029690E+05
 cg2d: Sum(rhs),rhsMax =  -5.09635668443761E+01  1.37480607734430E+00
(PID.TID 0000.0001)  ploadbar=  1.01112414357022E+05
 cg2d: Sum(rhs),rhsMax =  -5.10076748624465E+01  1.37353740906931E+00
(PID.TID 0000.0001)  ploadbar=  1.01111113684355E+05
 cg2d: Sum(rhs),rhsMax =  -5.10394188371976E+01  1.37263316384105E+00
(PID.TID 0000.0001)  ploadbar=  1.01111610353229E+05
 cg2d: Sum(rhs),rhsMax =  -5.10760057818114E+01  1.37161484986473E+00
(PID.TID 0000.0001)  ploadbar=  1.01112107022104E+05
 cg2d: Sum(rhs),rhsMax =  -5.11105288851217E+01  1.37066654468555E+00
(PID.TID 0000.0001)  ploadbar=  1.01112603690978E+05
 cg2d: Sum(rhs),rhsMax =  -5.11454045331737E+01  1.36971718083567E+00
(PID.TID 0000.0001)  ploadbar=  1.01113100359852E+05
 cg2d: Sum(rhs),rhsMax =  -5.11830451011681E+01  1.36869971761215E+00
(PID.TID 0000.0001)  ploadbar=  1.01113597028726E+05
 cg2d: Sum(rhs),rhsMax =  -5.12245842288696E+01  1.36758713914511E+00
(PID.TID 0000.0001)  ploadbar=  1.01114093697600E+05
 cg2d: Sum(rhs),rhsMax =  -5.12642204025544E+01  1.36649473915826E+00
(PID.TID 0000.0001)  ploadbar=  1.01113462104740E+05
 cg2d: Sum(rhs),rhsMax =  -5.13074613423556E+01  1.36527329953380E+00
(PID.TID 0000.0001)  ploadbar=  1.01112830511879E+05
 cg2d: Sum(rhs),rhsMax =  -5.13513289558693E+01  1.36400141213613E+00
(PID.TID 0000.0001)  ploadbar=  1.01112198919019E+05
 cg2d: Sum(rhs),rhsMax =  -5.13945320950204E+01  1.36271367309538E+00
(PID.TID 0000.0001)  ploadbar=  1.01111567326158E+05
 cg2d: Sum(rhs),rhsMax =  -5.14369556025512E+01  1.36141279923343E+00
(PID.TID 0000.0001)  ploadbar=  1.01110935733298E+05
 cg2d: Sum(rhs),rhsMax =  -5.14783791122719E+01  1.36009585077184E+00
(PID.TID 0000.0001)  ploadbar=  1.01110304140438E+05
 cg2d: Sum(rhs),rhsMax =  -5.15393943093600E+01  1.35834568666852E+00
(PID.TID 0000.0001)  ploadbar=  1.01108969515745E+05
 cg2d: Sum(rhs),rhsMax =  -5.16055492912964E+01  1.35653799013932E+00
(PID.TID 0000.0001)  ploadbar=  1.01107634891053E+05
 cg2d: Sum(rhs),rhsMax =  -5.16737103968164E+01  1.35475031248896E+00
(PID.TID 0000.0001)  ploadbar=  1.01106300266361E+05
 cg2d: Sum(rhs),rhsMax =  -5.17440547158286E+01  1.35297075728594E+00
(PID.TID 0000.0001)  ploadbar=  1.01104965641669E+05
 cg2d: Sum(rhs),rhsMax =  -5.18169789269560E+01  1.35118525077506E+00
(PID.TID 0000.0001)  ploadbar=  1.01103631016977E+05
 cg2d: Sum(rhs),rhsMax =  -5.18919656485555E+01  1.34939935889497E+00
(PID.TID 0000.0001)  ploadbar=  1.01102296392285E+05
 cg2d: Sum(rhs),rhsMax =  -5.19551939166145E+01  1.34792630007119E+00
(PID.TID 0000.0001)  ploadbar=  1.01101055666235E+05
 cg2d: Sum(rhs),rhsMax =  -5.20111819312825E+01  1.34664184127163E+00
(PID.TID 0000.0001)  ploadbar=  1.01099814940186E+05
 cg2d: Sum(rhs),rhsMax =  -5.20525821540776E+01  1.34573206114701E+00
(PID.TID 0000.0001)  ploadbar=  1.01098574214137E+05
 cg2d: Sum(rhs),rhsMax =  -5.20808275391408E+01  1.34516065523654E+00
(PID.TID 0000.0001)  ploadbar=  1.01097333488087E+05
 cg2d: Sum(rhs),rhsMax =  -5.21029544356387E+01  1.34475054152884E+00
(PID.TID 0000.0001)  ploadbar=  1.01096092762038E+05
 cg2d: Sum(rhs),rhsMax =  -5.21275438743816E+01  1.34427850692339E+00
(PID.TID 0000.0001)  ploadbar=  1.01094852035988E+05
 cg2d: Sum(rhs),rhsMax =  -5.21445843715718E+01  1.34405495270211E+00
(PID.TID 0000.0001)  ploadbar=  1.01094569466423E+05
 cg2d: Sum(rhs),rhsMax =  -5.21638286270499E+01  1.34381569831743E+00
(PID.TID 0000.0001)  ploadbar=  1.01094286896857E+05
 cg2d: Sum(rhs),rhsMax =  -5.21936474165373E+01  1.34334151622442E+00
(PID.TID 0000.0001)  ploadbar=  1.01094004327291E+05
 cg2d: Sum(rhs),rhsMax =  -5.22324879453834E+01  1.34267044034604E+00
(PID.TID 0000.0001)  ploadbar=  1.01093721757726E+05
 cg2d: Sum(rhs),rhsMax =  -5.22822618415798E+01  1.34175272000806E+00
(PID.TID 0000.0001)  ploadbar=  1.01093439188160E+05
 cg2d: Sum(rhs),rhsMax =  -5.23365864378391E+01  1.34075052977548E+00
(PID.TID 0000.0001)  ploadbar=  1.01093156618594E+05
 cg2d: Sum(rhs),rhsMax =  -5.24063651337970E+01  1.33933072247338E+00
(PID.TID 0000.0001)  ploadbar=  1.01092282058910E+05
 cg2d: Sum(rhs),rhsMax =  -5.24759218778384E+01  1.33789346025701E+00
(PID.TID 0000.0001)  ploadbar=  1.01091407499225E+05
 cg2d: Sum(rhs),rhsMax =  -5.25481649032883E+01  1.33636502658365E+00
(PID.TID 0000.0001)  ploadbar=  1.01090532939541E+05
 cg2d: Sum(rhs),rhsMax =  -5.26195054086123E+01  1.33483576859675E+00
(PID.TID 0000.0001)  ploadbar=  1.01089658379856E+05
 cg2d: Sum(rhs),rhsMax =  -5.26872747661621E+01  1.33336993348106E+00
(PID.TID 0000.0001)  ploadbar=  1.01088783820172E+05
 cg2d: Sum(rhs),rhsMax =  -5.27503823052269E+01  1.33199057099013E+00
(PID.TID 0000.0001)  ploadbar=  1.01087909260487E+05
 cg2d: Sum(rhs),rhsMax =  -5.28327816627234E+01  1.33020008829603E+00
(PID.TID 0000.0001)  ploadbar=  1.01087889430784E+05
 cg2d: Sum(rhs),rhsMax =  -5.29263942318835E+01  1.32819994088722E+00
(PID.TID 0000.0001)  ploadbar=  1.01087869601081E+05
 cg2d: Sum(rhs),rhsMax =  -5.30243825890046E+01  1.32615789281638E+00
(PID.TID 0000.0001)  ploadbar=  1.01087849771378E+05
 cg2d: Sum(rhs),rhsMax =  -5.31299412151444E+01  1.32398972664034E+00
(PID.TID 0000.0001)  ploadbar=  1.01087829941675E+05
 cg2d: Sum(rhs),rhsMax =  -5.32430520519943E+01  1.32169436567116E+00
(PID.TID 0000.0001)  ploadbar=  1.01087810111972E+05
 cg2d: Sum(rhs),rhsMax =  -5.33622653137315E+01  1.31930761090614E+00
(PID.TID 0000.0001)  ploadbar=  1.01087790282268E+05
 cg2d: Sum(rhs),rhsMax =  -5.34790202985573E+01  1.31696599977911E+00
(PID.TID 0000.0001)  ploadbar=  1.01087577088551E+05
 cg2d: Sum(rhs),rhsMax =  -5.35904679019721E+01  1.31473844097598E+00
(PID.TID 0000.0001)  ploadbar=  1.01087363894833E+05
 cg2d: Sum(rhs),rhsMax =  -5.36970437255365E+01  1.31261340603644E+00
(PID.TID 0000.0001)  ploadbar=  1.01087150701116E+05
 cg2d: Sum(rhs),rhsMax =  -5.37991375409065E+01  1.31057890608136E+00
(PID.TID 0000.0001)  ploadbar=  1.01086937507398E+05
 cg2d: Sum(rhs),rhsMax =  -5.38955114008844E+01  1.30866666671029E+00
(PID.TID 0000.0001)  ploadbar=  1.01086724313681E+05
 cg2d: Sum(rhs),rhsMax =  -5.39858639713911E+01  1.30688423172594E+00
(PID.TID 0000.0001)  ploadbar=  1.01086511119963E+05
 cg2d: Sum(rhs),rhsMax =  -5.40696758847643E+01  1.30528146438356E+00
(PID.TID 0000.0001)  ploadbar=  1.01086662358759E+05
 cg2d: Sum(rhs),rhsMax =  -5.41447981652081E+01  1.30389694810606E+00
(PID.TID 0000.0001)  ploadbar=  1.01086813597554E+05
 cg2d: Sum(rhs),rhsMax =  -5.42148335979183E+01  1.30264078367536E+00
(PID.TID 0000.0001)  ploadbar=  1.01086964836350E+05
 cg2d: Sum(rhs),rhsMax =  -5.42800845857516E+01  1.30149943722860E+00
(PID.TID 0000.0001)  ploadbar=  1.01087116075145E+05
 cg2d: Sum(rhs),rhsMax =  -5.43388439795716E+01  1.30050828466586E+00
(PID.TID 0000.0001)  ploadbar=  1.01087267313941E+05
 cg2d: Sum(rhs),rhsMax =  -5.43909719593012E+01  1.29966677500688E+00
(PID.TID 0000.0001)  ploadbar=  1.01087418552736E+05
 cg2d: Sum(rhs),rhsMax =  -5.44252481499100E+01  1.29918488226227E+00
(PID.TID 0000.0001)  ploadbar=  1.01086925843731E+05
 cg2d: Sum(rhs),rhsMax =  -5.44431847931964E+01  1.29902472796527E+00
(PID.TID 0000.0001)  ploadbar=  1.01086433134726E+05
 cg2d: Sum(rhs),rhsMax =  -5.44515386041589E+01  1.29902892865542E+00
(PID.TID 0000.0001)  ploadbar=  1.01085940425721E+05
 cg2d: Sum(rhs),rhsMax =  -5.44501735712403E+01  1.29919979677762E+00
(PID.TID 0000.0001)  ploadbar=  1.01085447716715E+05
 cg2d: Sum(rhs),rhsMax =  -5.44380135661584E+01  1.29956229194353E+00
(PID.TID 0000.0001)  ploadbar=  1.01084955007710E+05
 cg2d: Sum(rhs),rhsMax =  -5.44131793996923E+01  1.30015871484837E+00
(PID.TID 0000.0001)  ploadbar=  1.01084462298705E+05
 cg2d: Sum(rhs),rhsMax =  -5.43939043696270E+01  1.30069236789538E+00
(PID.TID 0000.0001)  ploadbar=  1.01085652597166E+05
 cg2d: Sum(rhs),rhsMax =  -5.43827742304335E+01  1.30109614855084E+00
(PID.TID 0000.0001)  ploadbar=  1.01086842895626E+05
 cg2d: Sum(rhs),rhsMax =  -5.43840058962728E+01  1.30126413436719E+00
(PID.TID 0000.0001)  ploadbar=  1.01088033194087E+05
 cg2d: Sum(rhs),rhsMax =  -5.43961170821573E+01  1.30122796730103E+00
(PID.TID 0000.0001)  ploadbar=  1.01089223492547E+05
 cg2d: Sum(rhs),rhsMax =  -5.44179973251728E+01  1.30101029093249E+00
(PID.TID 0000.0001)  ploadbar=  1.01090413791008E+05
 cg2d: Sum(rhs),rhsMax =  -5.44486622767450E+01  1.30063417011366E+00
(PID.TID 0000.0001)  ploadbar=  1.01091604089469E+05
 cg2d: Sum(rhs),rhsMax =  -5.44831894809173E+01  1.30013826502720E+00
(PID.TID 0000.0001)  ploadbar=  1.01092146991045E+05
 cg2d: Sum(rhs),rhsMax =  -5.45160710143389E+01  1.29965612868231E+00
(PID.TID 0000.0001)  ploadbar=  1.01092689892622E+05
 cg2d: Sum(rhs),rhsMax =  -5.45464776488239E+01  1.29921173990875E+00
(PID.TID 0000.0001)  ploadbar=  1.01093232794198E+05
 cg2d: Sum(rhs),rhsMax =  -5.45729616100615E+01  1.29884217496733E+00
(PID.TID 0000.0001)  ploadbar=  1.01093775695775E+05
 cg2d: Sum(rhs),rhsMax =  -5.45966299789416E+01  1.29851895279768E+00
(PID.TID 0000.0001)  ploadbar=  1.01094318597351E+05
 cg2d: Sum(rhs),rhsMax =  -5.46201646126975E+01  1.29818064777056E+00
(PID.TID 0000.0001)  ploadbar=  1.01094861498928E+05
 cg2d: Sum(rhs),rhsMax =  -5.46500204626958E+01  1.29770457819064E+00
(PID.TID 0000.0001)  ploadbar=  1.01095396221748E+05
 cg2d: Sum(rhs),rhsMax =  -5.46906765422699E+01  1.29697708325047E+00
(PID.TID 0000.0001)  ploadbar=  1.01095930944568E+05
 cg2d: Sum(rhs),rhsMax =  -5.47385618915061E+01  1.29608098547259E+00
(PID.TID 0000.0001)  ploadbar=  1.01096465667388E+05
 cg2d: Sum(rhs),rhsMax =  -5.47925293881232E+01  1.29503884617006E+00
(PID.TID 0000.0001)  ploadbar=  1.01097000390208E+05
 cg2d: Sum(rhs),rhsMax =  -5.48555420176958E+01  1.29377786284999E+00
(PID.TID 0000.0001)  ploadbar=  1.01097535113028E+05
 cg2d: Sum(rhs),rhsMax =  -5.49279459710464E+01  1.29228912808605E+00
(PID.TID 0000.0001)  ploadbar=  1.01098069835848E+05
 cg2d: Sum(rhs),rhsMax =  -5.49935131780759E+01  1.29089580476381E+00
(PID.TID 0000.0001)  ploadbar=  1.01098097603229E+05
 cg2d: Sum(rhs),rhsMax =  -5.50601653400241E+01  1.28940893877713E+00
(PID.TID 0000.0001)  ploadbar=  1.01098125370610E+05
 cg2d: Sum(rhs),rhsMax =  -5.51263133643377E+01  1.28786826950373E+00
(PID.TID 0000.0001)  ploadbar=  1.01098153137991E+05
 cg2d: Sum(rhs),rhsMax =  -5.51922078041916E+01  1.28627077104960E+00
(PID.TID 0000.0001)  ploadbar=  1.01098180905372E+05
 cg2d: Sum(rhs),rhsMax =  -5.52577152978626E+01  1.28461903318656E+00
(PID.TID 0000.0001)  ploadbar=  1.01098208672753E+05
 cg2d: Sum(rhs),rhsMax =  -5.53221275422418E+01  1.28292724287276E+00
(PID.TID 0000.0001)  ploadbar=  1.01098236440134E+05
 cg2d: Sum(rhs),rhsMax =  -5.53794483663765E+01  1.28147023029098E+00
(PID.TID 0000.0001)  ploadbar=  1.01098459720794E+05
 cg2d: Sum(rhs),rhsMax =  -5.54379855313367E+01  1.28005081087559E+00
(PID.TID 0000.0001)  ploadbar=  1.01098683001455E+05
 cg2d: Sum(rhs),rhsMax =  -5.54993081329034E+01  1.27862647014100E+00
(PID.TID 0000.0001)  ploadbar=  1.01098906282115E+05
 cg2d: Sum(rhs),rhsMax =  -5.55626379221946E+01  1.27720883714025E+00
(PID.TID 0000.0001)  ploadbar=  1.01099129562775E+05
 cg2d: Sum(rhs),rhsMax =  -5.56274843672495E+01  1.27580665728396E+00
(PID.TID 0000.0001)  ploadbar=  1.01099352843436E+05
 cg2d: Sum(rhs),rhsMax =  -5.56934016416798E+01  1.27442595770756E+00
(PID.TID 0000.0001)  ploadbar=  1.01099576124096E+05
 cg2d: Sum(rhs),rhsMax =  -5.57665910153366E+01  1.27288026215215E+00
(PID.TID 0000.0001)  ploadbar=  1.01100041516929E+05
 cg2d: Sum(rhs),rhsMax =  -5.58399403911511E+01  1.27133447197945E+00
(PID.TID 0000.0001)  ploadbar=  1.01100506909762E+05
 cg2d: Sum(rhs),rhsMax =  -5.59135287663968E+01  1.26978816700760E+00
(PID.TID 0000.0001)  ploadbar=  1.01100972302595E+05
 cg2d: Sum(rhs),rhsMax =  -5.59890134615004E+01  1.26820981324048E+00
(PID.TID 0000.0001)  ploadbar=  1.01101437695428E+05
 cg2d: Sum(rhs),rhsMax =  -5.60665152965860E+01  1.26659903694283E+00
(PID.TID 0000.0001)  ploadbar=  1.01101903088261E+05
 cg2d: Sum(rhs),rhsMax =  -5.61457601835185E+01  1.26496246094894E+00
(PID.TID 0000.0001)  ploadbar=  1.01102368481094E+05
 cg2d: Sum(rhs),rhsMax =  -5.62333610077524E+01  1.26318181787166E+00
(PID.TID 0000.0001)  ploadbar=  1.01104177464967E+05
 cg2d: Sum(rhs),rhsMax =  -5.63272639971543E+01  1.26129817739905E+00
(PID.TID 0000.0001)  ploadbar=  1.01105986448840E+05
 cg2d: Sum(rhs),rhsMax =  -5.64224508079616E+01  1.25942119631235E+00
(PID.TID 0000.0001)  ploadbar=  1.01107795432712E+05
 cg2d: Sum(rhs),rhsMax =  -5.65190864568177E+01  1.25754519197981E+00
(PID.TID 0000.0001)  ploadbar=  1.01109604416585E+05
 cg2d: Sum(rhs),rhsMax =  -5.66180394841672E+01  1.25564820483492E+00
(PID.TID 0000.0001)  ploadbar=  1.01111413400458E+05
 cg2d: Sum(rhs),rhsMax =  -5.67194406814230E+01  1.25372428796538E+00
(PID.TID 0000.0001)  ploadbar=  1.01113222384331E+05
 cg2d: Sum(rhs),rhsMax =  -5.68294910470019E+01  1.25159097431530E+00
(PID.TID 0000.0001)  ploadbar=  1.01113846226508E+05
 cg2d: Sum(rhs),rhsMax =  -5.69420269675660E+01  1.24938666276992E+00
(PID.TID 0000.0001)  ploadbar=  1.01114470068685E+05
 cg2d: Sum(rhs),rhsMax =  -5.70553124475945E+01  1.24715172566438E+00
(PID.TID 0000.0001)  ploadbar=  1.01115093910862E+05
 cg2d: Sum(rhs),rhsMax =  -5.71703018142361E+01  1.24486402604399E+00
(PID.TID 0000.0001)  ploadbar=  1.01115717753039E+05
 cg2d: Sum(rhs),rhsMax =  -5.72876066366022E+01  1.24250887179177E+00
(PID.TID 0000.0001)  ploadbar=  1.01116341595216E+05
 cg2d: Sum(rhs),rhsMax =  -5.74074727880610E+01  1.24008108725741E+00
(PID.TID 0000.0001)  ploadbar=  1.01116965437393E+05
 cg2d: Sum(rhs),rhsMax =  -5.75225390887585E+01  1.23781124857288E+00
(PID.TID 0000.0001)  ploadbar=  1.01116356365828E+05
 cg2d: Sum(rhs),rhsMax =  -5.76422556666167E+01  1.23549015828800E+00
(PID.TID 0000.0001)  ploadbar=  1.01115747294262E+05
 cg2d: Sum(rhs),rhsMax =  -5.77651697378210E+01  1.23314238256748E+00
(PID.TID 0000.0001)  ploadbar=  1.01115138222696E+05
 cg2d: Sum(rhs),rhsMax =  -5.78917260516742E+01  1.23075363212441E+00
(PID.TID 0000.0001)  ploadbar=  1.01114529151131E+05
 cg2d: Sum(rhs),rhsMax =  -5.80221493448598E+01  1.22831658427366E+00
(PID.TID 0000.0001)  ploadbar=  1.01113920079565E+05
 cg2d: Sum(rhs),rhsMax =  -5.81558333724864E+01  1.22584270017395E+00
(PID.TID 0000.0001)  ploadbar=  1.01113311008000E+05
 cg2d: Sum(rhs),rhsMax =  -5.82953079705003E+01  1.22326169202378E+00
(PID.TID 0000.0001)  ploadbar=  1.01113924325722E+05
 cg2d: Sum(rhs),rhsMax =  -5.84364330008689E+01  1.22066028382966E+00
(PID.TID 0000.0001)  ploadbar=  1.01114537643445E+05
 cg2d: Sum(rhs),rhsMax =  -5.85788454800338E+01  1.21804579391205E+00
(PID.TID 0000.0001)  ploadbar=  1.01115150961167E+05
 cg2d: Sum(rhs),rhsMax =  -5.87228799142613E+01  1.21540957718460E+00
(PID.TID 0000.0001)  ploadbar=  1.01115764278890E+05
 cg2d: Sum(rhs),rhsMax =  -5.88679828124867E+01  1.21276202752744E+00
(PID.TID 0000.0001)  ploadbar=  1.01116377596612E+05
 cg2d: Sum(rhs),rhsMax =  -5.90134493460960E+01  1.21011660913552E+00
(PID.TID 0000.0001)  ploadbar=  1.01116990914335E+05
 cg2d: Sum(rhs),rhsMax =  -5.91576844173906E+01  1.20749790513548E+00
(PID.TID 0000.0001)  ploadbar=  1.01118610553216E+05
 cg2d: Sum(rhs),rhsMax =  -5.93002592257835E+01  1.20490072554570E+00
(PID.TID 0000.0001)  ploadbar=  1.01120230192097E+05
 cg2d: Sum(rhs),rhsMax =  -5.94389788921958E+01  1.20236923761319E+00
(PID.TID 0000.0001)  ploadbar=  1.01121849830978E+05
 cg2d: Sum(rhs),rhsMax =  -5.95752373392192E+01  1.19986944078403E+00
(PID.TID 0000.0001)  ploadbar=  1.01123469469859E+05
 cg2d: Sum(rhs),rhsMax =  -5.97098500432522E+01  1.19738257994588E+00
(PID.TID 0000.0001)  ploadbar=  1.01125089108740E+05
 cg2d: Sum(rhs),rhsMax =  -5.98432301326359E+01  1.19489838886838E+00
(PID.TID 0000.0001)  ploadbar=  1.01126708747621E+05
 cg2d: Sum(rhs),rhsMax =  -5.99718904636054E+01  1.19247922553573E+00
(PID.TID 0000.0001)  ploadbar=  1.01126895798885E+05
 cg2d: Sum(rhs),rhsMax =  -6.00964161282534E+01  1.19011506970493E+00
(PID.TID 0000.0001)  ploadbar=  1.01127082850150E+05
 cg2d: Sum(rhs),rhsMax =  -6.02197468982589E+01  1.18774916247978E+00
(PID.TID 0000.0001)  ploadbar=  1.01127269901414E+05
 cg2d: Sum(rhs),rhsMax =  -6.03406453799886E+01  1.18540201895873E+00
(PID.TID 0000.0001)  ploadbar=  1.01127456952678E+05
 cg2d: Sum(rhs),rhsMax =  -6.04594644621311E+01  1.18306714417311E+00
(PID.TID 0000.0001)  ploadbar=  1.01127644003943E+05
 cg2d: Sum(rhs),rhsMax =  -6.05771793341379E+01  1.18072272244322E+00
(PID.TID 0000.0001)  ploadbar=  1.01127831055207E+05
 cg2d: Sum(rhs),rhsMax =  -6.06970942064891E+01  1.17840802065725E+00
(PID.TID 0000.0001)  ploadbar=  1.01128326962921E+05
 cg2d: Sum(rhs),rhsMax =  -6.08201132731812E+01  1.17609879662361E+00
(PID.TID 0000.0001)  ploadbar=  1.01128822870634E+05
 cg2d: Sum(rhs),rhsMax =  -6.09453648424471E+01  1.17380578147916E+00
(PID.TID 0000.0001)  ploadbar=  1.01129318778348E+05
 cg2d: Sum(rhs),rhsMax =  -6.10722466611930E+01  1.17153569822066E+00
(PID.TID 0000.0001)  ploadbar=  1.01129814686061E+05
 cg2d: Sum(rhs),rhsMax =  -6.12010536932486E+01  1.16928641727102E+00
(PID.TID 0000.0001)  ploadbar=  1.01130310593775E+05
 cg2d: Sum(rhs),rhsMax =  -6.13308816526170E+01  1.16707453491971E+00
(PID.TID 0000.0001)  ploadbar=  1.01130806501488E+05
 cg2d: Sum(rhs),rhsMax =  -6.14593358072926E+01  1.16493440355932E+00
(PID.TID 0000.0001)  ploadbar=  1.01130469125908E+05
 cg2d: Sum(rhs),rhsMax =  -6.15847724875981E+01  1.16289498770588E+00
(PID.TID 0000.0001)  ploadbar=  1.01130131750328E+05
 cg2d: Sum(rhs),rhsMax =  -6.17086314613115E+01  1.16093024839067E+00
(PID.TID 0000.0001)  ploadbar=  1.01129794374747E+05
 cg2d: Sum(rhs),rhsMax =  -6.18309892424748E+01  1.15903436500331E+00
(PID.TID 0000.0001)  ploadbar=  1.01129456999167E+05
 cg2d: Sum(rhs),rhsMax =  -6.19521159177812E+01  1.15719667213350E+00
(PID.TID 0000.0001)  ploadbar=  1.01129119623587E+05
 cg2d: Sum(rhs),rhsMax =  -6.20722580109519E+01  1.15541077300231E+00
(PID.TID 0000.0001)  ploadbar=  1.01128782248007E+05
 cg2d: Sum(rhs),rhsMax =  -6.21946306016201E+01  1.15355414909441E+00
(PID.TID 0000.0001)  ploadbar=  1.01128775944982E+05
 cg2d: Sum(rhs),rhsMax =  -6.23153213735494E+01  1.15169187848660E+00
(PID.TID 0000.0001)  ploadbar=  1.01128769641957E+05
 cg2d: Sum(rhs),rhsMax =  -6.24322601259164E+01  1.14986032143672E+00
(PID.TID 0000.0001)  ploadbar=  1.01128763338932E+05
 cg2d: Sum(rhs),rhsMax =  -6.25451780611307E+01  1.14806074418952E+00
(PID.TID 0000.0001)  ploadbar=  1.01128757035907E+05
 cg2d: Sum(rhs),rhsMax =  -6.26535430641225E+01  1.14630120644251E+00
(PID.TID 0000.0001)  ploadbar=  1.01128750732882E+05
 cg2d: Sum(rhs),rhsMax =  -6.27578810226341E+01  1.14457410190233E+00
(PID.TID 0000.0001)  ploadbar=  1.01128744429857E+05
 cg2d: Sum(rhs),rhsMax =  -6.28586471843070E+01  1.14287917781234E+00
(PID.TID 0000.0001)  ploadbar=  1.01128783070213E+05
 cg2d: Sum(rhs),rhsMax =  -6.29524794909840E+01  1.14127798763159E+00
(PID.TID 0000.0001)  ploadbar=  1.01128821710570E+05
 cg2d: Sum(rhs),rhsMax =  -6.30428045719887E+01  1.13970724387168E+00
(PID.TID 0000.0001)  ploadbar=  1.01128860350926E+05
 cg2d: Sum(rhs),rhsMax =  -6.31293754235243E+01  1.13816884191829E+00
(PID.TID 0000.0001)  ploadbar=  1.01128898991283E+05
 cg2d: Sum(rhs),rhsMax =  -6.32114545007623E+01  1.13667365577014E+00
(PID.TID 0000.0001)  ploadbar=  1.01128937631639E+05
 cg2d: Sum(rhs),rhsMax =  -6.32891141260650E+01  1.13522099872927E+00
(PID.TID 0000.0001)  ploadbar=  1.01128976271996E+05
 cg2d: Sum(rhs),rhsMax =  -6.33624608059243E+01  1.13389234408002E+00
(PID.TID 0000.0001)  ploadbar=  1.01130213066014E+05
 cg2d: Sum(rhs),rhsMax =  -6.34349183845310E+01  1.13262007637952E+00
(PID.TID 0000.0001)  ploadbar=  1.01131449860033E+05
 cg2d: Sum(rhs),rhsMax =  -6.33434391978682E+01  1.13431333031744E+00
(PID.TID 0000.0001)  ploadbar=  1.01132686654051E+05
 cg2d: Sum(rhs),rhsMax =  -6.23264295419504E+01  1.15291491558108E+00
(PID.TID 0000.0001)  ploadbar=  1.01133923448070E+05
 cg2d: Sum(rhs),rhsMax =  -6.14091000063940E+01  1.17026362972042E+00
(PID.TID 0000.0001)  ploadbar=  1.01135160242088E+05
 cg2d: Sum(rhs),rhsMax =  -6.05772459800624E+01  1.18649470013592E+00
(PID.TID 0000.0001)  ploadbar=  1.01136397036106E+05
 cg2d: Sum(rhs),rhsMax =  -5.98356159222529E+01  1.20139393343455E+00
(PID.TID 0000.0001)  ploadbar=  1.01137543880325E+05
 cg2d: Sum(rhs),rhsMax =  -5.91666132097824E+01  1.21520390843580E+00
(PID.TID 0000.0001)  ploadbar=  1.01138690724543E+05
 cg2d: Sum(rhs),rhsMax =  -5.85664539796870E+01  1.22791318643699E+00
(PID.TID 0000.0001)  ploadbar=  1.01139837568762E+05
 cg2d: Sum(rhs),rhsMax =  -5.80356887737991E+01  1.23943270329962E+00
(PID.TID 0000.0001)  ploadbar=  1.01140984412980E+05
 cg2d: Sum(rhs),rhsMax =  -5.75797049329116E+01  1.24957253902299E+00
(PID.TID 0000.0001)  ploadbar=  1.01142131257199E+05
 cg2d: Sum(rhs),rhsMax =  -5.71982228365935E+01  1.25826298048694E+00
(PID.TID 0000.0001)  ploadbar=  1.01143278101417E+05
 cg2d: Sum(rhs),rhsMax =  -5.69493276364441E+01  1.26410195523364E+00
(PID.TID 0000.0001)  ploadbar=  1.01143532985608E+05
 cg2d: Sum(rhs),rhsMax =  -5.67861647406401E+01  1.26804534524744E+00
(PID.TID 0000.0001)  ploadbar=  1.01143787869799E+05
 cg2d: Sum(rhs),rhsMax =  -5.66939513759404E+01  1.27039018008939E+00
(PID.TID 0000.0001)  ploadbar=  1.01144042753990E+05
 cg2d: Sum(rhs),rhsMax =  -5.66600592677863E+01  1.27140038934475E+00
(PID.TID 0000.0001)  ploadbar=  1.01144297638180E+05
 cg2d: Sum(rhs),rhsMax =  -5.66685543079970E+01  1.27142473865419E+00
(PID.TID 0000.0001)  ploadbar=  1.01144552522371E+05
 cg2d: Sum(rhs),rhsMax =  -5.67141481546050E+01  1.27058106749667E+00
(PID.TID 0000.0001)  ploadbar=  1.01144807406562E+05
 cg2d: Sum(rhs),rhsMax =  -5.67737038620085E+01  1.26940273968185E+00
(PID.TID 0000.0001)  ploadbar=  1.01145770654111E+05
 cg2d: Sum(rhs),rhsMax =  -5.68851031087456E+01  1.26704583717515E+00
(PID.TID 0000.0001)  ploadbar=  1.01146733901661E+05
 cg2d: Sum(rhs),rhsMax =  -5.70334005335896E+01  1.26385239396884E+00
(PID.TID 0000.0001)  ploadbar=  1.01147697149210E+05
 cg2d: Sum(rhs),rhsMax =  -5.72155296697400E+01  1.25990162070186E+00
(PID.TID 0000.0001)  ploadbar=  1.01148660396760E+05
 cg2d: Sum(rhs),rhsMax =  -5.74300200954096E+01  1.25524098311045E+00
(PID.TID 0000.0001)  ploadbar=  1.01149623644309E+05
 cg2d: Sum(rhs),rhsMax =  -5.76220328251364E+01  1.25107461690887E+00
(PID.TID 0000.0001)  ploadbar=  1.01150586891859E+05
 cg2d: Sum(rhs),rhsMax =  -5.81359621724771E+01  1.24009805000801E+00
(PID.TID 0000.0001)  ploadbar=  1.01152275664687E+05
 cg2d: Sum(rhs),rhsMax =  -5.88438625214057E+01  1.22531796040422E+00
(PID.TID 0000.0001)  ploadbar=  1.01153964437516E+05
 cg2d: Sum(rhs),rhsMax =  -5.95417862326801E+01  1.21114743235168E+00
(PID.TID 0000.0001)  ploadbar=  1.01155653210344E+05
 cg2d: Sum(rhs),rhsMax =  -6.01159902930159E+01  1.19982203651350E+00
(PID.TID 0000.0001)  ploadbar=  1.01157341983172E+05
 cg2d: Sum(rhs),rhsMax =  -6.06615139489569E+01  1.18932444878499E+00
(PID.TID 0000.0001)  ploadbar=  1.01159030756001E+05
 cg2d: Sum(rhs),rhsMax =  -6.12100799594947E+01  1.17900588700977E+00
(PID.TID 0000.0001)  ploadbar=  1.01160719528829E+05
 cg2d: Sum(rhs),rhsMax =  -6.17291816809613E+01  1.16942637496861E+00
(PID.TID 0000.0001)  ploadbar=  1.01161255343380E+05
 cg2d: Sum(rhs),rhsMax =  -6.22247097671547E+01  1.16044479244357E+00
(PID.TID 0000.0001)  ploadbar=  1.01161791157931E+05
 cg2d: Sum(rhs),rhsMax =  -6.26913126820772E+01  1.15213323197026E+00
(PID.TID 0000.0001)  ploadbar=  1.01162326972482E+05
 cg2d: Sum(rhs),rhsMax =  -6.31287767706230E+01  1.14447202994128E+00
(PID.TID 0000.0001)  ploadbar=  1.01162862787033E+05
 cg2d: Sum(rhs),rhsMax =  -6.35360528825509E+01  1.13745663287971E+00
(PID.TID 0000.0001)  ploadbar=  1.01163398601584E+05
 cg2d: Sum(rhs),rhsMax =  -6.39135643833512E+01  1.13105564060401E+00
(PID.TID 0000.0001)  ploadbar=  1.01163934416135E+05
 cg2d: Sum(rhs),rhsMax =  -6.42517343516016E+01  1.12544067445637E+00
(PID.TID 0000.0001)  ploadbar=  1.01163522678446E+05
 cg2d: Sum(rhs),rhsMax =  -6.45846896213065E+01  1.11999162243589E+00
(PID.TID 0000.0001)  ploadbar=  1.01163110940757E+05
 cg2d: Sum(rhs),rhsMax =  -6.49206269300503E+01  1.11456132411115E+00
(PID.TID 0000.0001)  ploadbar=  1.01162699203068E+05
 cg2d: Sum(rhs),rhsMax =  -6.52526289226929E+01  1.10926725109140E+00
(PID.TID 0000.0001)  ploadbar=  1.01162287465378E+05
 cg2d: Sum(rhs),rhsMax =  -6.55819247632460E+01  1.10408419018105E+00
(PID.TID 0000.0001)  ploadbar=  1.01161875727689E+05
 cg2d: Sum(rhs),rhsMax =  -6.59053276976356E+01  1.09906219771745E+00
(PID.TID 0000.0001)  ploadbar=  1.01161463990000E+05
 cg2d: Sum(rhs),rhsMax =  -6.61629434150983E+01  1.09516204492277E+00
(PID.TID 0000.0001)  ploadbar=  1.01161852158020E+05
 cg2d: Sum(rhs),rhsMax =  -6.63951335217399E+01  1.09169433262778E+00
(PID.TID 0000.0001)  ploadbar=  1.01162240326040E+05
 cg2d: Sum(rhs),rhsMax =  -6.66128320543957E+01  1.08847275151045E+00
(PID.TID 0000.0001)  ploadbar=  1.01162628494060E+05
 cg2d: Sum(rhs),rhsMax =  -6.68128057081397E+01  1.08554617738371E+00
(PID.TID 0000.0001)  ploadbar=  1.01163016662079E+05
 cg2d: Sum(rhs),rhsMax =  -6.69969497124087E+01  1.08287893908485E+00
(PID.TID 0000.0001)  ploadbar=  1.01163404830099E+05
 cg2d: Sum(rhs),rhsMax =  -6.71653529408645E+01  1.08046131682211E+00
(PID.TID 0000.0001)  ploadbar=  1.01163792998119E+05
 cg2d: Sum(rhs),rhsMax =  -6.73819330345722E+01  1.07734210770346E+00
(PID.TID 0000.0001)  ploadbar=  1.01164204793378E+05
 cg2d: Sum(rhs),rhsMax =  -6.75864416453431E+01  1.07448506794906E+00
(PID.TID 0000.0001)  ploadbar=  1.01164616588636E+05
 cg2d: Sum(rhs),rhsMax =  -6.77781862032529E+01  1.07189490284813E+00
(PID.TID 0000.0001)  ploadbar=  1.01165028383895E+05
 cg2d: Sum(rhs),rhsMax =  -6.78018397329007E+01  1.07201752439359E+00
(PID.TID 0000.0001)  ploadbar=  1.01165440179154E+05
 cg2d: Sum(rhs),rhsMax =  -6.77169836017973E+01  1.07390477102355E+00
(PID.TID 0000.0001)  ploadbar=  1.01165851974412E+05
 cg2d: Sum(rhs),rhsMax =  -6.76335218726114E+01  1.07581744141666E+00
(PID.TID 0000.0001)  ploadbar=  1.01166263769671E+05
 cg2d: Sum(rhs),rhsMax =  -6.76499029098034E+01  1.07613201388222E+00
(PID.TID 0000.0001)  ploadbar=  1.01165586578630E+05
 cg2d: Sum(rhs),rhsMax =  -6.76665828443842E+01  1.07643149173210E+00
(PID.TID 0000.0001)  ploadbar=  1.01164909387590E+05
 cg2d: Sum(rhs),rhsMax =  -6.76775624656133E+01  1.07681401828306E+00
(PID.TID 0000.0001)  ploadbar=  1.01164232196549E+05
 cg2d: Sum(rhs),rhsMax =  -6.76872767153818E+01  1.07721011520673E+00
(PID.TID 0000.0001)  ploadbar=  1.01163555005509E+05
 cg2d: Sum(rhs),rhsMax =  -6.76952156443542E+01  1.07763139443701E+00
(PID.TID 0000.0001)  ploadbar=  1.01162877814468E+05
 cg2d: Sum(rhs),rhsMax =  -6.76997327435777E+01  1.07810266517068E+00
(PID.TID 0000.0001)  ploadbar=  1.01162200623428E+05
 cg2d: Sum(rhs),rhsMax =  -6.76431584697837E+01  1.07954704515255E+00
(PID.TID 0000.0001)  ploadbar=  1.01164084759865E+05
 cg2d: Sum(rhs),rhsMax =  -6.75880101984652E+01  1.08096445105052E+00
(PID.TID 0000.0001)  ploadbar=  1.01165968896302E+05
 cg2d: Sum(rhs),rhsMax =  -6.75336968485576E+01  1.08236280442556E+00
(PID.TID 0000.0001)  ploadbar=  1.01167853032739E+05
 cg2d: Sum(rhs),rhsMax =  -6.74764339640146E+01  1.08380345690654E+00
(PID.TID 0000.0001)  ploadbar=  1.01169737169176E+05
 cg2d: Sum(rhs),rhsMax =  -6.74184167460587E+01  1.08525231103324E+00
(PID.TID 0000.0001)  ploadbar=  1.01171621305613E+05
 cg2d: Sum(rhs),rhsMax =  -6.73709113476676E+01  1.08652726855121E+00
(PID.TID 0000.0001)  ploadbar=  1.01173505442049E+05
 cg2d: Sum(rhs),rhsMax =  -6.72480919129022E+01  1.08894506524068E+00
(PID.TID 0000.0001)  ploadbar=  1.01173393311036E+05
 cg2d: Sum(rhs),rhsMax =  -6.71880835894450E+01  1.09027394806145E+00
(PID.TID 0000.0001)  ploadbar=  1.01173281180023E+05
 cg2d: Sum(rhs),rhsMax =  -6.71248791667834E+01  1.09158083454608E+00
(PID.TID 0000.0001)  ploadbar=  1.01173169049010E+05
 cg2d: Sum(rhs),rhsMax =  -6.70599211647429E+01  1.09284466528480E+00
(PID.TID 0000.0001)  ploadbar=  1.01173056917997E+05
 cg2d: Sum(rhs),rhsMax =  -6.69923477733685E+01  1.09408421246459E+00
(PID.TID 0000.0001)  ploadbar=  1.01172944786984E+05
 cg2d: Sum(rhs),rhsMax =  -6.69231543065240E+01  1.09528739471813E+00
(PID.TID 0000.0001)  ploadbar=  1.01172832655971E+05
 cg2d: Sum(rhs),rhsMax =  -6.69265955867714E+01  1.09536719177080E+00
(PID.TID 0000.0001)  ploadbar=  1.01171310163931E+05
 cg2d: Sum(rhs),rhsMax =  -6.69338063683945E+01  1.09543954557620E+00
(PID.TID 0000.0001)  ploadbar=  1.01169787671892E+05
 cg2d: Sum(rhs),rhsMax =  -6.69469313537456E+01  1.09546677802527E+00
(PID.TID 0000.0001)  ploadbar=  1.01168265179853E+05
 cg2d: Sum(rhs),rhsMax =  -6.69647215809278E+01  1.09546992893458E+00
(PID.TID 0000.0001)  ploadbar=  1.01166742687813E+05
 cg2d: Sum(rhs),rhsMax =  -6.69856476681259E+01  1.09547412143037E+00
(PID.TID 0000.0001)  ploadbar=  1.01165220195774E+05
 cg2d: Sum(rhs),rhsMax =  -6.70099078141376E+01  1.09547596311653E+00
(PID.TID 0000.0001)  ploadbar=  1.01163697703735E+05
 cg2d: Sum(rhs),rhsMax =  -6.69319754343543E+01  1.09713117192296E+00
(PID.TID 0000.0001)  ploadbar=  1.01163175687182E+05
 cg2d: Sum(rhs),rhsMax =  -6.68505867259673E+01  1.09882956500661E+00
(PID.TID 0000.0001)  ploadbar=  1.01162653670629E+05
 cg2d: Sum(rhs),rhsMax =  -6.67744115697941E+01  1.10043207902837E+00
(PID.TID 0000.0001)  ploadbar=  1.01162131654076E+05
 cg2d: Sum(rhs),rhsMax =  -6.66989500387414E+01  1.10201439894218E+00
(PID.TID 0000.0001)  ploadbar=  1.01161609637523E+05
 cg2d: Sum(rhs),rhsMax =  -6.66261895349342E+01  1.10354577664483E+00
(PID.TID 0000.0001)  ploadbar=  1.01161087620971E+05
 cg2d: Sum(rhs),rhsMax =  -6.64118623870512E+01  1.10742804980499E+00
(PID.TID 0000.0001)  ploadbar=  1.01160565604418E+05
 cg2d: Sum(rhs),rhsMax =  -6.53633082389824E+01  1.12551861973718E+00
(PID.TID 0000.0001)  ploadbar=  1.01160688590245E+05
 cg2d: Sum(rhs),rhsMax =  -6.45841585235282E+01  1.13941891509671E+00
(PID.TID 0000.0001)  ploadbar=  1.01160811576073E+05
 cg2d: Sum(rhs),rhsMax =  -6.40796882458052E+01  1.14870713045398E+00
(PID.TID 0000.0001)  ploadbar=  1.01160934561900E+05
 cg2d: Sum(rhs),rhsMax =  -6.38206379934173E+01  1.15368221763560E+00
(PID.TID 0000.0001)  ploadbar=  1.01161057547728E+05
 cg2d: Sum(rhs),rhsMax =  -6.37690830390195E+01  1.15492044996372E+00
(PID.TID 0000.0001)  ploadbar=  1.01161180533556E+05
 cg2d: Sum(rhs),rhsMax =  -6.38864087025391E+01  1.15309708276647E+00
(PID.TID 0000.0001)  ploadbar=  1.01161303519383E+05
 cg2d: Sum(rhs),rhsMax =  -6.41595785240158E+01  1.14844965349436E+00
(PID.TID 0000.0001)  ploadbar=  1.01160695258641E+05
 cg2d: Sum(rhs),rhsMax =  -6.44864124535050E+01  1.14285459958022E+00
(PID.TID 0000.0001)  ploadbar=  1.01160086997898E+05
 cg2d: Sum(rhs),rhsMax =  -6.48760975373446E+01  1.13617954043418E+00
(PID.TID 0000.0001)  ploadbar=  1.01159478737156E+05
 cg2d: Sum(rhs),rhsMax =  -6.53190277484170E+01  1.12862909163046E+00
(PID.TID 0000.0001)  ploadbar=  1.01158870476413E+05
 cg2d: Sum(rhs),rhsMax =  -6.54363676199236E+01  1.12672819788755E+00
(PID.TID 0000.0001)  ploadbar=  1.01158262215671E+05
 cg2d: Sum(rhs),rhsMax =  -6.53490115599350E+01  1.12833698762776E+00
(PID.TID 0000.0001)  ploadbar=  1.01157653954929E+05
 cg2d: Sum(rhs),rhsMax =  -6.52998903477304E+01  1.12934311031138E+00
(PID.TID 0000.0001)  ploadbar=  1.01157574998183E+05
 cg2d: Sum(rhs),rhsMax =  -6.52503390980478E+01  1.13040442099060E+00
(PID.TID 0000.0001)  ploadbar=  1.01157496041436E+05
 cg2d: Sum(rhs),rhsMax =  -6.52008471379007E+01  1.13151185635130E+00
(PID.TID 0000.0001)  ploadbar=  1.01157417084690E+05
 cg2d: Sum(rhs),rhsMax =  -6.51550657013189E+01  1.13260164867931E+00
(PID.TID 0000.0001)  ploadbar=  1.01157338127944E+05
 cg2d: Sum(rhs),rhsMax =  -6.51121154264759E+01  1.13368910320672E+00
(PID.TID 0000.0001)  ploadbar=  1.01157259171198E+05
 cg2d: Sum(rhs),rhsMax =  -6.50726350069550E+01  1.13476435587918E+00
(PID.TID 0000.0001)  ploadbar=  1.01157180214452E+05
 cg2d: Sum(rhs),rhsMax =  -6.50396269505378E+01  1.13571614738030E+00
(PID.TID 0000.0001)  ploadbar=  1.01156524695254E+05
 cg2d: Sum(rhs),rhsMax =  -6.50104042645672E+01  1.13659217284356E+00
(PID.TID 0000.0001)  ploadbar=  1.01155869176056E+05
 cg2d: Sum(rhs),rhsMax =  -6.49869122669642E+01  1.13736124108364E+00
(PID.TID 0000.0001)  ploadbar=  1.01155213656858E+05
 cg2d: Sum(rhs),rhsMax =  -6.49667204323937E+01  1.13806570771397E+00
(PID.TID 0000.0001)  ploadbar=  1.01154558137660E+05
 cg2d: Sum(rhs),rhsMax =  -6.49502223446759E+01  1.13870118439128E+00
(PID.TID 0000.0001)  ploadbar=  1.01153902618462E+05
 cg2d: Sum(rhs),rhsMax =  -6.49374292802189E+01  1.13927107866784E+00
(PID.TID 0000.0001)  ploadbar=  1.01153247099264E+05
 cg2d: Sum(rhs),rhsMax =  -6.49182645140866E+01  1.13998150920094E+00
(PID.TID 0000.0001)  ploadbar=  1.01153499378328E+05
 cg2d: Sum(rhs),rhsMax =  -6.49035647833071E+01  1.14063482702018E+00
(PID.TID 0000.0001)  ploadbar=  1.01153751657392E+05
 cg2d: Sum(rhs),rhsMax =  -6.48907140006495E+01  1.14127602182435E+00
(PID.TID 0000.0001)  ploadbar=  1.01154003936456E+05
 cg2d: Sum(rhs),rhsMax =  -6.48816035077551E+01  1.14187141414678E+00
(PID.TID 0000.0001)  ploadbar=  1.01154256215520E+05
 cg2d: Sum(rhs),rhsMax =  -6.48774545010887E+01  1.14239762856851E+00
(PID.TID 0000.0001)  ploadbar=  1.01154508494584E+05
 cg2d: Sum(rhs),rhsMax =  -6.48787109891159E+01  1.14284702576700E+00
(PID.TID 0000.0001)  ploadbar=  1.01154760773647E+05
 cg2d: Sum(rhs),rhsMax =  -6.49252428342643E+01  1.14244948666678E+00
(PID.TID 0000.0001)  ploadbar=  1.01154460225129E+05
 cg2d: Sum(rhs),rhsMax =  -6.49769280358668E+01  1.14191104456914E+00
(PID.TID 0000.0001)  ploadbar=  1.01154159676610E+05
 cg2d: Sum(rhs),rhsMax =  -6.50229815436624E+01  1.14142003541283E+00
(PID.TID 0000.0001)  ploadbar=  1.01153859128091E+05
 cg2d: Sum(rhs),rhsMax =  -6.50676676818269E+01  1.14090360959507E+00
(PID.TID 0000.0001)  ploadbar=  1.01153558579572E+05
 cg2d: Sum(rhs),rhsMax =  -6.51097753055484E+01  1.14038866987995E+00
(PID.TID 0000.0001)  ploadbar=  1.01153258031054E+05
 cg2d: Sum(rhs),rhsMax =  -6.51486085292172E+01  1.13989113888460E+00
(PID.TID 0000.0001)  ploadbar=  1.01152957482535E+05
 cg2d: Sum(rhs),rhsMax =  -6.51696407851061E+01  1.13976032617345E+00
(PID.TID 0000.0001)  ploadbar=  1.01153334510533E+05
 cg2d: Sum(rhs),rhsMax =  -6.52003199460564E+01  1.13951096293167E+00
(PID.TID 0000.0001)  ploadbar=  1.01153711538532E+05
 cg2d: Sum(rhs),rhsMax =  -6.52275113095938E+01  1.13937105615288E+00
(PID.TID 0000.0001)  ploadbar=  1.01154088566530E+05
 cg2d: Sum(rhs),rhsMax =  -6.52552341211602E+01  1.13926981156289E+00
(PID.TID 0000.0001)  ploadbar=  1.01154465594529E+05
 cg2d: Sum(rhs),rhsMax =  -6.52873394679769E+01  1.13913970010328E+00
(PID.TID 0000.0001)  ploadbar=  1.01154842622527E+05
 cg2d: Sum(rhs),rhsMax =  -6.53245999683817E+01  1.13896743416161E+00
(PID.TID 0000.0001)  ploadbar=  1.01155219650526E+05
 cg2d: Sum(rhs),rhsMax =  -6.53741953285950E+01  1.13855111467487E+00
(PID.TID 0000.0001)  ploadbar=  1.01155943507714E+05
 cg2d: Sum(rhs),rhsMax =  -6.54253119965231E+01  1.13808154314341E+00
(PID.TID 0000.0001)  ploadbar=  1.01156667364902E+05
 cg2d: Sum(rhs),rhsMax =  -6.54784444513556E+01  1.13755267535147E+00
(PID.TID 0000.0001)  ploadbar=  1.01157391222090E+05
 cg2d: Sum(rhs),rhsMax =  -6.55324229001493E+01  1.13698651619642E+00
(PID.TID 0000.0001)  ploadbar=  1.01158115079278E+05
 cg2d: Sum(rhs),rhsMax =  -6.55871741602829E+01  1.13638612361343E+00
(PID.TID 0000.0001)  ploadbar=  1.01158838936466E+05
 cg2d: Sum(rhs),rhsMax =  -6.56429454091724E+01  1.13574728257697E+00
(PID.TID 0000.0001)  ploadbar=  1.01159562793654E+05
 cg2d: Sum(rhs),rhsMax =  -6.56827223065077E+01  1.13542172506192E+00
(PID.TID 0000.0001)  ploadbar=  1.01159096612119E+05
 cg2d: Sum(rhs),rhsMax =  -6.57267226623340E+01  1.13505152860085E+00
(PID.TID 0000.0001)  ploadbar=  1.01158630430583E+05
 cg2d: Sum(rhs),rhsMax =  -6.57647029382112E+01  1.13481105242768E+00
(PID.TID 0000.0001)  ploadbar=  1.01158164249047E+05
 cg2d: Sum(rhs),rhsMax =  -6.57997410974778E+01  1.13464525886672E+00
(PID.TID 0000.0001)  ploadbar=  1.01157698067512E+05
 cg2d: Sum(rhs),rhsMax =  -6.56015664525390E+01  1.13853501160310E+00
(PID.TID 0000.0001)  ploadbar=  1.01157231885976E+05
 cg2d: Sum(rhs),rhsMax =  -6.53449723848352E+01  1.14348996153106E+00
(PID.TID 0000.0001)  ploadbar=  1.01156765704440E+05
 cg2d: Sum(rhs),rhsMax =  -6.51141619490790E+01  1.14797414594344E+00
(PID.TID 0000.0001)  ploadbar=  1.01156863320821E+05
 cg2d: Sum(rhs),rhsMax =  -6.49300632437932E+01  1.15160522165032E+00
(PID.TID 0000.0001)  ploadbar=  1.01156960937203E+05
 cg2d: Sum(rhs),rhsMax =  -6.47930440704219E+01  1.15436433244324E+00
(PID.TID 0000.0001)  ploadbar=  1.01157058553584E+05
 cg2d: Sum(rhs),rhsMax =  -6.47089497798975E+01  1.15613635602429E+00
(PID.TID 0000.0001)  ploadbar=  1.01157156169965E+05
 cg2d: Sum(rhs),rhsMax =  -6.46718037466954E+01  1.15702296613936E+00
(PID.TID 0000.0001)  ploadbar=  1.01157253786346E+05
 cg2d: Sum(rhs),rhsMax =  -6.46771770724185E+01  1.15710320596401E+00
(PID.TID 0000.0001)  ploadbar=  1.01157351402727E+05
 cg2d: Sum(rhs),rhsMax =  -6.47413433866322E+01  1.15615982156688E+00
(PID.TID 0000.0001)  ploadbar=  1.01157277045410E+05
 cg2d: Sum(rhs),rhsMax =  -6.48605614745014E+01  1.15426211304353E+00
(PID.TID 0000.0001)  ploadbar=  1.01157202688093E+05
 cg2d: Sum(rhs),rhsMax =  -6.50371529370592E+01  1.15138021732900E+00
(PID.TID 0000.0001)  ploadbar=  1.01157128330776E+05
 cg2d: Sum(rhs),rhsMax =  -6.52708519000172E+01  1.14753375625471E+00
(PID.TID 0000.0001)  ploadbar=  1.01157053973459E+05
 cg2d: Sum(rhs),rhsMax =  -6.55566228674664E+01  1.14283266845608E+00
(PID.TID 0000.0001)  ploadbar=  1.01156979616142E+05
 cg2d: Sum(rhs),rhsMax =  -6.57497192713741E+01  1.13980508511694E+00
(PID.TID 0000.0001)  ploadbar=  1.01156905258825E+05
 cg2d: Sum(rhs),rhsMax =  -6.57302751260825E+01  1.14043242139045E+00
(PID.TID 0000.0001)  ploadbar=  1.01156662755822E+05
 cg2d: Sum(rhs),rhsMax =  -6.57049636829851E+01  1.14112313509017E+00
(PID.TID 0000.0001)  ploadbar=  1.01156420252818E+05
 cg2d: Sum(rhs),rhsMax =  -6.56857150708916E+01  1.14167279110894E+00
(PID.TID 0000.0001)  ploadbar=  1.01156177749815E+05
 cg2d: Sum(rhs),rhsMax =  -6.56695631633227E+01  1.14214070522435E+00
(PID.TID 0000.0001)  ploadbar=  1.01155935246811E+05
 cg2d: Sum(rhs),rhsMax =  -6.56557444543990E+01  1.14254327993653E+00
(PID.TID 0000.0001)  ploadbar=  1.01155692743807E+05
 cg2d: Sum(rhs),rhsMax =  -6.56454276200785E+01  1.14285872171182E+00
(PID.TID 0000.0001)  ploadbar=  1.01155450240804E+05
 cg2d: Sum(rhs),rhsMax =  -6.56390847102168E+01  1.14311045796270E+00
(PID.TID 0000.0001)  ploadbar=  1.01155554108176E+05
 cg2d: Sum(rhs),rhsMax =  -6.56318437668130E+01  1.14337597773580E+00
(PID.TID 0000.0001)  ploadbar=  1.01155657975549E+05
 cg2d: Sum(rhs),rhsMax =  -6.56301625707443E+01  1.14354062568460E+00
(PID.TID 0000.0001)  ploadbar=  1.01155761842922E+05
 cg2d: Sum(rhs),rhsMax =  -6.56288337340420E+01  1.14369361753157E+00
(PID.TID 0000.0001)  ploadbar=  1.01155865710294E+05
 cg2d: Sum(rhs),rhsMax =  -6.56265915424670E+01  1.14385727141509E+00
(PID.TID 0000.0001)  ploadbar=  1.01155969577667E+05
 cg2d: Sum(rhs),rhsMax =  -6.56267662994727E+01  1.14397231215930E+00
(PID.TID 0000.0001)  ploadbar=  1.01156073445039E+05
 cg2d: Sum(rhs),rhsMax =  -6.56581895175963E+01  1.14350690673505E+00
(PID.TID 0000.0001)  ploadbar=  1.01154966788462E+05
 cg2d: Sum(rhs),rhsMax =  -6.56932947390637E+01  1.14294104371086E+00
(PID.TID 0000.0001)  ploadbar=  1.01153860131885E+05
 cg2d: Sum(rhs),rhsMax =  -6.57333468995474E+01  1.14225216367800E+00
(PID.TID 0000.0001)  ploadbar=  1.01152753475308E+05
 cg2d: Sum(rhs),rhsMax =  -6.57744346403768E+01  1.14150694841968E+00
(PID.TID 0000.0001)  ploadbar=  1.01151646818731E+05
 cg2d: Sum(rhs),rhsMax =  -6.58126468838544E+01  1.14077834027833E+00
(PID.TID 0000.0001)  ploadbar=  1.01150540162154E+05
 cg2d: Sum(rhs),rhsMax =  -6.58458316235467E+01  1.14010724987665E+00
(PID.TID 0000.0001)  ploadbar=  1.01149433505577E+05
 cg2d: Sum(rhs),rhsMax =  -6.58769305266697E+01  1.13955375965865E+00
(PID.TID 0000.0001)  ploadbar=  1.01147846206732E+05
 cg2d: Sum(rhs),rhsMax =  -6.59115933019042E+01  1.13901530152596E+00
(PID.TID 0000.0001)  ploadbar=  1.01146258907886E+05
 cg2d: Sum(rhs),rhsMax =  -6.59467638012715E+01  1.13854408026478E+00
(PID.TID 0000.0001)  ploadbar=  1.01144671609040E+05
 cg2d: Sum(rhs),rhsMax =  -6.59809518689672E+01  1.13816569414532E+00
(PID.TID 0000.0001)  ploadbar=  1.01143084310195E+05
 cg2d: Sum(rhs),rhsMax =  -6.60140066294743E+01  1.13788245376115E+00
(PID.TID 0000.0001)  ploadbar=  1.01141497011349E+05
 cg2d: Sum(rhs),rhsMax =  -6.60463139201517E+01  1.13768754123638E+00
(PID.TID 0000.0001)  ploadbar=  1.01139909712504E+05
 cg2d: Sum(rhs),rhsMax =  -6.60868195656000E+01  1.13736040022918E+00
(PID.TID 0000.0001)  ploadbar=  1.01138328414534E+05
 cg2d: Sum(rhs),rhsMax =  -6.61294502544762E+01  1.13700298012610E+00
(PID.TID 0000.0001)      cg2d_init_res =   3.08608041693208E-01
(PID.TID 0000.0001)      cg2d_iters(min,last) =      -1     149
(PID.TID 0000.0001)      cg2d_last_res =   9.80081737242632E-08
(PID.TID 0000.0001) // =======================================================
(PID.TID 0000.0001) // Begin MONITOR dynamic field statistics
(PID.TID 0000.0001) // =======================================================
(PID.TID 0000.0001) %MON time_tsnumber                =                 12264
(PID.TID 0000.0001) %MON time_secondsf                =   4.4150400000000E+07
(PID.TID 0000.0001) %MON dynstat_eta_max              =   1.1592418913691E+00
(PID.TID 0000.0001) %MON dynstat_eta_min              =  -5.9675255953140E+00
(PID.TID 0000.0001) %MON dynstat_eta_mean             =   3.8055684672605E-02
(PID.TID 0000.0001) %MON dynstat_eta_sd               =   7.9253361340795E-01
(PID.TID 0000.0001) %MON dynstat_eta_del2             =   2.6124891262375E-04
(PID.TID 0000.0001) %MON dynstat_uvel_max             =   7.9530170399777E-01
(PID.TID 0000.0001) %MON dynstat_uvel_min             =  -9.4639756233182E-01
(PID.TID 0000.0001) %MON dynstat_uvel_mean            =   1.4477360142381E-03
(PID.TID 0000.0001) %MON dynstat_uvel_sd              =   2.0658855884350E-02
(PID.TID 0000.0001) %MON dynstat_uvel_del2            =   8.3877770566638E-06
(PID.TID 0000.0001) %MON dynstat_vvel_max             =   8.6080533805985E-01
(PID.TID 0000.0001) %MON dynstat_vvel_min             =  -9.9107460145339E-01
(PID.TID 0000.0001) %MON dynstat_vvel_mean            =   1.1511758358428E-03
(PID.TID 0000.0001) %MON dynstat_vvel_sd              =   2.1051817809562E-02
(PID.TID 0000.0001) %MON dynstat_vvel_del2            =   8.7425983751959E-06
(PID.TID 0000.0001) %MON dynstat_wvel_max             =   9.9034819744488E-04
(PID.TID 0000.0001) %MON dynstat_wvel_min             =  -8.5201813832528E-04
(PID.TID 0000.0001) %MON dynstat_wvel_mean            =  -2.6714488357375E-09
(PID.TID 0000.0001) %MON dynstat_wvel_sd              =   1.9264855641856E-05
(PID.TID 0000.0001) %MON dynstat_wvel_del2            =   1.5463984078370E-08
(PID.TID 0000.0001) %MON dynstat_theta_max            =   3.1954680820231E+01
(PID.TID 0000.0001) %MON dynstat_theta_min            =  -1.9824560059663E+00
(PID.TID 0000.0001) %MON dynstat_theta_mean           =   3.5851198323272E+00
(PID.TID 0000.0001) %MON dynstat_theta_sd             =   4.4406446313954E+00
(PID.TID 0000.0001) %MON dynstat_theta_del2           =   8.6983946247145E-05
(PID.TID 0000.0001) %MON dynstat_salt_max             =   4.0647919875782E+01
(PID.TID 0000.0001) %MON dynstat_salt_min             =   2.1799325432558E+01
(PID.TID 0000.0001) %MON dynstat_salt_mean            =   3.4727271457758E+01
(PID.TID 0000.0001) %MON dynstat_salt_sd              =   3.7557631924987E-01
(PID.TID 0000.0001) %MON dynstat_salt_del2            =   1.8917305281973E-05
(PID.TID 0000.0001) %MON dynstat_sst_max              =   3.1954680820231E+01
(PID.TID 0000.0001) %MON dynstat_sst_min              =  -1.9607571602159E+00
(PID.TID 0000.0001) %MON dynstat_sst_mean             =   1.8210069110335E+01
(PID.TID 0000.0001) %MON dynstat_sst_sd               =   1.0430776363901E+01
(PID.TID 0000.0001) %MON dynstat_sst_del2             =   6.0814334528662E-04
(PID.TID 0000.0001) %MON dynstat_sss_max              =   3.9476238543785E+01
(PID.TID 0000.0001) %MON dynstat_sss_min              =   2.1799325432558E+01
(PID.TID 0000.0001) %MON dynstat_sss_mean             =   3.4755437012511E+01
(PID.TID 0000.0001) %MON dynstat_sss_sd               =   1.1611379750583E+00
(PID.TID 0000.0001) %MON dynstat_sss_del2             =   3.0157330105555E-04
(PID.TID 0000.0001) %MON forcing_qnet_max             =   8.9696681157353E+02
(PID.TID 0000.0001) %MON forcing_qnet_min             =  -5.6742085612221E+02
(PID.TID 0000.0001) %MON forcing_qnet_mean            =   4.2016987329909E+01
(PID.TID 0000.0001) %MON forcing_qnet_sd              =   1.6354103711887E+02
(PID.TID 0000.0001) %MON forcing_qnet_del2            =   8.8313751479264E-02
(PID.TID 0000.0001) %MON forcing_qsw_max              =   4.9634133928860E+01
(PID.TID 0000.0001) %MON forcing_qsw_min              =  -6.8962575688705E+02
(PID.TID 0000.0001) %MON forcing_qsw_mean             =  -1.1566117228471E+02
(PID.TID 0000.0001) %MON forcing_qsw_sd               =   1.4593800806393E+02
(PID.TID 0000.0001) %MON forcing_qsw_del2             =   5.4283746776582E-02
(PID.TID 0000.0001) %MON forcing_empmr_max            =   2.2855975083991E-03
(PID.TID 0000.0001) %MON forcing_empmr_min            =  -3.1695470010176E-03
(PID.TID 0000.0001) %MON forcing_empmr_mean           =  -3.5950950187255E-06
(PID.TID 0000.0001) %MON forcing_empmr_sd             =   9.8953345327655E-05
(PID.TID 0000.0001) %MON forcing_empmr_del2           =   2.6107244362940E-07
(PID.TID 0000.0001) %MON forcing_fu_max               =   1.2695122758547E+00
(PID.TID 0000.0001) %MON forcing_fu_min               =  -6.8735981980960E-01
(PID.TID 0000.0001) %MON forcing_fu_mean              =   6.3313706761554E-03
(PID.TID 0000.0001) %MON forcing_fu_sd                =   1.3384239932274E-01
(PID.TID 0000.0001) %MON forcing_fu_del2              =   6.2842726026137E-05
(PID.TID 0000.0001) %MON forcing_fv_max               =   7.0823139288647E-01
(PID.TID 0000.0001) %MON forcing_fv_min               =  -5.6532067060471E-01
(PID.TID 0000.0001) %MON forcing_fv_mean              =   2.5811612430006E-03
(PID.TID 0000.0001) %MON forcing_fv_sd                =   1.1176112123063E-01
(PID.TID 0000.0001) %MON forcing_fv_del2              =   6.0498501099848E-05
(PID.TID 0000.0001) %MON trAdv_CFL_u_max              =   5.5008461791979E-02
(PID.TID 0000.0001) %MON trAdv_CFL_v_max              =   6.0862791457370E-02
(PID.TID 0000.0001) %MON trAdv_CFL_w_max              =   1.2356364406131E-01
(PID.TID 0000.0001) %MON advcfl_uvel_max              =   4.7156959081013E-02
(PID.TID 0000.0001) %MON advcfl_vvel_max              =   6.3481326162663E-02
(PID.TID 0000.0001) %MON advcfl_wvel_max              =   1.0605544538026E-01
(PID.TID 0000.0001) %MON advcfl_W_hf_max              =   1.1120389995955E-01
(PID.TID 0000.0001) %MON pe_b_mean                    =   1.3338767812898E-03
(PID.TID 0000.0001) %MON ke_max                       =   5.3654497083589E-01
(PID.TID 0000.0001) %MON ke_mean                      =   4.2114135152139E-04
(PID.TID 0000.0001) %MON ke_vol                       =   1.3350114968989E+18
(PID.TID 0000.0001) %MON vort_r_min                   =  -2.3547755753642E-05
(PID.TID 0000.0001) %MON vort_r_max                   =   2.2458892435383E-05
(PID.TID 0000.0001) %MON vort_a_mean                  =  -1.9727864647440E-05
(PID.TID 0000.0001) %MON vort_a_sd                    =   7.4543083980087E-05
(PID.TID 0000.0001) %MON vort_p_mean                  =  -2.1760293884360E-05
(PID.TID 0000.0001) %MON vort_p_sd                    =   9.7248760220170E-05
(PID.TID 0000.0001) %MON surfExpan_theta_mean         =  -1.6242457350915E-07
(PID.TID 0000.0001) %MON surfExpan_salt_mean          =   3.3675357212404E-08
(PID.TID 0000.0001) // =======================================================
(PID.TID 0000.0001) // End MONITOR dynamic field statistics
(PID.TID 0000.0001) // =======================================================
(PID.TID 0000.0001)  ploadbar=  1.01136747116564E+05
(PID.TID 0000.0001) %SBO sbo_mass                     =   1.3737574969354E+21
(PID.TID 0000.0001) %SBO sbo_mass_fw                  =   4.4681564868360E+16
(PID.TID 0000.0001) %SBO sbo_zoamc                    =   1.1857149116378E+25
(PID.TID 0000.0001) %SBO sbo_zoamp                    =   2.9276657947412E+30
(PID.TID 0000.0001) // =======================================================
(PID.TID 0000.0001) // Begin MONITOR SEAICE statistics
(PID.TID 0000.0001) // =======================================================
(PID.TID 0000.0001) %MON seaice_tsnumber              =                 12264
(PID.TID 0000.0001) %MON seaice_time_sec              =   4.4150400000000E+07
(PID.TID 0000.0001) %MON seaice_uice_max              =   4.0000000000000E-01
(PID.TID 0000.0001) %MON seaice_uice_min              =  -4.0000000000000E-01
(PID.TID 0000.0001) %MON seaice_uice_mean             =  -5.6900259807746E-03
(PID.TID 0000.0001) %MON seaice_uice_sd               =   1.8120168760318E-01
(PID.TID 0000.0001) %MON seaice_uice_del2             =   1.4151839541815E-04
(PID.TID 0000.0001) %MON seaice_vice_max              =   4.0000000000000E-01
(PID.TID 0000.0001) %MON seaice_vice_min              =  -4.0000000000000E-01
(PID.TID 0000.0001) %MON seaice_vice_mean             =  -1.2240828552493E-02
(PID.TID 0000.0001) %MON seaice_vice_sd               =   1.8074320994453E-01
(PID.TID 0000.0001) %MON seaice_vice_del2             =   1.4315335542884E-04
(PID.TID 0000.0001) %MON seaice_area_max              =   9.7000000000000E-01
(PID.TID 0000.0001) %MON seaice_area_min              =   0.0000000000000E+00
(PID.TID 0000.0001) %MON seaice_area_mean             =   6.2610835110708E-02
(PID.TID 0000.0001) %MON seaice_area_sd               =   2.2929968108186E-01
(PID.TID 0000.0001) %MON seaice_area_del2             =   2.1167918148472E-04
(PID.TID 0000.0001) %MON seaice_heff_max              =   5.7973857309383E+00
(PID.TID 0000.0001) %MON seaice_heff_min              =   0.0000000000000E+00
(PID.TID 0000.0001) %MON seaice_heff_mean             =   8.9636660350865E-02
(PID.TID 0000.0001) %MON seaice_heff_sd               =   4.2272467620599E-01
(PID.TID 0000.0001) %MON seaice_heff_del2             =   2.7876921428033E-04
(PID.TID 0000.0001) %MON seaice_hsnow_max             =   1.2293985832651E+00
(PID.TID 0000.0001) %MON seaice_hsnow_min             =  -4.2936596262887E-05
(PID.TID 0000.0001) %MON seaice_hsnow_mean            =   1.2349538692927E-02
(PID.TID 0000.0001) %MON seaice_hsnow_sd              =   5.9725939207874E-02
(PID.TID 0000.0001) %MON seaice_hsnow_del2            =   5.1121105566051E-05
(PID.TID 0000.0001) // =======================================================
(PID.TID 0000.0001) // End MONITOR SEAICE statistics
(PID.TID 0000.0001) // =======================================================
(PID.TID 0000.0001) // =======================================================
(PID.TID 0000.0001) // Begin MONITOR EXF statistics
(PID.TID 0000.0001) // =======================================================
(PID.TID 0000.0001) %MON exf_tsnumber                 =                 12264
(PID.TID 0000.0001) %MON exf_time_sec                 =   4.4150400000000E+07
(PID.TID 0000.0001) %MON exf_ustress_max              =   1.2865241765976E+00
(PID.TID 0000.0001) %MON exf_ustress_min              =  -8.1635534763336E-01
(PID.TID 0000.0001) %MON exf_ustress_mean             =   5.9774967967754E-03
(PID.TID 0000.0001) %MON exf_ustress_sd               =   1.3468711429316E-01
(PID.TID 0000.0001) %MON exf_ustress_del2             =   8.0390285477207E-05
(PID.TID 0000.0001) %MON exf_vstress_max              =   9.0066087764781E-01
(PID.TID 0000.0001) %MON exf_vstress_min              =  -5.9247130155563E-01
(PID.TID 0000.0001) %MON exf_vstress_mean             =   2.5268524573670E-03
(PID.TID 0000.0001) %MON exf_vstress_sd               =   1.1121150225391E-01
(PID.TID 0000.0001) %MON exf_vstress_del2             =   7.5919952459886E-05
(PID.TID 0000.0001) %MON exf_hflux_max                =   1.2851450391651E+03
(PID.TID 0000.0001) %MON exf_hflux_min                =  -5.3385250306742E+02
(PID.TID 0000.0001) %MON exf_hflux_mean               =   4.3377360845472E+01
(PID.TID 0000.0001) %MON exf_hflux_sd                 =   1.8569061321905E+02
(PID.TID 0000.0001) %MON exf_hflux_del2               =   4.0606638306857E-01
(PID.TID 0000.0001) %MON exf_sflux_max                =   2.0645152997286E-07
(PID.TID 0000.0001) %MON exf_sflux_min                =  -3.1590253223437E-06
(PID.TID 0000.0001) %MON exf_sflux_mean               =  -2.6174472005905E-09
(PID.TID 0000.0001) %MON exf_sflux_sd                 =   8.7211529595496E-08
(PID.TID 0000.0001) %MON exf_sflux_del2               =   2.1883436235453E-10
(PID.TID 0000.0001) %MON exf_wspeed_max               =   2.1071719169617E+01
(PID.TID 0000.0001) %MON exf_wspeed_min               =   5.4447671771049E-01
(PID.TID 0000.0001) %MON exf_wspeed_mean              =   7.3060564547231E+00
(PID.TID 0000.0001) %MON exf_wspeed_sd                =   3.2609362541269E+00
(PID.TID 0000.0001) %MON exf_wspeed_del2              =   1.5201976861154E-02
(PID.TID 0000.0001) %MON exf_atemp_max                =   3.1236984863281E+02
(PID.TID 0000.0001) %MON exf_atemp_min                =   2.2243785896301E+02
(PID.TID 0000.0001) %MON exf_atemp_mean               =   2.8988432183719E+02
(PID.TID 0000.0001) %MON exf_atemp_sd                 =   1.1282403598058E+01
(PID.TID 0000.0001) %MON exf_atemp_del2               =   3.0624029886952E-02
(PID.TID 0000.0001) %MON exf_aqh_max                  =   2.5599951855838E-02
(PID.TID 0000.0001) %MON exf_aqh_min                  =  -8.1001237504097E-06
(PID.TID 0000.0001) %MON exf_aqh_mean                 =   1.1203668068331E-02
(PID.TID 0000.0001) %MON exf_aqh_sd                   =   5.7744294866076E-03
(PID.TID 0000.0001) %MON exf_aqh_del2                 =   1.8498919622576E-05
(PID.TID 0000.0001) %MON exf_lwflux_max               =   2.2107701949424E+02
(PID.TID 0000.0001) %MON exf_lwflux_min               =  -5.0174697976478E+01
(PID.TID 0000.0001) %MON exf_lwflux_mean              =   4.3381502028345E+01
(PID.TID 0000.0001) %MON exf_lwflux_sd                =   2.4858729730538E+01
(PID.TID 0000.0001) %MON exf_lwflux_del2              =   9.6882292933200E-02
(PID.TID 0000.0001) %MON exf_evap_max                 =   2.7231874801519E-07
(PID.TID 0000.0001) %MON exf_evap_min                 =  -2.2073271897446E-08
(PID.TID 0000.0001) %MON exf_evap_mean                =   4.2401918484856E-08
(PID.TID 0000.0001) %MON exf_evap_sd                  =   2.9503445563795E-08
(PID.TID 0000.0001) %MON exf_evap_del2                =   8.3211680908779E-11
(PID.TID 0000.0001) %MON exf_precip_max               =   1.5121862020351E-06
(PID.TID 0000.0001) %MON exf_precip_min               =  -2.6223814231230E-08
(PID.TID 0000.0001) %MON exf_precip_mean              =   4.0368094811504E-08
(PID.TID 0000.0001) %MON exf_precip_sd                =   7.0632203047813E-08
(PID.TID 0000.0001) %MON exf_precip_del2              =   1.8662557998638E-10
(PID.TID 0000.0001) %MON exf_swflux_max               =   5.2556553562368E+01
(PID.TID 0000.0001) %MON exf_swflux_min               =  -6.2813253172984E+02
(PID.TID 0000.0001) %MON exf_swflux_mean              =  -1.2635579363569E+02
(PID.TID 0000.0001) %MON exf_swflux_sd                =   1.4801263704396E+02
(PID.TID 0000.0001) %MON exf_swflux_del2              =   3.2419134697279E-01
(PID.TID 0000.0001) %MON exf_swdown_max               =   6.7794329833984E+02
(PID.TID 0000.0001) %MON exf_swdown_min               =  -6.6663272857666E+01
(PID.TID 0000.0001) %MON exf_swdown_mean              =   1.3737213459820E+02
(PID.TID 0000.0001) %MON exf_swdown_sd                =   1.6009932505260E+02
(PID.TID 0000.0001) %MON exf_swdown_del2              =   3.5296426431278E-01
(PID.TID 0000.0001) %MON exf_lwdown_max               =   4.7118644714355E+02
(PID.TID 0000.0001) %MON exf_lwdown_min               =   7.9124198913574E+01
(PID.TID 0000.0001) %MON exf_lwdown_mean              =   3.6697663210888E+02
(PID.TID 0000.0001) %MON exf_lwdown_sd                =   5.8464628006844E+01
(PID.TID 0000.0001) %MON exf_lwdown_del2              =   6.0931919261819E-01
(PID.TID 0000.0001) %MON exf_apressure_max            =   1.0354763671875E+05
(PID.TID 0000.0001) %MON exf_apressure_min            =   9.4401535156250E+04
(PID.TID 0000.0001) %MON exf_apressure_mean           =   1.0113516581859E+05
(PID.TID 0000.0001) %MON exf_apressure_sd             =   1.1485221914056E+03
(PID.TID 0000.0001) %MON exf_apressure_del2           =   1.7861942968434E+02
(PID.TID 0000.0001) %MON exf_runoff_max               =   3.1856565641885E-06
(PID.TID 0000.0001) %MON exf_runoff_min               =   0.0000000000000E+00
(PID.TID 0000.0001) %MON exf_runoff_mean              =   4.6512708739432E-09
(PID.TID 0000.0001) %MON exf_runoff_sd                =   4.0722969529259E-08
(PID.TID 0000.0001) %MON exf_runoff_del2              =   1.1720562990364E-10
(PID.TID 0000.0001) // =======================================================
(PID.TID 0000.0001) // End MONITOR EXF statistics
(PID.TID 0000.0001) // =======================================================
 cg2d: Sum(rhs),rhsMax =  -6.61691262607008E+01  1.13670675647172E+00
(PID.TID 0000.0001)  ploadbar=  1.01135165818595E+05
 cg2d: Sum(rhs),rhsMax =  -6.62081356147967E+01  1.13643401411241E+00
(PID.TID 0000.0001)  ploadbar=  1.01133584520625E+05
 cg2d: Sum(rhs),rhsMax =  -6.62473359773631E+01  1.13617165647912E+00
(PID.TID 0000.0001)  ploadbar=  1.01132003222655E+05
 cg2d: Sum(rhs),rhsMax =  -6.62878105887181E+01  1.13590119403445E+00
(PID.TID 0000.0001)  ploadbar=  1.01130421924686E+05
 cg2d: Sum(rhs),rhsMax =  -6.62577443067425E+01  1.13685335273797E+00
(PID.TID 0000.0001)  ploadbar=  1.01127996405599E+05
 cg2d: Sum(rhs),rhsMax =  -6.62330595093586E+01  1.13771964981278E+00
(PID.TID 0000.0001)  ploadbar=  1.01125570886512E+05
 cg2d: Sum(rhs),rhsMax =  -6.62072094536711E+01  1.13861155814020E+00
(PID.TID 0000.0001)  ploadbar=  1.01123145367425E+05
 cg2d: Sum(rhs),rhsMax =  -6.61828156639956E+01  1.13948175367897E+00
(PID.TID 0000.0001)  ploadbar=  1.01120719848338E+05
 cg2d: Sum(rhs),rhsMax =  -6.61623630167673E+01  1.14028647552652E+00
(PID.TID 0000.0001)  ploadbar=  1.01118294329252E+05
 cg2d: Sum(rhs),rhsMax =  -6.61438568312731E+01  1.14105755751917E+00
(PID.TID 0000.0001)  ploadbar=  1.01115868810165E+05
 cg2d: Sum(rhs),rhsMax =  -6.61116725112511E+01  1.14202168459972E+00
(PID.TID 0000.0001)  ploadbar=  1.01113846276836E+05
 cg2d: Sum(rhs),rhsMax =  -6.60736716693305E+01  1.14304225011571E+00
(PID.TID 0000.0001)  ploadbar=  1.01111823743507E+05
 cg2d: Sum(rhs),rhsMax =  -6.60302306421778E+01  1.14411266115197E+00
(PID.TID 0000.0001)  ploadbar=  1.01109801210178E+05
 cg2d: Sum(rhs),rhsMax =  -6.59815076963086E+01  1.14523035679833E+00
(PID.TID 0000.0001)  ploadbar=  1.01107778676849E+05
 cg2d: Sum(rhs),rhsMax =  -6.59277020652373E+01  1.14639770592926E+00
(PID.TID 0000.0001)  ploadbar=  1.01105756143521E+05
 cg2d: Sum(rhs),rhsMax =  -6.01212926236870E+01  1.25733017635994E+00
(PID.TID 0000.0001)  ploadbar=  1.01103733610192E+05
 cg2d: Sum(rhs),rhsMax =  -5.34597045207943E+01  1.41434009570149E+00
(PID.TID 0000.0001)  ploadbar=  1.01101930753521E+05
 cg2d: Sum(rhs),rhsMax =  -4.75273653810645E+01  1.59135166788685E+00
(PID.TID 0000.0001)  ploadbar=  1.01100127896850E+05
 cg2d: Sum(rhs),rhsMax =  -4.37106127256529E+01  1.73092707289133E+00
(PID.TID 0000.0001)  ploadbar=  1.01098325040179E+05
 cg2d: Sum(rhs),rhsMax =  -4.07297469570846E+01  1.85838646669376E+00
(PID.TID 0000.0001)  ploadbar=  1.01096522183508E+05
 cg2d: Sum(rhs),rhsMax =  -3.83152210794292E+01  1.97644647241550E+00
(PID.TID 0000.0001)  ploadbar=  1.01094719326837E+05
 cg2d: Sum(rhs),rhsMax =  -3.63546194687935E+01  2.08416493645821E+00
(PID.TID 0000.0001)  ploadbar=  1.01092916470166E+05
 cg2d: Sum(rhs),rhsMax =  -3.47928112104593E+01  2.17888556829400E+00
(PID.TID 0000.0001)  ploadbar=  1.01092494637980E+05
 cg2d: Sum(rhs),rhsMax =  -3.34868875617818E+01  2.26504683572952E+00
(PID.TID 0000.0001)  ploadbar=  1.01092072805793E+05
 cg2d: Sum(rhs),rhsMax =  -3.24378164110878E+01  2.33951199763664E+00
(PID.TID 0000.0001)  ploadbar=  1.01091650973606E+05
 cg2d: Sum(rhs),rhsMax =  -3.15975723423927E+01  2.40296336774053E+00
(PID.TID 0000.0001)  ploadbar=  1.01091229141420E+05
 cg2d: Sum(rhs),rhsMax =  -3.09372277692049E+01  2.45551782596609E+00
(PID.TID 0000.0001)  ploadbar=  1.01090807309233E+05
 cg2d: Sum(rhs),rhsMax =  -3.04338828200213E+01  2.49740880063003E+00
(PID.TID 0000.0001)  ploadbar=  1.01090385477047E+05
 cg2d: Sum(rhs),rhsMax =  -3.00739417584313E+01  2.52858492183769E+00
(PID.TID 0000.0001)  ploadbar=  1.01090068061489E+05
 cg2d: Sum(rhs),rhsMax =  -2.97822859637453E+01  2.55462494246678E+00
(PID.TID 0000.0001)  ploadbar=  1.01089750645932E+05
 cg2d: Sum(rhs),rhsMax =  -2.95472238156298E+01  2.57621197842056E+00
(PID.TID 0000.0001)  ploadbar=  1.01089433230375E+05
 cg2d: Sum(rhs),rhsMax =  -2.93797400331859E+01  2.59214250629420E+00
(PID.TID 0000.0001)  ploadbar=  1.01089115814817E+05
 cg2d: Sum(rhs),rhsMax =  -2.92793422660715E+01  2.60225209477272E+00
(PID.TID 0000.0001)  ploadbar=  1.01088798399260E+05
 cg2d: Sum(rhs),rhsMax =  -2.92463993085043E+01  2.60637519588068E+00
(PID.TID 0000.0001)  ploadbar=  1.01088480983703E+05
 cg2d: Sum(rhs),rhsMax =  -2.92552213626430E+01  2.60659272634928E+00
(PID.TID 0000.0001)  ploadbar=  1.01088112261271E+05
 cg2d: Sum(rhs),rhsMax =  -2.93127341963296E+01  2.60229103749985E+00
(PID.TID 0000.0001)  ploadbar=  1.01087743538840E+05
 cg2d: Sum(rhs),rhsMax =  -2.94087906035214E+01  2.59441977012609E+00
(PID.TID 0000.0001)  ploadbar=  1.01087374816409E+05
 cg2d: Sum(rhs),rhsMax =  -2.95378559167474E+01  2.58353928707910E+00
(PID.TID 0000.0001)  ploadbar=  1.01087006093977E+05
 cg2d: Sum(rhs),rhsMax =  -2.97136231578818E+01  2.56854728381261E+00
(PID.TID 0000.0001)  ploadbar=  1.01086637371546E+05
 cg2d: Sum(rhs),rhsMax =  -3.00809981659374E+01  2.53731043233483E+00
(PID.TID 0000.0001)  ploadbar=  1.01086268649114E+05
 cg2d: Sum(rhs),rhsMax =  -3.05444179432090E+01  2.49903279684465E+00
(PID.TID 0000.0001)  ploadbar=  1.01086035524302E+05
 cg2d: Sum(rhs),rhsMax =  -3.10986454944681E+01  2.45479485332887E+00
(PID.TID 0000.0001)  ploadbar=  1.01085802399491E+05
 cg2d: Sum(rhs),rhsMax =  -3.17214302105939E+01  2.40697547926670E+00
(PID.TID 0000.0001)  ploadbar=  1.01085569274679E+05
 cg2d: Sum(rhs),rhsMax =  -3.24521128648083E+01  2.35322941146680E+00
(PID.TID 0000.0001)  ploadbar=  1.01085336149867E+05
 cg2d: Sum(rhs),rhsMax =  -3.32738064138572E+01  2.29563662623564E+00
(PID.TID 0000.0001)  ploadbar=  1.01085103025056E+05
 cg2d: Sum(rhs),rhsMax =  -3.40651225220240E+01  2.24290032186411E+00
(PID.TID 0000.0001)  ploadbar=  1.01084869900244E+05
 cg2d: Sum(rhs),rhsMax =  -3.48550536084185E+01  2.19258229703404E+00
(PID.TID 0000.0001)  ploadbar=  1.01085249468662E+05
 cg2d: Sum(rhs),rhsMax =  -3.56433126765326E+01  2.14452808880777E+00
(PID.TID 0000.0001)  ploadbar=  1.01085629037079E+05
 cg2d: Sum(rhs),rhsMax =  -3.64215464260671E+01  2.09906753404950E+00
(PID.TID 0000.0001)  ploadbar=  1.01086008605497E+05
 cg2d: Sum(rhs),rhsMax =  -3.69641261347352E+01  2.06855238641658E+00
(PID.TID 0000.0001)  ploadbar=  1.01086388173915E+05
 cg2d: Sum(rhs),rhsMax =  -3.73713416681912E+01  2.04624937556962E+00
(PID.TID 0000.0001)  ploadbar=  1.01086767742332E+05
 cg2d: Sum(rhs),rhsMax =  -3.79233783329886E+01  2.01664150087063E+00
(PID.TID 0000.0001)  ploadbar=  1.01087147310750E+05
 cg2d: Sum(rhs),rhsMax =  -3.84570018113921E+01  1.98886204107140E+00
(PID.TID 0000.0001)  ploadbar=  1.01087972061712E+05
 cg2d: Sum(rhs),rhsMax =  -3.83989132475580E+01  1.99208723921940E+00
(PID.TID 0000.0001)  ploadbar=  1.01088796812674E+05
 cg2d: Sum(rhs),rhsMax =  -3.83504191452618E+01  1.99483368610596E+00
(PID.TID 0000.0001)  ploadbar=  1.01089621563636E+05
 cg2d: Sum(rhs),rhsMax =  -3.83490416508396E+01  1.99514559762881E+00
(PID.TID 0000.0001)  ploadbar=  1.01090446314598E+05
 cg2d: Sum(rhs),rhsMax =  -3.83634425284769E+01  1.99465378205780E+00
(PID.TID 0000.0001)  ploadbar=  1.01091271065560E+05
 cg2d: Sum(rhs),rhsMax =  -3.84059484872260E+01  1.99271929110781E+00
(PID.TID 0000.0001)  ploadbar=  1.01092095816521E+05
 cg2d: Sum(rhs),rhsMax =  -3.84168113431431E+01  1.99232918731072E+00
(PID.TID 0000.0001)  ploadbar=  1.01092457622035E+05
 cg2d: Sum(rhs),rhsMax =  -3.83938224468406E+01  1.99358701278523E+00
(PID.TID 0000.0001)  ploadbar=  1.01092819427548E+05
 cg2d: Sum(rhs),rhsMax =  -3.83391549864764E+01  1.99638792684800E+00
(PID.TID 0000.0001)  ploadbar=  1.01093181233061E+05
 cg2d: Sum(rhs),rhsMax =  -3.82427635036166E+01  2.00127240859979E+00
(PID.TID 0000.0001)  ploadbar=  1.01093543038574E+05
 cg2d: Sum(rhs),rhsMax =  -3.81314946398197E+01  2.00686468651027E+00
(PID.TID 0000.0001)  ploadbar=  1.01093904844087E+05
 cg2d: Sum(rhs),rhsMax =  -3.80123392323533E+01  2.01281420725143E+00
(PID.TID 0000.0001)  ploadbar=  1.01094266649601E+05
 cg2d: Sum(rhs),rhsMax =  -3.79043259704440E+01  2.01834916928663E+00
(PID.TID 0000.0001)  ploadbar=  1.01093969936669E+05
 cg2d: Sum(rhs),rhsMax =  -3.78142824552926E+01  2.02308445098638E+00
(PID.TID 0000.0001)  ploadbar=  1.01093673223737E+05
 cg2d: Sum(rhs),rhsMax =  -3.77480686461025E+01  2.02669251251555E+00
(PID.TID 0000.0001)  ploadbar=  1.01093376510805E+05
 cg2d: Sum(rhs),rhsMax =  -3.77127873644446E+01  2.02877984742582E+00
(PID.TID 0000.0001)  ploadbar=  1.01093079797873E+05
 cg2d: Sum(rhs),rhsMax =  -3.77131681996230E+01  2.02908204976812E+00
(PID.TID 0000.0001)  ploadbar=  1.01092783084941E+05
 cg2d: Sum(rhs),rhsMax =  -3.77477581452569E+01  2.02767561207092E+00
(PID.TID 0000.0001)  ploadbar=  1.01092486372009E+05
 cg2d: Sum(rhs),rhsMax =  -3.78090501698363E+01  2.02484646488981E+00
(PID.TID 0000.0001)  ploadbar=  1.01092940804430E+05
 cg2d: Sum(rhs),rhsMax =  -3.79028084486163E+01  2.02029361710106E+00
(PID.TID 0000.0001)  ploadbar=  1.01093395236851E+05
 cg2d: Sum(rhs),rhsMax =  -3.80237537288487E+01  2.01432260686929E+00
(PID.TID 0000.0001)  ploadbar=  1.01093849669272E+05
 cg2d: Sum(rhs),rhsMax =  -3.81620649866015E+01  2.00748243547137E+00
(PID.TID 0000.0001)  ploadbar=  1.01094304101693E+05
 cg2d: Sum(rhs),rhsMax =  -3.83109609143089E+01  2.00014799434630E+00
(PID.TID 0000.0001)  ploadbar=  1.01094758534114E+05
 cg2d: Sum(rhs),rhsMax =  -3.84628388953467E+01  1.99273177497998E+00
(PID.TID 0000.0001)  ploadbar=  1.01095212966534E+05
 cg2d: Sum(rhs),rhsMax =  -3.85904372873725E+01  1.98671125751681E+00
(PID.TID 0000.0001)  ploadbar=  1.01096361813528E+05
 cg2d: Sum(rhs),rhsMax =  -3.87067031067063E+01  1.98138822327631E+00
(PID.TID 0000.0001)  ploadbar=  1.01097510660522E+05
 cg2d: Sum(rhs),rhsMax =  -3.88340825405907E+01  1.97560876171560E+00
(PID.TID 0000.0001)  ploadbar=  1.01098659507516E+05
 cg2d: Sum(rhs),rhsMax =  -3.89602726183841E+01  1.97000799954638E+00
(PID.TID 0000.0001)  ploadbar=  1.01099808354509E+05
 cg2d: Sum(rhs),rhsMax =  -3.91352540806032E+01  1.96207943970801E+00
(PID.TID 0000.0001)  ploadbar=  1.01100957201503E+05
 cg2d: Sum(rhs),rhsMax =  -3.93607237251889E+01  1.95181013610581E+00
(PID.TID 0000.0001)  ploadbar=  1.01102106048497E+05
 cg2d: Sum(rhs),rhsMax =  -3.96257627298645E+01  1.93956457297097E+00
(PID.TID 0000.0001)  ploadbar=  1.01102552006912E+05
 cg2d: Sum(rhs),rhsMax =  -3.99762294137414E+01  1.92319986560477E+00
(PID.TID 0000.0001)  ploadbar=  1.01102997965326E+05
 cg2d: Sum(rhs),rhsMax =  -4.04219642523484E+01  1.90246451820228E+00
(PID.TID 0000.0001)  ploadbar=  1.01103443923741E+05
 cg2d: Sum(rhs),rhsMax =  -4.09528997616140E+01  1.87810984164143E+00
(PID.TID 0000.0001)  ploadbar=  1.01103889882156E+05
 cg2d: Sum(rhs),rhsMax =  -4.15646467465200E+01  1.85062465382896E+00
(PID.TID 0000.0001)  ploadbar=  1.01104335840571E+05
 cg2d: Sum(rhs),rhsMax =  -4.22543332810735E+01  1.82042544725967E+00
(PID.TID 0000.0001)  ploadbar=  1.01104781798986E+05
 cg2d: Sum(rhs),rhsMax =  -4.30416750247918E+01  1.78719532872827E+00
(PID.TID 0000.0001)  ploadbar=  1.01104262247216E+05
 cg2d: Sum(rhs),rhsMax =  -4.39281410851600E+01  1.75125935166505E+00
(PID.TID 0000.0001)  ploadbar=  1.01103742695446E+05
 cg2d: Sum(rhs),rhsMax =  -4.48996077350341E+01  1.71355693065346E+00
(PID.TID 0000.0001)  ploadbar=  1.01103223143676E+05
 cg2d: Sum(rhs),rhsMax =  -4.59256903518499E+01  1.67551900260642E+00
(PID.TID 0000.0001)  ploadbar=  1.01102703591906E+05
 cg2d: Sum(rhs),rhsMax =  -4.69648780262998E+01  1.63875433700630E+00
(PID.TID 0000.0001)  ploadbar=  1.01102184040136E+05
 cg2d: Sum(rhs),rhsMax =  -4.79688869287670E+01  1.60483515869677E+00
(PID.TID 0000.0001)  ploadbar=  1.01101664488365E+05
 cg2d: Sum(rhs),rhsMax =  -4.89078269615995E+01  1.57438190774154E+00
(PID.TID 0000.0001)  ploadbar=  1.01100879470202E+05
 cg2d: Sum(rhs),rhsMax =  -4.97162353217783E+01  1.54910937288549E+00
(PID.TID 0000.0001)  ploadbar=  1.01100094452038E+05
 cg2d: Sum(rhs),rhsMax =  -5.03545898729629E+01  1.52977751906419E+00
(PID.TID 0000.0001)  ploadbar=  1.01099309433874E+05
 cg2d: Sum(rhs),rhsMax =  -5.08044075188424E+01  1.51652738937143E+00
(PID.TID 0000.0001)  ploadbar=  1.01098524415710E+05
 cg2d: Sum(rhs),rhsMax =  -5.10747922334533E+01  1.50878905345323E+00
(PID.TID 0000.0001)  ploadbar=  1.01097739397546E+05
 cg2d: Sum(rhs),rhsMax =  -5.12024084054878E+01  1.50531646267909E+00
(PID.TID 0000.0001)  ploadbar=  1.01096954379382E+05
 cg2d: Sum(rhs),rhsMax =  -5.12439061510476E+01  1.50444425353158E+00
(PID.TID 0000.0001)  ploadbar=  1.01097866247728E+05
 cg2d: Sum(rhs),rhsMax =  -5.12192835099578E+01  1.50556499041126E+00
(PID.TID 0000.0001)  ploadbar=  1.01098778116075E+05
 cg2d: Sum(rhs),rhsMax =  -5.11689567382021E+01  1.50749829304543E+00
(PID.TID 0000.0001)  ploadbar=  1.01099689984422E+05
 cg2d: Sum(rhs),rhsMax =  -5.13487514029611E+01  1.50272662525172E+00
(PID.TID 0000.0001)  ploadbar=  1.01100601852768E+05
 cg2d: Sum(rhs),rhsMax =  -5.15545538917570E+01  1.49728900727326E+00
(PID.TID 0000.0001)  ploadbar=  1.01101513721115E+05
 cg2d: Sum(rhs),rhsMax =  -5.17942643976743E+01  1.49097766055529E+00
(PID.TID 0000.0001)  ploadbar=  1.01102425589462E+05
 cg2d: Sum(rhs),rhsMax =  -5.20593438278181E+01  1.48393977345965E+00
(PID.TID 0000.0001)  ploadbar=  1.01101447620318E+05
 cg2d: Sum(rhs),rhsMax =  -5.23544888947496E+01  1.47606254056443E+00
(PID.TID 0000.0001)  ploadbar=  1.01100469651175E+05
 cg2d: Sum(rhs),rhsMax =  -5.26748687666087E+01  1.46751078780528E+00
(PID.TID 0000.0001)  ploadbar=  1.01099491682031E+05
 cg2d: Sum(rhs),rhsMax =  -5.29969288681639E+01  1.45895867023223E+00
(PID.TID 0000.0001)  ploadbar=  1.01098513712887E+05
 cg2d: Sum(rhs),rhsMax =  -5.23627464617508E+01  1.47694453932760E+00
(PID.TID 0000.0001)  ploadbar=  1.01097535743744E+05
 cg2d: Sum(rhs),rhsMax =  -5.14327746006765E+01  1.50391866468144E+00
(PID.TID 0000.0001)  ploadbar=  1.01096557774600E+05
 cg2d: Sum(rhs),rhsMax =  -5.06072436695911E+01  1.52877109900800E+00
(PID.TID 0000.0001)  ploadbar=  1.01095417408052E+05
 cg2d: Sum(rhs),rhsMax =  -4.98446380394776E+01  1.55252268124123E+00
(PID.TID 0000.0001)  ploadbar=  1.01094277041504E+05
 cg2d: Sum(rhs),rhsMax =  -4.91248282988601E+01  1.57567657720545E+00
(PID.TID 0000.0001)  ploadbar=  1.01093136674955E+05
 cg2d: Sum(rhs),rhsMax =  -4.84883336170543E+01  1.59680817556536E+00
(PID.TID 0000.0001)  ploadbar=  1.01091996308407E+05
 cg2d: Sum(rhs),rhsMax =  -4.79229800248203E+01  1.61614083631886E+00
(PID.TID 0000.0001)  ploadbar=  1.01090855941858E+05
 cg2d: Sum(rhs),rhsMax =  -4.74079389380742E+01  1.63424403861331E+00
(PID.TID 0000.0001)  ploadbar=  1.01089715575310E+05
 cg2d: Sum(rhs),rhsMax =  -4.69676137717624E+01  1.65006921421597E+00
(PID.TID 0000.0001)  ploadbar=  1.01088917077108E+05
 cg2d: Sum(rhs),rhsMax =  -4.65874607612764E+01  1.66399255604825E+00
(PID.TID 0000.0001)  ploadbar=  1.01088118578905E+05
 cg2d: Sum(rhs),rhsMax =  -4.62805895000584E+01  1.67544404069522E+00
(PID.TID 0000.0001)  ploadbar=  1.01087320080703E+05
 cg2d: Sum(rhs),rhsMax =  -4.60361024442598E+01  1.68472388384736E+00
(PID.TID 0000.0001)  ploadbar=  1.01086521582501E+05
 cg2d: Sum(rhs),rhsMax =  -4.58552090682405E+01  1.69172013486138E+00
(PID.TID 0000.0001)  ploadbar=  1.01085723084299E+05
 cg2d: Sum(rhs),rhsMax =  -4.57449426707499E+01  1.69611957228786E+00
(PID.TID 0000.0001)  ploadbar=  1.01084924586097E+05
 cg2d: Sum(rhs),rhsMax =  -4.58854539771119E+01  1.69129371629408E+00
(PID.TID 0000.0001)  ploadbar=  1.01084589394568E+05
 cg2d: Sum(rhs),rhsMax =  -4.61657605626424E+01  1.68142980434137E+00
(PID.TID 0000.0001)  ploadbar=  1.01084254203040E+05
 cg2d: Sum(rhs),rhsMax =  -4.65579790410276E+01  1.66770672542230E+00
(PID.TID 0000.0001)  ploadbar=  1.01083919011511E+05
 cg2d: Sum(rhs),rhsMax =  -4.70165178157606E+01  1.65192230296535E+00
(PID.TID 0000.0001)  ploadbar=  1.01083583819983E+05
 cg2d: Sum(rhs),rhsMax =  -4.70271406020274E+01  1.65207300330186E+00
(PID.TID 0000.0001)  ploadbar=  1.01083248628454E+05
 cg2d: Sum(rhs),rhsMax =  -4.70222057653993E+01  1.65281992432325E+00
(PID.TID 0000.0001)  ploadbar=  1.01082913436926E+05
 cg2d: Sum(rhs),rhsMax =  -4.70737409003885E+01  1.65148727660443E+00
(PID.TID 0000.0001)  ploadbar=  1.01082497616806E+05
 cg2d: Sum(rhs),rhsMax =  -4.71501038241510E+01  1.64918126441526E+00
(PID.TID 0000.0001)  ploadbar=  1.01082081796687E+05
 cg2d: Sum(rhs),rhsMax =  -4.72797469913686E+01  1.64492334185268E+00
(PID.TID 0000.0001)  ploadbar=  1.01081665976568E+05
 cg2d: Sum(rhs),rhsMax =  -4.74181331916728E+01  1.64028867057601E+00
(PID.TID 0000.0001)  ploadbar=  1.01081250156449E+05
 cg2d: Sum(rhs),rhsMax =  -4.75435640350689E+01  1.63603337837206E+00
(PID.TID 0000.0001)  ploadbar=  1.01080834336329E+05
 cg2d: Sum(rhs),rhsMax =  -4.76662997249869E+01  1.63179831687290E+00
(PID.TID 0000.0001)  ploadbar=  1.01080418516210E+05
 cg2d: Sum(rhs),rhsMax =  -4.77944797813748E+01  1.62751599853483E+00
(PID.TID 0000.0001)  ploadbar=  1.01079408454039E+05
 cg2d: Sum(rhs),rhsMax =  -4.79413713830533E+01  1.62272791695945E+00
(PID.TID 0000.0001)  ploadbar=  1.01078398391868E+05
 cg2d: Sum(rhs),rhsMax =  -4.80775328927204E+01  1.61843184957326E+00
(PID.TID 0000.0001)  ploadbar=  1.01077388329697E+05
 cg2d: Sum(rhs),rhsMax =  -4.82089599647481E+01  1.61442288960203E+00
(PID.TID 0000.0001)  ploadbar=  1.01076378267526E+05
 cg2d: Sum(rhs),rhsMax =  -4.83413189004987E+01  1.61051507766016E+00
(PID.TID 0000.0001)  ploadbar=  1.01075368205355E+05
 cg2d: Sum(rhs),rhsMax =  -4.84773580930242E+01  1.60661756301458E+00
(PID.TID 0000.0001)  ploadbar=  1.01074358143184E+05
 cg2d: Sum(rhs),rhsMax =  -4.85918026070896E+01  1.60340821846547E+00
(PID.TID 0000.0001)  ploadbar=  1.01074003273582E+05
 cg2d: Sum(rhs),rhsMax =  -4.87181967062972E+01  1.59977203481375E+00
(PID.TID 0000.0001)  ploadbar=  1.01073648403980E+05
 cg2d: Sum(rhs),rhsMax =  -4.88383426034556E+01  1.59631468720336E+00
(PID.TID 0000.0001)  ploadbar=  1.01073293534379E+05
 cg2d: Sum(rhs),rhsMax =  -4.89496888888176E+01  1.59312216900707E+00
(PID.TID 0000.0001)  ploadbar=  1.01072938664777E+05
 cg2d: Sum(rhs),rhsMax =  -4.90586575893893E+01  1.58999116481009E+00
(PID.TID 0000.0001)  ploadbar=  1.01072583795175E+05
 cg2d: Sum(rhs),rhsMax =  -4.91609958525592E+01  1.58706144278773E+00
(PID.TID 0000.0001)  ploadbar=  1.01072228925573E+05
 cg2d: Sum(rhs),rhsMax =  -4.92695552402310E+01  1.58399883824511E+00
(PID.TID 0000.0001)  ploadbar=  1.01071869444184E+05
 cg2d: Sum(rhs),rhsMax =  -4.93770452843422E+01  1.58103016239333E+00
(PID.TID 0000.0001)  ploadbar=  1.01071509962796E+05
 cg2d: Sum(rhs),rhsMax =  -4.94751918040602E+01  1.57841596589641E+00
(PID.TID 0000.0001)  ploadbar=  1.01071150481408E+05
 cg2d: Sum(rhs),rhsMax =  -4.95640159216628E+01  1.57615522711522E+00
(PID.TID 0000.0001)  ploadbar=  1.01070791000019E+05
 cg2d: Sum(rhs),rhsMax =  -4.96454508583264E+01  1.57418383538936E+00
(PID.TID 0000.0001)  ploadbar=  1.01070431518631E+05
 cg2d: Sum(rhs),rhsMax =  -4.97232975124926E+01  1.57238201275262E+00
(PID.TID 0000.0001)  ploadbar=  1.01070072037242E+05
 cg2d: Sum(rhs),rhsMax =  -4.97745069684464E+01  1.57131078986729E+00
(PID.TID 0000.0001)  ploadbar=  1.01070701613366E+05
 cg2d: Sum(rhs),rhsMax =  -4.98241044620055E+01  1.57017281236410E+00
(PID.TID 0000.0001)  ploadbar=  1.01071331189489E+05
 cg2d: Sum(rhs),rhsMax =  -4.98690279644443E+01  1.56906878527725E+00
(PID.TID 0000.0001)  ploadbar=  1.01071960765612E+05
 cg2d: Sum(rhs),rhsMax =  -4.99093376186471E+01  1.56800202453522E+00
(PID.TID 0000.0001)  ploadbar=  1.01072590341735E+05
 cg2d: Sum(rhs),rhsMax =  -4.99444591145367E+01  1.56699796685915E+00
(PID.TID 0000.0001)  ploadbar=  1.01073219917859E+05
 cg2d: Sum(rhs),rhsMax =  -4.99720202031248E+01  1.56612514353289E+00
(PID.TID 0000.0001)  ploadbar=  1.01073849493982E+05
 cg2d: Sum(rhs),rhsMax =  -4.99987965944472E+01  1.56536493194509E+00
(PID.TID 0000.0001)  ploadbar=  1.01076294616213E+05
 cg2d: Sum(rhs),rhsMax =  -5.00022434781292E+01  1.56541764440246E+00
(PID.TID 0000.0001)  ploadbar=  1.01078739738443E+05
 cg2d: Sum(rhs),rhsMax =  -4.99078290942757E+01  1.56862140522175E+00
(PID.TID 0000.0001)  ploadbar=  1.01081184860674E+05
 cg2d: Sum(rhs),rhsMax =  -4.97916516522361E+01  1.57260929301435E+00
(PID.TID 0000.0001)  ploadbar=  1.01083629982904E+05
 cg2d: Sum(rhs),rhsMax =  -4.96625594285011E+01  1.57710952315873E+00
(PID.TID 0000.0001)  ploadbar=  1.01086075105134E+05
 cg2d: Sum(rhs),rhsMax =  -4.95406542711123E+01  1.58149260214351E+00
(PID.TID 0000.0001)  ploadbar=  1.01088520227365E+05
 cg2d: Sum(rhs),rhsMax =  -4.94291263554354E+01  1.58554130249882E+00
(PID.TID 0000.0001)  ploadbar=  1.01089976672272E+05
 cg2d: Sum(rhs),rhsMax =  -4.93184051466407E+01  1.58955720629784E+00
(PID.TID 0000.0001)  ploadbar=  1.01091433117179E+05
 cg2d: Sum(rhs),rhsMax =  -4.92091473163448E+01  1.59352161871769E+00
(PID.TID 0000.0001)  ploadbar=  1.01092889562086E+05
 cg2d: Sum(rhs),rhsMax =  -4.91026170909157E+01  1.59740235180106E+00
(PID.TID 0000.0001)  ploadbar=  1.01094346006994E+05
 cg2d: Sum(rhs),rhsMax =  -4.90000002261911E+01  1.60117765126479E+00
(PID.TID 0000.0001)  ploadbar=  1.01095802451901E+05
 cg2d: Sum(rhs),rhsMax =  -4.89015652810591E+01  1.60484208618503E+00
(PID.TID 0000.0001)  ploadbar=  1.01097258896808E+05
 cg2d: Sum(rhs),rhsMax =  -4.88245423586273E+01  1.60781946079480E+00
(PID.TID 0000.0001)  ploadbar=  1.01098826128281E+05
 cg2d: Sum(rhs),rhsMax =  -4.87557242676628E+01  1.61052862820171E+00
(PID.TID 0000.0001)  ploadbar=  1.01100393359753E+05
 cg2d: Sum(rhs),rhsMax =  -4.86997217279376E+01  1.61281812915584E+00
(PID.TID 0000.0001)  ploadbar=  1.01101960591226E+05
 cg2d: Sum(rhs),rhsMax =  -4.86549075413573E+01  1.61474465227011E+00
(PID.TID 0000.0001)  ploadbar=  1.01103527822699E+05
 cg2d: Sum(rhs),rhsMax =  -4.86213505581468E+01  1.61630962460355E+00
(PID.TID 0000.0001)  ploadbar=  1.01105095054172E+05
 cg2d: Sum(rhs),rhsMax =  -4.86000967350018E+01  1.61748162925963E+00
(PID.TID 0000.0001)  ploadbar=  1.01106662285644E+05
 cg2d: Sum(rhs),rhsMax =  -4.85625534821618E+01  1.61911282712571E+00
(PID.TID 0000.0001)  ploadbar=  1.01107711162489E+05
 cg2d: Sum(rhs),rhsMax =  -4.85093335988451E+01  1.62117841241451E+00
(PID.TID 0000.0001)  ploadbar=  1.01108760039333E+05
 cg2d: Sum(rhs),rhsMax =  -4.84338159201659E+01  1.62390422939579E+00
(PID.TID 0000.0001)  ploadbar=  1.01109808916177E+05
 cg2d: Sum(rhs),rhsMax =  -4.83324807211781E+01  1.62742104918675E+00
(PID.TID 0000.0001)  ploadbar=  1.01110857793021E+05
 cg2d: Sum(rhs),rhsMax =  -4.82063902014451E+01  1.63170789959082E+00
(PID.TID 0000.0001)  ploadbar=  1.01111906669866E+05
 cg2d: Sum(rhs),rhsMax =  -4.80552103573434E+01  1.63678878164975E+00
(PID.TID 0000.0001)  ploadbar=  1.01112955546710E+05
 cg2d: Sum(rhs),rhsMax =  -4.79113420663948E+01  1.64171544341889E+00
(PID.TID 0000.0001)  ploadbar=  1.01114218170926E+05
 cg2d: Sum(rhs),rhsMax =  -4.77776864400447E+01  1.64637550091697E+00
(PID.TID 0000.0001)  ploadbar=  1.01115480795141E+05
 cg2d: Sum(rhs),rhsMax =  -4.76616829537562E+01  1.65050305002268E+00
(PID.TID 0000.0001)  ploadbar=  1.01116743419357E+05
 cg2d: Sum(rhs),rhsMax =  -4.75683154820642E+01  1.65391108222384E+00
(PID.TID 0000.0001)  ploadbar=  1.01118006043573E+05
 cg2d: Sum(rhs),rhsMax =  -4.75049931020607E+01  1.65632754970464E+00
(PID.TID 0000.0001)  ploadbar=  1.01119268667788E+05
 cg2d: Sum(rhs),rhsMax =  -4.74752975761206E+01  1.65761664498425E+00
(PID.TID 0000.0001)  ploadbar=  1.01120531292004E+05
 cg2d: Sum(rhs),rhsMax =  -4.75146034087373E+01  1.65648261416188E+00
(PID.TID 0000.0001)  ploadbar=  1.01120968236858E+05
 cg2d: Sum(rhs),rhsMax =  -4.75998584427055E+01  1.65374195136463E+00
(PID.TID 0000.0001)  ploadbar=  1.01121405181711E+05
 cg2d: Sum(rhs),rhsMax =  -4.77099416845636E+01  1.65015078141567E+00
(PID.TID 0000.0001)  ploadbar=  1.01121842126565E+05
 cg2d: Sum(rhs),rhsMax =  -4.78510243644646E+01  1.64551938601775E+00
(PID.TID 0000.0001)  ploadbar=  1.01122279071418E+05
 cg2d: Sum(rhs),rhsMax =  -4.80239642400532E+01  1.63984113934110E+00
(PID.TID 0000.0001)  ploadbar=  1.01122716016272E+05
 cg2d: Sum(rhs),rhsMax =  -4.79256254647453E+01  1.64346731976922E+00
(PID.TID 0000.0001)  ploadbar=  1.01123152961125E+05
 cg2d: Sum(rhs),rhsMax =  -4.75265306551844E+01  1.65757491186732E+00
(PID.TID 0000.0001)  ploadbar=  1.01123125084198E+05
 cg2d: Sum(rhs),rhsMax =  -4.71734475314378E+01  1.67032163708363E+00
(PID.TID 0000.0001)  ploadbar=  1.01123097207271E+05
 cg2d: Sum(rhs),rhsMax =  -4.68592168505076E+01  1.68189533949084E+00
(PID.TID 0000.0001)  ploadbar=  1.01123069330344E+05
 cg2d: Sum(rhs),rhsMax =  -4.65832897263711E+01  1.69226702050298E+00
(PID.TID 0000.0001)  ploadbar=  1.01123041453417E+05
 cg2d: Sum(rhs),rhsMax =  -4.63395589223575E+01  1.70161884378177E+00
(PID.TID 0000.0001)  ploadbar=  1.01123013576490E+05
 cg2d: Sum(rhs),rhsMax =  -4.61182574965687E+01  1.71027732326320E+00
(PID.TID 0000.0001)  ploadbar=  1.01122985699563E+05
 cg2d: Sum(rhs),rhsMax =  -4.59061050743302E+01  1.71862804047758E+00
(PID.TID 0000.0001)  ploadbar=  1.01123429544169E+05
 cg2d: Sum(rhs),rhsMax =  -4.57169368872278E+01  1.72612978096898E+00
(PID.TID 0000.0001)  ploadbar=  1.01123873388774E+05
 cg2d: Sum(rhs),rhsMax =  -4.55537947588300E+01  1.73264557761598E+00
(PID.TID 0000.0001)  ploadbar=  1.01124317233380E+05
 cg2d: Sum(rhs),rhsMax =  -4.54444231554082E+01  1.73709505751017E+00
(PID.TID 0000.0001)  ploadbar=  1.01124761077985E+05
 cg2d: Sum(rhs),rhsMax =  -4.54009527258406E+01  1.73898995768312E+00
(PID.TID 0000.0001)  ploadbar=  1.01125204922590E+05
 cg2d: Sum(rhs),rhsMax =  -4.54139738730103E+01  1.73868059846290E+00
(PID.TID 0000.0001)  ploadbar=  1.01125648767196E+05
 cg2d: Sum(rhs),rhsMax =  -4.54608866174443E+01  1.73714158584699E+00
(PID.TID 0000.0001)  ploadbar=  1.01126114728581E+05
 cg2d: Sum(rhs),rhsMax =  -4.55270039784919E+01  1.73493327268211E+00
(PID.TID 0000.0001)  ploadbar=  1.01126580689967E+05
 cg2d: Sum(rhs),rhsMax =  -4.56007015571946E+01  1.73250329261247E+00
(PID.TID 0000.0001)  ploadbar=  1.01127046651352E+05
 cg2d: Sum(rhs),rhsMax =  -4.56819403639877E+01  1.72985549025169E+00
(PID.TID 0000.0001)  ploadbar=  1.01127512612738E+05
 cg2d: Sum(rhs),rhsMax =  -4.57719897478574E+01  1.72694501810777E+00
(PID.TID 0000.0001)  ploadbar=  1.01127978574123E+05
 cg2d: Sum(rhs),rhsMax =  -4.58667125434458E+01  1.72392885258445E+00
(PID.TID 0000.0001)  ploadbar=  1.01128444535509E+05
 cg2d: Sum(rhs),rhsMax =  -4.59510794396603E+01  1.72129613318179E+00
(PID.TID 0000.0001)  ploadbar=  1.01127869212134E+05
 cg2d: Sum(rhs),rhsMax =  -4.60315429994633E+01  1.71880498777905E+00
(PID.TID 0000.0001)  ploadbar=  1.01127293888759E+05
 cg2d: Sum(rhs),rhsMax =  -4.61053520436761E+01  1.71656478662641E+00
(PID.TID 0000.0001)  ploadbar=  1.01126718565384E+05
 cg2d: Sum(rhs),rhsMax =  -4.61732644426826E+01  1.71454928295175E+00
(PID.TID 0000.0001)  ploadbar=  1.01126143242010E+05
 cg2d: Sum(rhs),rhsMax =  -4.62348441784074E+01  1.71277611529306E+00
(PID.TID 0000.0001)  ploadbar=  1.01125567918635E+05
 cg2d: Sum(rhs),rhsMax =  -4.62887277908976E+01  1.71129649773539E+00
(PID.TID 0000.0001)  ploadbar=  1.01124992595260E+05
 cg2d: Sum(rhs),rhsMax =  -4.63130973754014E+01  1.71097989085935E+00
(PID.TID 0000.0001)  ploadbar=  1.01123889703643E+05
 cg2d: Sum(rhs),rhsMax =  -4.63247059265982E+01  1.71119936985156E+00
(PID.TID 0000.0001)  ploadbar=  1.01122786812026E+05
 cg2d: Sum(rhs),rhsMax =  -4.63183410925063E+01  1.71215475724026E+00
(PID.TID 0000.0001)  ploadbar=  1.01121683920409E+05
 cg2d: Sum(rhs),rhsMax =  -4.62920934108414E+01  1.71391978252158E+00
(PID.TID 0000.0001)  ploadbar=  1.01120581028792E+05
 cg2d: Sum(rhs),rhsMax =  -4.62458974625941E+01  1.71649645404240E+00
(PID.TID 0000.0001)  ploadbar=  1.01119478137175E+05
 cg2d: Sum(rhs),rhsMax =  -4.53166198868793E+01  1.75265196143890E+00
(PID.TID 0000.0001)  ploadbar=  1.01118375245558E+05
 cg2d: Sum(rhs),rhsMax =  -4.41915540056746E+01  1.79817382074191E+00
(PID.TID 0000.0001)  ploadbar=  1.01117530520058E+05
 cg2d: Sum(rhs),rhsMax =  -4.29825733417414E+01  1.84958759014666E+00
(PID.TID 0000.0001)  ploadbar=  1.01116685794558E+05
 cg2d: Sum(rhs),rhsMax =  -4.18478766815402E+01  1.90050732778005E+00
(PID.TID 0000.0001)  ploadbar=  1.01115841069058E+05
 cg2d: Sum(rhs),rhsMax =  -4.08205671683841E+01  1.94903500211615E+00
(PID.TID 0000.0001)  ploadbar=  1.01114996343558E+05
 cg2d: Sum(rhs),rhsMax =  -3.98787575030517E+01  1.99569259045625E+00
(PID.TID 0000.0001)  ploadbar=  1.01114151618058E+05
 cg2d: Sum(rhs),rhsMax =  -3.90125923610128E+01  2.04055693047053E+00
(PID.TID 0000.0001)  ploadbar=  1.01113306892558E+05
 cg2d: Sum(rhs),rhsMax =  -3.82241496403870E+01  2.08332845879665E+00
(PID.TID 0000.0001)  ploadbar=  1.01113344777366E+05
 cg2d: Sum(rhs),rhsMax =  -3.75054339130389E+01  2.12405460865037E+00
(PID.TID 0000.0001)  ploadbar=  1.01113382662175E+05
 cg2d: Sum(rhs),rhsMax =  -3.67673556190100E+01  2.16762226309712E+00
(PID.TID 0000.0001)  ploadbar=  1.01113420546984E+05
 cg2d: Sum(rhs),rhsMax =  -3.59795450461215E+01  2.21614472474374E+00
(PID.TID 0000.0001)  ploadbar=  1.01113458431793E+05
 cg2d: Sum(rhs),rhsMax =  -3.51801076182398E+01  2.26769920862272E+00
(PID.TID 0000.0001)  ploadbar=  1.01113496316602E+05
 cg2d: Sum(rhs),rhsMax =  -3.43969401137495E+01  2.32067183436666E+00
(PID.TID 0000.0001)  ploadbar=  1.01113534201411E+05
 cg2d: Sum(rhs),rhsMax =  -3.32591938279917E+01  2.40136696399434E+00
(PID.TID 0000.0001)  ploadbar=  1.01114002183040E+05
 cg2d: Sum(rhs),rhsMax =  -3.17662407745872E+01  2.51552365439857E+00
(PID.TID 0000.0001)  ploadbar=  1.01114470164668E+05
 cg2d: Sum(rhs),rhsMax =  -3.01769299747464E+01  2.64930912126586E+00
(PID.TID 0000.0001)  ploadbar=  1.01114938146297E+05
 cg2d: Sum(rhs),rhsMax =  -2.86030619496090E+01  2.79640231498555E+00
(PID.TID 0000.0001)  ploadbar=  1.01115406127926E+05
 cg2d: Sum(rhs),rhsMax =  -2.71601855425686E+01  2.94629728722701E+00
(PID.TID 0000.0001)  ploadbar=  1.01115874109554E+05
 cg2d: Sum(rhs),rhsMax =  -2.59261074939550E+01  3.08788979114871E+00
(PID.TID 0000.0001)  ploadbar=  1.01116342091183E+05
 cg2d: Sum(rhs),rhsMax =  -2.48036695885352E+01  3.22906090478225E+00
(PID.TID 0000.0001)  ploadbar=  1.01116283101739E+05
 cg2d: Sum(rhs),rhsMax =  -2.37557081733779E+01  3.37302393702777E+00
(PID.TID 0000.0001)  ploadbar=  1.01116224112295E+05
 cg2d: Sum(rhs),rhsMax =  -2.28263160526447E+01  3.51197086315083E+00
(PID.TID 0000.0001)  ploadbar=  1.01116165122852E+05
 cg2d: Sum(rhs),rhsMax =  -2.20008277384112E+01  3.64546720787896E+00
(PID.TID 0000.0001)  ploadbar=  1.01116106133408E+05
 cg2d: Sum(rhs),rhsMax =  -2.12634480546575E+01  3.77373562439650E+00
(PID.TID 0000.0001)  ploadbar=  1.01116047143965E+05
 cg2d: Sum(rhs),rhsMax =  -2.05986145616934E+01  3.89751887728411E+00
(PID.TID 0000.0001)  ploadbar=  1.01115988154521E+05
 cg2d: Sum(rhs),rhsMax =  -1.99483061813561E+01  4.02636868047392E+00
(PID.TID 0000.0001)  ploadbar=  1.01116445435245E+05
 cg2d: Sum(rhs),rhsMax =  -1.93184440141869E+01  4.15921015621517E+00
(PID.TID 0000.0001)  ploadbar=  1.01116902715969E+05
 cg2d: Sum(rhs),rhsMax =  -1.87510385674937E+01  4.28639581640859E+00
(PID.TID 0000.0001)  ploadbar=  1.01117359996694E+05
 cg2d: Sum(rhs),rhsMax =  -1.88004166220859E+01  4.27619855663649E+00
(PID.TID 0000.0001)  ploadbar=  1.01117817277418E+05
 cg2d: Sum(rhs),rhsMax =  -1.90925080422477E+01  4.21156816944562E+00
(PID.TID 0000.0001)  ploadbar=  1.01118274558142E+05
 cg2d: Sum(rhs),rhsMax =  -1.95067548532222E+01  4.12266383381691E+00
(PID.TID 0000.0001)  ploadbar=  1.01118731838866E+05
 cg2d: Sum(rhs),rhsMax =  -1.99515701154360E+01  4.03152227354791E+00
(PID.TID 0000.0001)  ploadbar=  1.01118599986065E+05
 cg2d: Sum(rhs),rhsMax =  -2.03975993835640E+01  3.94436757878612E+00
(PID.TID 0000.0001)  ploadbar=  1.01118468133263E+05
 cg2d: Sum(rhs),rhsMax =  -2.08122036553376E+01  3.86701813442924E+00
(PID.TID 0000.0001)  ploadbar=  1.01118336280462E+05
 cg2d: Sum(rhs),rhsMax =  -2.12092960065086E+01  3.79606644019545E+00
(PID.TID 0000.0001)  ploadbar=  1.01118204427660E+05
 cg2d: Sum(rhs),rhsMax =  -2.15572751163469E+01  3.73646816967080E+00
(PID.TID 0000.0001)  ploadbar=  1.01118072574858E+05
 cg2d: Sum(rhs),rhsMax =  -2.18466001830377E+01  3.68890303930196E+00
(PID.TID 0000.0001)  ploadbar=  1.01117940722057E+05
 cg2d: Sum(rhs),rhsMax =  -2.20633523758086E+01  3.65444594819478E+00
(PID.TID 0000.0001)  ploadbar=  1.01118639590080E+05
 cg2d: Sum(rhs),rhsMax =  -2.22475279278426E+01  3.62585510946363E+00
(PID.TID 0000.0001)  ploadbar=  1.01119338458104E+05
 cg2d: Sum(rhs),rhsMax =  -2.24125600036886E+01  3.60072547502961E+00
(PID.TID 0000.0001)  ploadbar=  1.01120037326127E+05
 cg2d: Sum(rhs),rhsMax =  -2.25636328390727E+01  3.57810287349781E+00
(PID.TID 0000.0001)  ploadbar=  1.01120736194151E+05
 cg2d: Sum(rhs),rhsMax =  -2.27084070091616E+01  3.55670208210175E+00
(PID.TID 0000.0001)  ploadbar=  1.01121435062174E+05
 cg2d: Sum(rhs),rhsMax =  -2.28521010143293E+01  3.53567970058379E+00
(PID.TID 0000.0001)  ploadbar=  1.01122133930198E+05
 cg2d: Sum(rhs),rhsMax =  -2.29961410593272E+01  3.51488293966219E+00
(PID.TID 0000.0001)  ploadbar=  1.01123269075583E+05
 cg2d: Sum(rhs),rhsMax =  -2.31434079306524E+01  3.49386302841650E+00
(PID.TID 0000.0001)  ploadbar=  1.01124404220968E+05
 cg2d: Sum(rhs),rhsMax =  -2.32926159444337E+01  3.47282987097176E+00
(PID.TID 0000.0001)  ploadbar=  1.01125539366354E+05
 cg2d: Sum(rhs),rhsMax =  -2.34414795441876E+01  3.45213674122596E+00
(PID.TID 0000.0001)  ploadbar=  1.01126674511739E+05
 cg2d: Sum(rhs),rhsMax =  -2.35869191954929E+01  3.43223758337739E+00
(PID.TID 0000.0001)  ploadbar=  1.01127809657124E+05
 cg2d: Sum(rhs),rhsMax =  -2.37282793297491E+01  3.41320951721518E+00
(PID.TID 0000.0001)  ploadbar=  1.01128944802510E+05
 cg2d: Sum(rhs),rhsMax =  -2.38679111552072E+01  3.39443040084856E+00
(PID.TID 0000.0001)  ploadbar=  1.01129292402712E+05
 cg2d: Sum(rhs),rhsMax =  -2.40032983909899E+01  3.37623799480743E+00
(PID.TID 0000.0001)  ploadbar=  1.01129640002914E+05
 cg2d: Sum(rhs),rhsMax =  -2.41349798580013E+01  3.35854721936249E+00
(PID.TID 0000.0001)  ploadbar=  1.01129987603116E+05
 cg2d: Sum(rhs),rhsMax =  -2.42643057246660E+01  3.34116800254092E+00
(PID.TID 0000.0001)  ploadbar=  1.01130335203318E+05
 cg2d: Sum(rhs),rhsMax =  -2.43923930357047E+01  3.32396101154307E+00
(PID.TID 0000.0001)  ploadbar=  1.01130682803520E+05
 cg2d: Sum(rhs),rhsMax =  -2.45195839981235E+01  3.30687439237266E+00
(PID.TID 0000.0001)  ploadbar=  1.01131030403723E+05
 cg2d: Sum(rhs),rhsMax =  -2.46471317391859E+01  3.29001893352546E+00
(PID.TID 0000.0001)  ploadbar=  1.01131474366870E+05
 cg2d: Sum(rhs),rhsMax =  -2.47735024668879E+01  3.27358843037245E+00
(PID.TID 0000.0001)  ploadbar=  1.01131918330018E+05
 cg2d: Sum(rhs),rhsMax =  -2.48969847701309E+01  3.25780143596376E+00
(PID.TID 0000.0001)  ploadbar=  1.01132362293166E+05
 cg2d: Sum(rhs),rhsMax =  -2.50178846625618E+01  3.24260312654874E+00
(PID.TID 0000.0001)  ploadbar=  1.01132806256313E+05
 cg2d: Sum(rhs),rhsMax =  -2.51366612608352E+01  3.22792947068353E+00
(PID.TID 0000.0001)  ploadbar=  1.01133250219461E+05
 cg2d: Sum(rhs),rhsMax =  -2.52539087567892E+01  3.21369973160520E+00
(PID.TID 0000.0001)  ploadbar=  1.01133694182609E+05
 cg2d: Sum(rhs),rhsMax =  -2.53690712551922E+01  3.19979360939424E+00
(PID.TID 0000.0001)  ploadbar=  1.01133512208237E+05
 cg2d: Sum(rhs),rhsMax =  -2.54854827277025E+01  3.18578726656708E+00
(PID.TID 0000.0001)  ploadbar=  1.01133330233864E+05
 cg2d: Sum(rhs),rhsMax =  -2.56065430278693E+01  3.17127939237496E+00
(PID.TID 0000.0001)  ploadbar=  1.01133148259492E+05
 cg2d: Sum(rhs),rhsMax =  -2.57339334211887E+01  3.15609378300439E+00
(PID.TID 0000.0001)  ploadbar=  1.01132966285120E+05
 cg2d: Sum(rhs),rhsMax =  -2.58696018845115E+01  3.14002414668796E+00
(PID.TID 0000.0001)  ploadbar=  1.01132784310748E+05
 cg2d: Sum(rhs),rhsMax =  -2.60156432591948E+01  3.12286339470298E+00
(PID.TID 0000.0001)  ploadbar=  1.01132602336376E+05
 cg2d: Sum(rhs),rhsMax =  -2.61739447850573E+01  3.10451055114290E+00
(PID.TID 0000.0001)  ploadbar=  1.01131281307556E+05
 cg2d: Sum(rhs),rhsMax =  -2.63441662592846E+01  3.08504034603686E+00
(PID.TID 0000.0001)  ploadbar=  1.01129960278736E+05
 cg2d: Sum(rhs),rhsMax =  -2.65288340983194E+01  3.06420918414516E+00
(PID.TID 0000.0001)  ploadbar=  1.01128639249916E+05
 cg2d: Sum(rhs),rhsMax =  -2.67291797385748E+01  3.04193774743486E+00
(PID.TID 0000.0001)  ploadbar=  1.01127318221096E+05
 cg2d: Sum(rhs),rhsMax =  -2.69463529152409E+01  3.01817298466898E+00
(PID.TID 0000.0001)  ploadbar=  1.01125997192276E+05
 cg2d: Sum(rhs),rhsMax =  -2.71824827890035E+01  2.99276426081884E+00
(PID.TID 0000.0001)  ploadbar=  1.01124676163456E+05
 cg2d: Sum(rhs),rhsMax =  -2.74399803774938E+01  2.96535389081211E+00
(PID.TID 0000.0001)  ploadbar=  1.01123539818722E+05
 cg2d: Sum(rhs),rhsMax =  -2.77178230698943E+01  2.93615830230568E+00
(PID.TID 0000.0001)  ploadbar=  1.01122403473989E+05
 cg2d: Sum(rhs),rhsMax =  -2.80140367879008E+01  2.90550312984358E+00
(PID.TID 0000.0001)  ploadbar=  1.01121267129255E+05
 cg2d: Sum(rhs),rhsMax =  -2.83231412609539E+01  2.87405882104990E+00
(PID.TID 0000.0001)  ploadbar=  1.01120130784522E+05
 cg2d: Sum(rhs),rhsMax =  -2.86356035352939E+01  2.84284918202732E+00
(PID.TID 0000.0001)  ploadbar=  1.01118994439788E+05
 cg2d: Sum(rhs),rhsMax =  -2.89438314933549E+01  2.81261612150014E+00
(PID.TID 0000.0001)  ploadbar=  1.01117858095055E+05
 cg2d: Sum(rhs),rhsMax =  -2.92457160816468E+01  2.78369657993323E+00
(PID.TID 0000.0001)  ploadbar=  1.01116993746516E+05
 cg2d: Sum(rhs),rhsMax =  -2.95508855405845E+01  2.75513334496010E+00
(PID.TID 0000.0001)  ploadbar=  1.01116129397977E+05
 cg2d: Sum(rhs),rhsMax =  -2.98581591350492E+01  2.72702827142472E+00
(PID.TID 0000.0001)  ploadbar=  1.01115265049438E+05
 cg2d: Sum(rhs),rhsMax =  -3.01692022431364E+01  2.69922411630438E+00
(PID.TID 0000.0001)  ploadbar=  1.01114400700899E+05
 cg2d: Sum(rhs),rhsMax =  -3.04897808471484E+01  2.67121943519878E+00
(PID.TID 0000.0001)  ploadbar=  1.01113536352360E+05
 cg2d: Sum(rhs),rhsMax =  -3.08261169981754E+01  2.64251312211336E+00
(PID.TID 0000.0001)  ploadbar=  1.01112672003821E+05
 cg2d: Sum(rhs),rhsMax =  -3.11714475412747E+01  2.61364511673644E+00
(PID.TID 0000.0001)  ploadbar=  1.01111492015899E+05
 cg2d: Sum(rhs),rhsMax =  -3.15279268980587E+01  2.58446886556970E+00
(PID.TID 0000.0001)  ploadbar=  1.01110312027978E+05
 cg2d: Sum(rhs),rhsMax =  -3.18919487644819E+01  2.55531804614159E+00
(PID.TID 0000.0001)  ploadbar=  1.01109132040057E+05
 cg2d: Sum(rhs),rhsMax =  -3.22613327485914E+01  2.52639274117150E+00
(PID.TID 0000.0001)  ploadbar=  1.01107952052135E+05
 cg2d: Sum(rhs),rhsMax =  -3.26345703006755E+01  2.49782135066936E+00
(PID.TID 0000.0001)  ploadbar=  1.01106772064214E+05
 cg2d: Sum(rhs),rhsMax =  -3.30077887814069E+01  2.46989489324260E+00
(PID.TID 0000.0001)  ploadbar=  1.01105592076292E+05
 cg2d: Sum(rhs),rhsMax =  -3.33765352747530E+01  2.44300988875929E+00
(PID.TID 0000.0001)  ploadbar=  1.01104364193072E+05
 cg2d: Sum(rhs),rhsMax =  -3.37491229769859E+01  2.41651747000660E+00
(PID.TID 0000.0001)  ploadbar=  1.01103136309851E+05
 cg2d: Sum(rhs),rhsMax =  -3.34801549919314E+01  2.43649863285896E+00
(PID.TID 0000.0001)  ploadbar=  1.01101908426631E+05
 cg2d: Sum(rhs),rhsMax =  -3.28441598804194E+01  2.48435386030760E+00
(PID.TID 0000.0001)  ploadbar=  1.01100680543411E+05
 cg2d: Sum(rhs),rhsMax =  -3.22692029953804E+01  2.52940987712959E+00
(PID.TID 0000.0001)  ploadbar=  1.01099452660190E+05
 cg2d: Sum(rhs),rhsMax =  -3.17465920581795E+01  2.57196074159398E+00
(PID.TID 0000.0001)  ploadbar=  1.01098224776970E+05
 cg2d: Sum(rhs),rhsMax =  -3.12715152424684E+01  2.61191081741586E+00
(PID.TID 0000.0001)  ploadbar=  1.01096716500334E+05
 cg2d: Sum(rhs),rhsMax =  -3.08282793471080E+01  2.65028700162516E+00
(PID.TID 0000.0001)  ploadbar=  1.01095208223698E+05
 cg2d: Sum(rhs),rhsMax =  -3.04412384213425E+01  2.68475451209492E+00
(PID.TID 0000.0001)  ploadbar=  1.01093699947062E+05
 cg2d: Sum(rhs),rhsMax =  -3.01299572714557E+01  2.71320728503803E+00
(PID.TID 0000.0001)  ploadbar=  1.01092191670426E+05
 cg2d: Sum(rhs),rhsMax =  -2.98978475148146E+01  2.73494585758640E+00
(PID.TID 0000.0001)  ploadbar=  1.01090683393790E+05
 cg2d: Sum(rhs),rhsMax =  -2.97410984418948E+01  2.74999855731225E+00
(PID.TID 0000.0001)  ploadbar=  1.01089175117154E+05
 cg2d: Sum(rhs),rhsMax =  -2.96268161763901E+01  2.76139162298301E+00
(PID.TID 0000.0001)  ploadbar=  1.01088780239865E+05
 cg2d: Sum(rhs),rhsMax =  -2.96378800808043E+01  2.76127863806056E+00
(PID.TID 0000.0001)  ploadbar=  1.01088385362577E+05
 cg2d: Sum(rhs),rhsMax =  -2.98089912808778E+01  2.74647301553128E+00
(PID.TID 0000.0001)  ploadbar=  1.01087990485288E+05
 cg2d: Sum(rhs),rhsMax =  -3.00726459169581E+01  2.72356109974138E+00
(PID.TID 0000.0001)  ploadbar=  1.01087595607999E+05
 cg2d: Sum(rhs),rhsMax =  -3.05030083354679E+01  2.68641888703249E+00
(PID.TID 0000.0001)  ploadbar=  1.01087200730710E+05
 cg2d: Sum(rhs),rhsMax =  -3.11617859695714E+01  2.63101523741270E+00
(PID.TID 0000.0001)  ploadbar=  1.01086805853421E+05
 cg2d: Sum(rhs),rhsMax =  -3.18972648623106E+01  2.57162461864549E+00
(PID.TID 0000.0001)  ploadbar=  1.01085710255702E+05
 cg2d: Sum(rhs),rhsMax =  -3.27196981745163E+01  2.50815264599566E+00
(PID.TID 0000.0001)  ploadbar=  1.01084614657983E+05
 cg2d: Sum(rhs),rhsMax =  -3.35862275975972E+01  2.44451614105535E+00
(PID.TID 0000.0001)  ploadbar=  1.01083519060263E+05
 cg2d: Sum(rhs),rhsMax =  -3.44493868868892E+01  2.38425675694366E+00
(PID.TID 0000.0001)  ploadbar=  1.01082423462544E+05
 cg2d: Sum(rhs),rhsMax =  -3.52975965617975E+01  2.32788342232619E+00
(PID.TID 0000.0001)  ploadbar=  1.01081327864824E+05
 cg2d: Sum(rhs),rhsMax =  -3.61223617881516E+01  2.27558327618759E+00
(PID.TID 0000.0001)  ploadbar=  1.01080232267105E+05
 cg2d: Sum(rhs),rhsMax =  -3.69666655959761E+01  2.22446840646051E+00
(PID.TID 0000.0001)  ploadbar=  1.01079555452000E+05
 cg2d: Sum(rhs),rhsMax =  -3.70922015446606E+01  2.21780969373869E+00
(PID.TID 0000.0001)  ploadbar=  1.01078878636896E+05
 cg2d: Sum(rhs),rhsMax =  -3.70883555484365E+01  2.21892744999244E+00
(PID.TID 0000.0001)  ploadbar=  1.01078201821791E+05
 cg2d: Sum(rhs),rhsMax =  -3.71116878982080E+01  2.21843748574477E+00
(PID.TID 0000.0001)  ploadbar=  1.01077525006687E+05
 cg2d: Sum(rhs),rhsMax =  -3.71593355640593E+01  2.21651513199753E+00
(PID.TID 0000.0001)  ploadbar=  1.01076848191582E+05
 cg2d: Sum(rhs),rhsMax =  -3.72289060599430E+01  2.21331793286008E+00
(PID.TID 0000.0001)  ploadbar=  1.01076171376478E+05
 cg2d: Sum(rhs),rhsMax =  -3.73459546320514E+01  2.20722223469056E+00
(PID.TID 0000.0001)  ploadbar=  1.01075932462180E+05
 cg2d: Sum(rhs),rhsMax =  -3.75067145496996E+01  2.19848964136150E+00
(PID.TID 0000.0001)  ploadbar=  1.01075693547882E+05
 cg2d: Sum(rhs),rhsMax =  -3.77099766658809E+01  2.18725303505686E+00
(PID.TID 0000.0001)  ploadbar=  1.01075454633584E+05
 cg2d: Sum(rhs),rhsMax =  -3.79563637178933E+01  2.17355969785430E+00
(PID.TID 0000.0001)  ploadbar=  1.01075215719286E+05
 cg2d: Sum(rhs),rhsMax =  -3.82461027517115E+01  2.15749947846188E+00
(PID.TID 0000.0001)  ploadbar=  1.01074976804988E+05
 cg2d: Sum(rhs),rhsMax =  -3.85786986808836E+01  2.13921671953145E+00
(PID.TID 0000.0001)  ploadbar=  1.01074737890690E+05
 cg2d: Sum(rhs),rhsMax =  -3.89368991587553E+01  2.11993491140144E+00
(PID.TID 0000.0001)  ploadbar=  1.01073456500818E+05
 cg2d: Sum(rhs),rhsMax =  -3.93411943206469E+01  2.09861612291908E+00
(PID.TID 0000.0001)  ploadbar=  1.01072175110946E+05
 cg2d: Sum(rhs),rhsMax =  -3.98149154404870E+01  2.07418469132687E+00
(PID.TID 0000.0001)  ploadbar=  1.01070893721074E+05
 cg2d: Sum(rhs),rhsMax =  -4.03497389178626E+01  2.04730384133829E+00
(PID.TID 0000.0001)  ploadbar=  1.01069612331203E+05
 cg2d: Sum(rhs),rhsMax =  -4.09428993085769E+01  2.01833002801539E+00
(PID.TID 0000.0001)  ploadbar=  1.01068330941331E+05
 cg2d: Sum(rhs),rhsMax =  -4.15949101624089E+01  1.98745503104862E+00
(PID.TID 0000.0001)  ploadbar=  1.01067049551459E+05
 cg2d: Sum(rhs),rhsMax =  -4.22970249248483E+01  1.95514766205020E+00
(PID.TID 0000.0001)  ploadbar=  1.01067179073403E+05
 cg2d: Sum(rhs),rhsMax =  -4.30501323376018E+01  1.92155136094876E+00
(PID.TID 0000.0001)  ploadbar=  1.01067308595347E+05
 cg2d: Sum(rhs),rhsMax =  -4.38491662990599E+01  1.88707227571887E+00
(PID.TID 0000.0001)  ploadbar=  1.01067438117291E+05
 cg2d: Sum(rhs),rhsMax =  -4.42338553941840E+01  1.87113849652771E+00
(PID.TID 0000.0001)  ploadbar=  1.01067567639235E+05
 cg2d: Sum(rhs),rhsMax =  -4.39910484686030E+01  1.88189841265463E+00
(PID.TID 0000.0001)  ploadbar=  1.01067697161179E+05
 cg2d: Sum(rhs),rhsMax =  -4.37434483284404E+01  1.89294154849871E+00
(PID.TID 0000.0001)  ploadbar=  1.01067826683123E+05
 cg2d: Sum(rhs),rhsMax =  -4.35092945223521E+01  1.90359747139371E+00
(PID.TID 0000.0001)  ploadbar=  1.01069447931434E+05
 cg2d: Sum(rhs),rhsMax =  -4.33555661325787E+01  1.91088537720994E+00
(PID.TID 0000.0001)  ploadbar=  1.01071069179745E+05
 cg2d: Sum(rhs),rhsMax =  -4.32849714383755E+01  1.91461581334356E+00
(PID.TID 0000.0001)  ploadbar=  1.01072690428055E+05
 cg2d: Sum(rhs),rhsMax =  -4.32809905724405E+01  1.91548354011569E+00
(PID.TID 0000.0001)  ploadbar=  1.01074311676366E+05
 cg2d: Sum(rhs),rhsMax =  -4.33336465129557E+01  1.91393053193861E+00
(PID.TID 0000.0001)  ploadbar=  1.01075932924677E+05
 cg2d: Sum(rhs),rhsMax =  -4.34403552766657E+01  1.91008955302382E+00
(PID.TID 0000.0001)  ploadbar=  1.01077554172988E+05
 cg2d: Sum(rhs),rhsMax =  -4.36520462270305E+01  1.90156803138283E+00
(PID.TID 0000.0001)  ploadbar=  1.01079207543851E+05
 cg2d: Sum(rhs),rhsMax =  -4.38938153489290E+01  1.89171708967636E+00
(PID.TID 0000.0001)  ploadbar=  1.01080860914714E+05
 cg2d: Sum(rhs),rhsMax =  -4.41642618217214E+01  1.88064188675723E+00
(PID.TID 0000.0001)  ploadbar=  1.01082514285576E+05
 cg2d: Sum(rhs),rhsMax =  -4.44607166584658E+01  1.86850417900041E+00
(PID.TID 0000.0001)  ploadbar=  1.01084167656439E+05
 cg2d: Sum(rhs),rhsMax =  -4.47997192889145E+01  1.85466808075577E+00
(PID.TID 0000.0001)  ploadbar=  1.01085821027302E+05
 cg2d: Sum(rhs),rhsMax =  -4.52144170630347E+01  1.83786623591853E+00
(PID.TID 0000.0001)  ploadbar=  1.01087474398164E+05
 cg2d: Sum(rhs),rhsMax =  -4.56784812864243E+01  1.81943010961009E+00
(PID.TID 0000.0001)  ploadbar=  1.01088536244371E+05
 cg2d: Sum(rhs),rhsMax =  -4.61075869053052E+01  1.80275816934169E+00
(PID.TID 0000.0001)  ploadbar=  1.01089598090578E+05
 cg2d: Sum(rhs),rhsMax =  -4.64385629407906E+01  1.79019855675052E+00
(PID.TID 0000.0001)  ploadbar=  1.01090659936785E+05
 cg2d: Sum(rhs),rhsMax =  -4.66463300478406E+01  1.78254338406795E+00
(PID.TID 0000.0001)  ploadbar=  1.01091721782991E+05
 cg2d: Sum(rhs),rhsMax =  -4.67121007962851E+01  1.78038969804846E+00
(PID.TID 0000.0001)  ploadbar=  1.01092783629198E+05
 cg2d: Sum(rhs),rhsMax =  -4.66442508811745E+01  1.78337676299040E+00
(PID.TID 0000.0001)  ploadbar=  1.01093845475405E+05
 cg2d: Sum(rhs),rhsMax =  -4.64077608332659E+01  1.79286544165952E+00
(PID.TID 0000.0001)  ploadbar=  1.01095812883927E+05
 cg2d: Sum(rhs),rhsMax =  -4.61423246307878E+01  1.80358456637246E+00
(PID.TID 0000.0001)  ploadbar=  1.01097780292449E+05
 cg2d: Sum(rhs),rhsMax =  -4.58705556301198E+01  1.81468600075131E+00
(PID.TID 0000.0001)  ploadbar=  1.01099747700971E+05
 cg2d: Sum(rhs),rhsMax =  -4.56128397219115E+01  1.82536972405668E+00
(PID.TID 0000.0001)  ploadbar=  1.01101715109494E+05
 cg2d: Sum(rhs),rhsMax =  -4.53836773592578E+01  1.83503540976181E+00
(PID.TID 0000.0001)  ploadbar=  1.01103682518016E+05
 cg2d: Sum(rhs),rhsMax =  -4.51921760202782E+01  1.84328139604540E+00
(PID.TID 0000.0001)  ploadbar=  1.01105649926538E+05
 cg2d: Sum(rhs),rhsMax =  -4.50400876732059E+01  1.85006858271792E+00
(PID.TID 0000.0001)  ploadbar=  1.01107899705279E+05
 cg2d: Sum(rhs),rhsMax =  -4.49472641584170E+01  1.85454236100043E+00
(PID.TID 0000.0001)  ploadbar=  1.01110149484020E+05
 cg2d: Sum(rhs),rhsMax =  -4.49751696554429E+01  1.85414344096288E+00
(PID.TID 0000.0001)  ploadbar=  1.01112399262761E+05
 cg2d: Sum(rhs),rhsMax =  -4.51181246946904E+01  1.84911940634683E+00
(PID.TID 0000.0001)  ploadbar=  1.01114649041502E+05
 cg2d: Sum(rhs),rhsMax =  -4.53642337268846E+01  1.84003927170970E+00
(PID.TID 0000.0001)  ploadbar=  1.01116898820243E+05
 cg2d: Sum(rhs),rhsMax =  -4.57017183421785E+01  1.82749715362291E+00
(PID.TID 0000.0001)  ploadbar=  1.01119148598985E+05
 cg2d: Sum(rhs),rhsMax =  -4.62357420469960E+01  1.80732534611892E+00
(PID.TID 0000.0001)  ploadbar=  1.01120885302175E+05
 cg2d: Sum(rhs),rhsMax =  -4.69198605492513E+01  1.78179610927551E+00
(PID.TID 0000.0001)  ploadbar=  1.01122622005365E+05
 cg2d: Sum(rhs),rhsMax =  -4.66822543427924E+01  1.79159294171996E+00
(PID.TID 0000.0001)  ploadbar=  1.01124358708555E+05
 cg2d: Sum(rhs),rhsMax =  -4.71962580974005E+01  1.77270663000051E+00
(PID.TID 0000.0001)  ploadbar=  1.01126095411746E+05
 cg2d: Sum(rhs),rhsMax =  -4.79019095253196E+01  1.74712102082369E+00
(PID.TID 0000.0001)  ploadbar=  1.01127832114936E+05
 cg2d: Sum(rhs),rhsMax =  -4.87373126445519E+01  1.71760763800340E+00
(PID.TID 0000.0001)  ploadbar=  1.01129568818126E+05
 cg2d: Sum(rhs),rhsMax =  -4.97172472149907E+01  1.68422181013223E+00
(PID.TID 0000.0001)  ploadbar=  1.01130105117164E+05
 cg2d: Sum(rhs),rhsMax =  -5.08929959400065E+01  1.64581032229443E+00
(PID.TID 0000.0001)  ploadbar=  1.01130641416202E+05
 cg2d: Sum(rhs),rhsMax =  -5.22148904325483E+01  1.60467009121557E+00
(PID.TID 0000.0001)  ploadbar=  1.01131177715239E+05
 cg2d: Sum(rhs),rhsMax =  -5.26259101487567E+01  1.59269434639367E+00
(PID.TID 0000.0001)  ploadbar=  1.01131714014277E+05
 cg2d: Sum(rhs),rhsMax =  -5.08603078000181E+01  1.64858916587891E+00
(PID.TID 0000.0001)  ploadbar=  1.01132250313314E+05
 cg2d: Sum(rhs),rhsMax =  -4.74449014207157E+01  1.76793601695525E+00
(PID.TID 0000.0001)  ploadbar=  1.01132786612352E+05
 cg2d: Sum(rhs),rhsMax =  -4.47348315741784E+01  1.87570174110632E+00
(PID.TID 0000.0001)  ploadbar=  1.01133755086817E+05
 cg2d: Sum(rhs),rhsMax =  -4.30702784456027E+01  1.94882926793854E+00
(PID.TID 0000.0001)  ploadbar=  1.01134723561282E+05
 cg2d: Sum(rhs),rhsMax =  -4.17209325071590E+01  2.01246952552035E+00
(PID.TID 0000.0001)  ploadbar=  1.01135692035747E+05
 cg2d: Sum(rhs),rhsMax =  -4.06440495066485E+01  2.06637051497258E+00
(PID.TID 0000.0001)  ploadbar=  1.01136660510212E+05
 cg2d: Sum(rhs),rhsMax =  -3.98193335155308E+01  2.10971134205245E+00
(PID.TID 0000.0001)  ploadbar=  1.01137628984676E+05
 cg2d: Sum(rhs),rhsMax =  -3.92404075688405E+01  2.14133736544559E+00
(PID.TID 0000.0001)  ploadbar=  1.01138597459141E+05
 cg2d: Sum(rhs),rhsMax =  -3.89431778748658E+01  2.15825870017096E+00
(PID.TID 0000.0001)  ploadbar=  1.01139760065705E+05
 cg2d: Sum(rhs),rhsMax =  -3.89672089136585E+01  2.15757419803109E+00
(PID.TID 0000.0001)  ploadbar=  1.01140922672269E+05
 cg2d: Sum(rhs),rhsMax =  -3.90815260374985E+01  2.15197476789422E+00
(PID.TID 0000.0001)  ploadbar=  1.01142085278833E+05
 cg2d: Sum(rhs),rhsMax =  -3.89878518572772E+01  2.15793377359217E+00
(PID.TID 0000.0001)  ploadbar=  1.01143247885397E+05
 cg2d: Sum(rhs),rhsMax =  -3.87293298712602E+01  2.17320747486767E+00
(PID.TID 0000.0001)  ploadbar=  1.01144410491961E+05
 cg2d: Sum(rhs),rhsMax =  -3.88215309432716E+01  2.16899122820252E+00
(PID.TID 0000.0001)  ploadbar=  1.01145573098525E+05
 cg2d: Sum(rhs),rhsMax =  -3.90698699319926E+01  2.15607765886720E+00
(PID.TID 0000.0001)  ploadbar=  1.01146941831443E+05
 cg2d: Sum(rhs),rhsMax =  -3.93644015965807E+01  2.14074089961627E+00
(PID.TID 0000.0001)  ploadbar=  1.01148310564361E+05
 cg2d: Sum(rhs),rhsMax =  -3.96126525825294E+01  2.12804854733156E+00
(PID.TID 0000.0001)  ploadbar=  1.01149679297279E+05
 cg2d: Sum(rhs),rhsMax =  -3.97997409906639E+01  2.11870342210525E+00
(PID.TID 0000.0001)  ploadbar=  1.01151048030197E+05
 cg2d: Sum(rhs),rhsMax =  -4.00171879412149E+01  2.10778729030630E+00
(PID.TID 0000.0001)  ploadbar=  1.01152416763115E+05
 cg2d: Sum(rhs),rhsMax =  -4.01822402797133E+01  2.09966033602146E+00
(PID.TID 0000.0001)  ploadbar=  1.01153785496033E+05
 cg2d: Sum(rhs),rhsMax =  -4.03327293059188E+01  2.09245059104176E+00
(PID.TID 0000.0001)  ploadbar=  1.01154108005937E+05
 cg2d: Sum(rhs),rhsMax =  -4.05063461837109E+01  2.08419920997943E+00
(PID.TID 0000.0001)  ploadbar=  1.01154430515842E+05
 cg2d: Sum(rhs),rhsMax =  -4.07335026700857E+01  2.07338577458670E+00
(PID.TID 0000.0001)  ploadbar=  1.01154753025747E+05
 cg2d: Sum(rhs),rhsMax =  -4.10207084633830E+01  2.05977063151463E+00
(PID.TID 0000.0001)  ploadbar=  1.01155075535652E+05
 cg2d: Sum(rhs),rhsMax =  -4.13509768296647E+01  2.04431283388110E+00
(PID.TID 0000.0001)  ploadbar=  1.01155398045557E+05
 cg2d: Sum(rhs),rhsMax =  -4.16889022128406E+01  2.02882864180052E+00
(PID.TID 0000.0001)  ploadbar=  1.01155720555461E+05
 cg2d: Sum(rhs),rhsMax =  -4.17282045067767E+01  2.02794165618785E+00
(PID.TID 0000.0001)  ploadbar=  1.01155021205440E+05
 cg2d: Sum(rhs),rhsMax =  -4.14702817180596E+01  2.04152063898957E+00
(PID.TID 0000.0001)  ploadbar=  1.01154321855418E+05
 cg2d: Sum(rhs),rhsMax =  -4.09213311126160E+01  2.06983213060805E+00
(PID.TID 0000.0001)  ploadbar=  1.01153622505397E+05
 cg2d: Sum(rhs),rhsMax =  -4.07924235784486E+01  2.07724930330517E+00
(PID.TID 0000.0001)  ploadbar=  1.01152923155375E+05
 cg2d: Sum(rhs),rhsMax =  -4.14759259777473E+01  2.04383747511880E+00
(PID.TID 0000.0001)  ploadbar=  1.01152223805354E+05
 cg2d: Sum(rhs),rhsMax =  -4.19513092158270E+01  2.02144969773605E+00
(PID.TID 0000.0001)  ploadbar=  1.01151524455332E+05
 cg2d: Sum(rhs),rhsMax =  -4.23139897027248E+01  2.00492454963296E+00
(PID.TID 0000.0001)  ploadbar=  1.01151413204330E+05
 cg2d: Sum(rhs),rhsMax =  -4.27181300856926E+01  1.98678633854791E+00
(PID.TID 0000.0001)  ploadbar=  1.01151301953328E+05
 cg2d: Sum(rhs),rhsMax =  -4.30933742415355E+01  1.97035294954244E+00
(PID.TID 0000.0001)  ploadbar=  1.01151190702325E+05
 cg2d: Sum(rhs),rhsMax =  -4.34230308778323E+01  1.95630592663585E+00
(PID.TID 0000.0001)  ploadbar=  1.01151079451323E+05
 cg2d: Sum(rhs),rhsMax =  -4.37044737674501E+01  1.94466557441197E+00
(PID.TID 0000.0001)  ploadbar=  1.01150968200321E+05
 cg2d: Sum(rhs),rhsMax =  -4.39382803609268E+01  1.93532444834482E+00
(PID.TID 0000.0001)  ploadbar=  1.01150856949319E+05
 cg2d: Sum(rhs),rhsMax =  -4.40322214106619E+01  1.93207112976543E+00
(PID.TID 0000.0001)  ploadbar=  1.01150933448049E+05
 cg2d: Sum(rhs),rhsMax =  -4.41338728064974E+01  1.92836382925884E+00
(PID.TID 0000.0001)  ploadbar=  1.01151009946780E+05
 cg2d: Sum(rhs),rhsMax =  -4.42419881218384E+01  1.92426495344492E+00
(PID.TID 0000.0001)  ploadbar=  1.01151086445511E+05
 cg2d: Sum(rhs),rhsMax =  -4.43427245229312E+01  1.92038332593111E+00
(PID.TID 0000.0001)  ploadbar=  1.01151162944242E+05
 cg2d: Sum(rhs),rhsMax =  -4.44342203928121E+01  1.91680294150071E+00
(PID.TID 0000.0001)  ploadbar=  1.01151239442973E+05
 cg2d: Sum(rhs),rhsMax =  -4.44855074166124E+01  1.91485760738859E+00
(PID.TID 0000.0001)  ploadbar=  1.01151315941703E+05
 cg2d: Sum(rhs),rhsMax =  -4.45435150911951E+01  1.91269034426865E+00
(PID.TID 0000.0001)  ploadbar=  1.01151207335566E+05
 cg2d: Sum(rhs),rhsMax =  -4.45689526019806E+01  1.91198564409201E+00
(PID.TID 0000.0001)  ploadbar=  1.01151098729429E+05
 cg2d: Sum(rhs),rhsMax =  -4.45751798929620E+01  1.91216839773647E+00
(PID.TID 0000.0001)  ploadbar=  1.01150990123292E+05
 cg2d: Sum(rhs),rhsMax =  -4.45438957143932E+01  1.91402813350841E+00
(PID.TID 0000.0001)  ploadbar=  1.01150881517155E+05
 cg2d: Sum(rhs),rhsMax =  -4.45046176788299E+01  1.91630031682956E+00
(PID.TID 0000.0001)  ploadbar=  1.01150772911017E+05
 cg2d: Sum(rhs),rhsMax =  -4.45134367479918E+01  1.91656598648195E+00
(PID.TID 0000.0001)  ploadbar=  1.01150664304880E+05
 cg2d: Sum(rhs),rhsMax =  -4.45424821042741E+01  1.91595698110211E+00
(PID.TID 0000.0001)  ploadbar=  1.01150728476681E+05
 cg2d: Sum(rhs),rhsMax =  -4.46252056512376E+01  1.91304205319516E+00
(PID.TID 0000.0001)  ploadbar=  1.01150792648481E+05
 cg2d: Sum(rhs),rhsMax =  -4.47681842791372E+01  1.90757319908160E+00
(PID.TID 0000.0001)  ploadbar=  1.01150856820282E+05
 cg2d: Sum(rhs),rhsMax =  -4.48076136330966E+01  1.90654588966017E+00
(PID.TID 0000.0001)  ploadbar=  1.01150920992082E+05
 cg2d: Sum(rhs),rhsMax =  -4.49384433803016E+01  1.90166414079983E+00
(PID.TID 0000.0001)  ploadbar=  1.01150985163883E+05
 cg2d: Sum(rhs),rhsMax =  -4.51584468205272E+01  1.89308254053056E+00
(PID.TID 0000.0001)  ploadbar=  1.01151049335683E+05
 cg2d: Sum(rhs),rhsMax =  -4.52837380211723E+01  1.88857738760211E+00
(PID.TID 0000.0001)  ploadbar=  1.01151559616822E+05
 cg2d: Sum(rhs),rhsMax =  -4.53480123993044E+01  1.88667996441517E+00
(PID.TID 0000.0001)  ploadbar=  1.01152069897960E+05
 cg2d: Sum(rhs),rhsMax =  -4.55184175014918E+01  1.88044408474140E+00
(PID.TID 0000.0001)  ploadbar=  1.01152580179098E+05
 cg2d: Sum(rhs),rhsMax =  -4.58860111314779E+01  1.86625313519145E+00
(PID.TID 0000.0001)  ploadbar=  1.01153090460236E+05
 cg2d: Sum(rhs),rhsMax =  -4.64214819501162E+01  1.84564221937622E+00
(PID.TID 0000.0001)  ploadbar=  1.01153600741374E+05
 cg2d: Sum(rhs),rhsMax =  -4.71174993538361E+01  1.81933381531039E+00
(PID.TID 0000.0001)  ploadbar=  1.01154111022512E+05
 cg2d: Sum(rhs),rhsMax =  -4.79895003452806E+01  1.78711935612926E+00
(PID.TID 0000.0001)  ploadbar=  1.01153903974593E+05
 cg2d: Sum(rhs),rhsMax =  -4.90325988893250E+01  1.74983506358481E+00
(PID.TID 0000.0001)  ploadbar=  1.01153696926673E+05
 cg2d: Sum(rhs),rhsMax =  -4.99085692706235E+01  1.71975639607019E+00
(PID.TID 0000.0001)  ploadbar=  1.01153489878753E+05
 cg2d: Sum(rhs),rhsMax =  -5.07948361487229E+01  1.69029055783462E+00
(PID.TID 0000.0001)  ploadbar=  1.01153282830834E+05
 cg2d: Sum(rhs),rhsMax =  -5.17437717928320E+01  1.65974084156918E+00
(PID.TID 0000.0001)  ploadbar=  1.01153075782914E+05
 cg2d: Sum(rhs),rhsMax =  -5.24320516740855E+01  1.63831588397291E+00
(PID.TID 0000.0001)  ploadbar=  1.01152868734994E+05
 cg2d: Sum(rhs),rhsMax =  -5.29881821965785E+01  1.62152880888179E+00
(PID.TID 0000.0001)  ploadbar=  1.01152248052039E+05
 cg2d: Sum(rhs),rhsMax =  -5.36091073266540E+01  1.60320095687578E+00
(PID.TID 0000.0001)  ploadbar=  1.01151627369084E+05
 cg2d: Sum(rhs),rhsMax =  -5.43020371083147E+01  1.58324298634347E+00
(PID.TID 0000.0001)  ploadbar=  1.01151006686129E+05
 cg2d: Sum(rhs),rhsMax =  -5.50535003871517E+01  1.56217736128986E+00
(PID.TID 0000.0001)  ploadbar=  1.01150386003174E+05
 cg2d: Sum(rhs),rhsMax =  -5.53406934802948E+01  1.55466556594858E+00
(PID.TID 0000.0001)  ploadbar=  1.01149765320219E+05
 cg2d: Sum(rhs),rhsMax =  -5.49028182492463E+01  1.56772072365854E+00
(PID.TID 0000.0001)  ploadbar=  1.01149144637264E+05
 cg2d: Sum(rhs),rhsMax =  -5.44767928730023E+01  1.58061181291255E+00
(PID.TID 0000.0001)  ploadbar=  1.01149041557133E+05
 cg2d: Sum(rhs),rhsMax =  -5.40808485407058E+01  1.59278963852103E+00
(PID.TID 0000.0001)  ploadbar=  1.01148938477002E+05
 cg2d: Sum(rhs),rhsMax =  -5.37146999525978E+01  1.60423181782397E+00
(PID.TID 0000.0001)  ploadbar=  1.01148835396871E+05
 cg2d: Sum(rhs),rhsMax =  -5.33983810372533E+01  1.61430099311158E+00
(PID.TID 0000.0001)  ploadbar=  1.01148732316740E+05
 cg2d: Sum(rhs),rhsMax =  -5.31646097167521E+01  1.62194711650000E+00
(PID.TID 0000.0001)  ploadbar=  1.01148629236609E+05
 cg2d: Sum(rhs),rhsMax =  -5.30356578946527E+01  1.62642264690459E+00
(PID.TID 0000.0001)  ploadbar=  1.01148526156478E+05
 cg2d: Sum(rhs),rhsMax =  -5.30249312247065E+01  1.62731159863797E+00
(PID.TID 0000.0001)  ploadbar=  1.01148926324936E+05
 cg2d: Sum(rhs),rhsMax =  -5.31225284074386E+01  1.62490834308972E+00
(PID.TID 0000.0001)  ploadbar=  1.01149326493394E+05
 cg2d: Sum(rhs),rhsMax =  -5.33119573194141E+01  1.61974912817730E+00
(PID.TID 0000.0001)  ploadbar=  1.01149726661853E+05
 cg2d: Sum(rhs),rhsMax =  -5.35636056469637E+01  1.61278457274685E+00
(PID.TID 0000.0001)  ploadbar=  1.01150126830311E+05
 cg2d: Sum(rhs),rhsMax =  -5.38657788752469E+01  1.60441861236786E+00
(PID.TID 0000.0001)  ploadbar=  1.01150526998770E+05
 cg2d: Sum(rhs),rhsMax =  -5.42067959820775E+01  1.59503992306268E+00
(PID.TID 0000.0001)  ploadbar=  1.01150927167228E+05
 cg2d: Sum(rhs),rhsMax =  -5.45752767724326E+01  1.58490499279042E+00
(PID.TID 0000.0001)  ploadbar=  1.01150738982613E+05
 cg2d: Sum(rhs),rhsMax =  -5.49932907836784E+01  1.57341260860156E+00
(PID.TID 0000.0001)  ploadbar=  1.01150550797997E+05
 cg2d: Sum(rhs),rhsMax =  -5.54273259583339E+01  1.56156787917687E+00
(PID.TID 0000.0001)  ploadbar=  1.01150362613382E+05
 cg2d: Sum(rhs),rhsMax =  -5.56512883899414E+01  1.55568386407439E+00
(PID.TID 0000.0001)  ploadbar=  1.01150174428767E+05
 cg2d: Sum(rhs),rhsMax =  -5.53873351455140E+01  1.56342811158583E+00
(PID.TID 0000.0001)  ploadbar=  1.01149986244151E+05
 cg2d: Sum(rhs),rhsMax =  -5.56397922395419E+01  1.55659381964990E+00
(PID.TID 0000.0001)  ploadbar=  1.01149798059536E+05
 cg2d: Sum(rhs),rhsMax =  -5.60441410094745E+01  1.54566435149821E+00
(PID.TID 0000.0001)  ploadbar=  1.01149177593360E+05
 cg2d: Sum(rhs),rhsMax =  -5.64635667434505E+01  1.53452382162399E+00
(PID.TID 0000.0001)  ploadbar=  1.01148557127184E+05
 cg2d: Sum(rhs),rhsMax =  -5.68957846615451E+01  1.52324830878495E+00
(PID.TID 0000.0001)  ploadbar=  1.01147936661008E+05
 cg2d: Sum(rhs),rhsMax =  -5.73892672944823E+01  1.51057366951872E+00
(PID.TID 0000.0001)  ploadbar=  1.01147316194832E+05
 cg2d: Sum(rhs),rhsMax =  -5.78939987174754E+01  1.49787144214591E+00
(PID.TID 0000.0001)  ploadbar=  1.01146695728657E+05
 cg2d: Sum(rhs),rhsMax =  -5.84136910847477E+01  1.48505329144901E+00
(PID.TID 0000.0001)  ploadbar=  1.01146075262481E+05
 cg2d: Sum(rhs),rhsMax =  -5.89260984625839E+01  1.47263000351225E+00
(PID.TID 0000.0001)  ploadbar=  1.01146305662406E+05
 cg2d: Sum(rhs),rhsMax =  -5.94450288248141E+01  1.46024522662160E+00
(PID.TID 0000.0001)  ploadbar=  1.01146536062331E+05
 cg2d: Sum(rhs),rhsMax =  -5.99725582203175E+01  1.44785383664716E+00
(PID.TID 0000.0001)  ploadbar=  1.01146766462256E+05
 cg2d: Sum(rhs),rhsMax =  -6.05096277386367E+01  1.43544321462183E+00
(PID.TID 0000.0001)  ploadbar=  1.01146996862181E+05
 cg2d: Sum(rhs),rhsMax =  -6.10555384745784E+01  1.42304122740250E+00
(PID.TID 0000.0001)  ploadbar=  1.01147227262106E+05
 cg2d: Sum(rhs),rhsMax =  -6.16071745777161E+01  1.41073079609910E+00
(PID.TID 0000.0001)  ploadbar=  1.01147457662031E+05
 cg2d: Sum(rhs),rhsMax =  -6.22119533803547E+01  1.39748441969994E+00
(PID.TID 0000.0001)  ploadbar=  1.01148334107387E+05
 cg2d: Sum(rhs),rhsMax =  -6.28486734165151E+01  1.38382856243683E+00
(PID.TID 0000.0001)  ploadbar=  1.01149210552743E+05
 cg2d: Sum(rhs),rhsMax =  -6.35177385909796E+01  1.36978748998309E+00
(PID.TID 0000.0001)  ploadbar=  1.01150086998099E+05
 cg2d: Sum(rhs),rhsMax =  -6.35028960834290E+01  1.37068113316771E+00
(PID.TID 0000.0001)  ploadbar=  1.01150963443455E+05
 cg2d: Sum(rhs),rhsMax =  -6.30367255477980E+01  1.38143301141758E+00
(PID.TID 0000.0001)  ploadbar=  1.01151839888811E+05
 cg2d: Sum(rhs),rhsMax =  -6.25823604505517E+01  1.39211958271892E+00
(PID.TID 0000.0001)  ploadbar=  1.01152716334167E+05
 cg2d: Sum(rhs),rhsMax =  -6.21712291710497E+01  1.40191314849588E+00
(PID.TID 0000.0001)  ploadbar=  1.01153021863281E+05
 cg2d: Sum(rhs),rhsMax =  -6.17972594672048E+01  1.41091444398779E+00
(PID.TID 0000.0001)  ploadbar=  1.01153327392395E+05
 cg2d: Sum(rhs),rhsMax =  -6.14636450755877E+01  1.41901978745903E+00
(PID.TID 0000.0001)  ploadbar=  1.01153632921509E+05
 cg2d: Sum(rhs),rhsMax =  -6.11638278993396E+01  1.42635157826715E+00
(PID.TID 0000.0001)  ploadbar=  1.01153938450624E+05
 cg2d: Sum(rhs),rhsMax =  -6.08805312926750E+01  1.43329309633638E+00
(PID.TID 0000.0001)  ploadbar=  1.01154243979738E+05
 cg2d: Sum(rhs),rhsMax =  -6.05902525125855E+01  1.44039434535193E+00
(PID.TID 0000.0001)  ploadbar=  1.01154549508852E+05
 cg2d: Sum(rhs),rhsMax =  -6.02782618674536E+01  1.44813970733143E+00
(PID.TID 0000.0001)  ploadbar=  1.01155051458018E+05
 cg2d: Sum(rhs),rhsMax =  -5.99510150187282E+01  1.45639172559650E+00
(PID.TID 0000.0001)  ploadbar=  1.01155553407184E+05
 cg2d: Sum(rhs),rhsMax =  -5.96089389156171E+01  1.46515414149704E+00
(PID.TID 0000.0001)  ploadbar=  1.01156055356350E+05
 cg2d: Sum(rhs),rhsMax =  -5.92593682190006E+01  1.47426148221202E+00
(PID.TID 0000.0001)  ploadbar=  1.01156557305515E+05
 cg2d: Sum(rhs),rhsMax =  -5.89157188890485E+01  1.48338420815590E+00
(PID.TID 0000.0001)  ploadbar=  1.01157059254681E+05
 cg2d: Sum(rhs),rhsMax =  -5.85962416895212E+01  1.49205364018673E+00
(PID.TID 0000.0001)  ploadbar=  1.01157561203847E+05
 cg2d: Sum(rhs),rhsMax =  -5.83172006163731E+01  1.49977178367613E+00
(PID.TID 0000.0001)  ploadbar=  1.01156788780250E+05
 cg2d: Sum(rhs),rhsMax =  -5.80974548772661E+01  1.50601919809877E+00
(PID.TID 0000.0001)  ploadbar=  1.01156016356653E+05
 cg2d: Sum(rhs),rhsMax =  -5.79344967148208E+01  1.51083164285802E+00
(PID.TID 0000.0001)  ploadbar=  1.01155243933056E+05
 cg2d: Sum(rhs),rhsMax =  -5.78128931771607E+01  1.51459392192457E+00
(PID.TID 0000.0001)  ploadbar=  1.01154471509459E+05
 cg2d: Sum(rhs),rhsMax =  -5.77082056880766E+01  1.51794151207649E+00
(PID.TID 0000.0001)  ploadbar=  1.01153699085862E+05
 cg2d: Sum(rhs),rhsMax =  -5.75967461474555E+01  1.52149536558819E+00
(PID.TID 0000.0001)  ploadbar=  1.01152926662265E+05
 cg2d: Sum(rhs),rhsMax =  -5.74466850701813E+01  1.52611025622916E+00
(PID.TID 0000.0001)  ploadbar=  1.01153450138075E+05
 cg2d: Sum(rhs),rhsMax =  -5.72662090603105E+01  1.53158630176236E+00
(PID.TID 0000.0001)  ploadbar=  1.01153973613885E+05
 cg2d: Sum(rhs),rhsMax =  -5.70601683183325E+01  1.53780772078345E+00
(PID.TID 0000.0001)  ploadbar=  1.01154497089695E+05
 cg2d: Sum(rhs),rhsMax =  -5.68411767868173E+01  1.54444983057426E+00
(PID.TID 0000.0001)  ploadbar=  1.01155020565505E+05
 cg2d: Sum(rhs),rhsMax =  -5.66258973525877E+01  1.55107050921377E+00
(PID.TID 0000.0001)  ploadbar=  1.01155544041316E+05
 cg2d: Sum(rhs),rhsMax =  -5.64304909889979E+01  1.55722076227743E+00
(PID.TID 0000.0001)  ploadbar=  1.01156067517126E+05
 cg2d: Sum(rhs),rhsMax =  -5.62804686994821E+01  1.56207360081654E+00
(PID.TID 0000.0001)  ploadbar=  1.01156011617603E+05
 cg2d: Sum(rhs),rhsMax =  -5.61737732938288E+01  1.56566575159250E+00
(PID.TID 0000.0001)  ploadbar=  1.01155955718080E+05
 cg2d: Sum(rhs),rhsMax =  -5.61110255031621E+01  1.56796772805550E+00
(PID.TID 0000.0001)  ploadbar=  1.01155899818557E+05
 cg2d: Sum(rhs),rhsMax =  -5.60840350656243E+01  1.56920155100658E+00
(PID.TID 0000.0001)  ploadbar=  1.01155843919034E+05
 cg2d: Sum(rhs),rhsMax =  -5.60775935039966E+01  1.56979508461446E+00
(PID.TID 0000.0001)  ploadbar=  1.01155788019511E+05
 cg2d: Sum(rhs),rhsMax =  -5.60723397132306E+01  1.57028984069105E+00
(PID.TID 0000.0001)  ploadbar=  1.01155732119988E+05
 cg2d: Sum(rhs),rhsMax =  -5.60733396771890E+01  1.57069101216830E+00
(PID.TID 0000.0001)  ploadbar=  1.01154206823760E+05
 cg2d: Sum(rhs),rhsMax =  -5.60837394248617E+01  1.57090943125333E+00
(PID.TID 0000.0001)  ploadbar=  1.01152681527531E+05
 cg2d: Sum(rhs),rhsMax =  -5.60956813939665E+01  1.57116684699921E+00
(PID.TID 0000.0001)  ploadbar=  1.01151156231302E+05
 cg2d: Sum(rhs),rhsMax =  -5.61187164141350E+01  1.57119688019035E+00
(PID.TID 0000.0001)  ploadbar=  1.01149630935073E+05
 cg2d: Sum(rhs),rhsMax =  -5.62048773796097E+01  1.56954494539642E+00
(PID.TID 0000.0001)  ploadbar=  1.01148105638844E+05
 cg2d: Sum(rhs),rhsMax =  -5.63024036652298E+01  1.56766395517022E+00
(PID.TID 0000.0001)  ploadbar=  1.01146580342616E+05
 cg2d: Sum(rhs),rhsMax =  -5.63956320268853E+01  1.56588031489260E+00
(PID.TID 0000.0001)  ploadbar=  1.01146322106598E+05
 cg2d: Sum(rhs),rhsMax =  -5.65328963260069E+01  1.56285588620455E+00
(PID.TID 0000.0001)  ploadbar=  1.01146063870579E+05
 cg2d: Sum(rhs),rhsMax =  -5.67207147755476E+01  1.55843532946767E+00
(PID.TID 0000.0001)  ploadbar=  1.01145805634561E+05
 cg2d: Sum(rhs),rhsMax =  -5.69457926935010E+01  1.55301151468805E+00
(PID.TID 0000.0001)  ploadbar=  1.01145547398543E+05
 cg2d: Sum(rhs),rhsMax =  -5.71910052633285E+01  1.54706732884714E+00
(PID.TID 0000.0001)  ploadbar=  1.01145289162525E+05
 cg2d: Sum(rhs),rhsMax =  -5.74497082685851E+01  1.54079256008630E+00
(PID.TID 0000.0001)  ploadbar=  1.01145030926507E+05
 cg2d: Sum(rhs),rhsMax =  -5.77276451354752E+01  1.53412728224401E+00
(PID.TID 0000.0001)  ploadbar=  1.01145354874309E+05
 cg2d: Sum(rhs),rhsMax =  -5.78311343267264E+01  1.53219872342985E+00
(PID.TID 0000.0001)  ploadbar=  1.01145678822110E+05
 cg2d: Sum(rhs),rhsMax =  -5.75704422471684E+01  1.54002165995117E+00
(PID.TID 0000.0001)  ploadbar=  1.01146002769912E+05
 cg2d: Sum(rhs),rhsMax =  -5.72937757306216E+01  1.54841079194765E+00
(PID.TID 0000.0001)  ploadbar=  1.01146326717713E+05
 cg2d: Sum(rhs),rhsMax =  -5.70213639795668E+01  1.55683097197623E+00
(PID.TID 0000.0001)  ploadbar=  1.01146650665514E+05
 cg2d: Sum(rhs),rhsMax =  -5.67709249219041E+01  1.56478993144014E+00
(PID.TID 0000.0001)  ploadbar=  1.01146974613316E+05
 cg2d: Sum(rhs),rhsMax =  -5.65507961972450E+01  1.57190363902352E+00
(PID.TID 0000.0001)  ploadbar=  1.01147345711542E+05
 cg2d: Sum(rhs),rhsMax =  -5.63712586708205E+01  1.57786229672038E+00
(PID.TID 0000.0001)  ploadbar=  1.01147716809768E+05
 cg2d: Sum(rhs),rhsMax =  -5.62251569813151E+01  1.58284505668325E+00
(PID.TID 0000.0001)  ploadbar=  1.01148087907994E+05
 cg2d: Sum(rhs),rhsMax =  -5.61035674744967E+01  1.58709011357595E+00
(PID.TID 0000.0001)  ploadbar=  1.01148459006220E+05
 cg2d: Sum(rhs),rhsMax =  -5.59964307627962E+01  1.59087684606370E+00
(PID.TID 0000.0001)  ploadbar=  1.01148830104446E+05
 cg2d: Sum(rhs),rhsMax =  -5.58962863883652E+01  1.59441466890089E+00
(PID.TID 0000.0001)  ploadbar=  1.01149201202671E+05
 cg2d: Sum(rhs),rhsMax =  -5.58217253016893E+01  1.59730037461979E+00
(PID.TID 0000.0001)  ploadbar=  1.01150089288684E+05
 cg2d: Sum(rhs),rhsMax =  -5.57708503915270E+01  1.59958421928560E+00
(PID.TID 0000.0001)  ploadbar=  1.01150977374696E+05
 cg2d: Sum(rhs),rhsMax =  -5.57422526123274E+01  1.60130306525291E+00
(PID.TID 0000.0001)  ploadbar=  1.01151865460709E+05
 cg2d: Sum(rhs),rhsMax =  -5.57374994787307E+01  1.60241031325685E+00
(PID.TID 0000.0001)  ploadbar=  1.01152753546721E+05
 cg2d: Sum(rhs),rhsMax =  -5.57543981601279E+01  1.60296587179935E+00
(PID.TID 0000.0001)  ploadbar=  1.01153641632734E+05
 cg2d: Sum(rhs),rhsMax =  -5.57890093576158E+01  1.60307824057633E+00
(PID.TID 0000.0001)  ploadbar=  1.01154529718746E+05
 cg2d: Sum(rhs),rhsMax =  -5.56022400505192E+01  1.60957914349582E+00
(PID.TID 0000.0001)  ploadbar=  1.01155681263170E+05
 cg2d: Sum(rhs),rhsMax =  -5.54775318284496E+01  1.61432682277255E+00
(PID.TID 0000.0001)  ploadbar=  1.01156832807593E+05
 cg2d: Sum(rhs),rhsMax =  -5.54044408867548E+01  1.61760438138445E+00
(PID.TID 0000.0001)  ploadbar=  1.01157984352016E+05
 cg2d: Sum(rhs),rhsMax =  -5.54212854475449E+01  1.61828587974049E+00
(PID.TID 0000.0001)  ploadbar=  1.01159135896440E+05
 cg2d: Sum(rhs),rhsMax =  -5.54920930089531E+01  1.61741762775562E+00
(PID.TID 0000.0001)  ploadbar=  1.01160287440863E+05
 cg2d: Sum(rhs),rhsMax =  -5.55539448767176E+01  1.61683442093845E+00
(PID.TID 0000.0001)  ploadbar=  1.01161438985287E+05
 cg2d: Sum(rhs),rhsMax =  -5.55903134251535E+01  1.61704079475592E+00
(PID.TID 0000.0001)  ploadbar=  1.01161319897862E+05
 cg2d: Sum(rhs),rhsMax =  -5.56001763606883E+01  1.61806563776530E+00
(PID.TID 0000.0001)  ploadbar=  1.01161200810437E+05
 cg2d: Sum(rhs),rhsMax =  -5.55885366261745E+01  1.61976676188100E+00
(PID.TID 0000.0001)  ploadbar=  1.01161081723012E+05
 cg2d: Sum(rhs),rhsMax =  -5.54534229006315E+01  1.62513190600488E+00
(PID.TID 0000.0001)  ploadbar=  1.01160962635587E+05
 cg2d: Sum(rhs),rhsMax =  -5.52389420069837E+01  1.63291941353700E+00
(PID.TID 0000.0001)  ploadbar=  1.01160843548162E+05
 cg2d: Sum(rhs),rhsMax =  -5.50616197302077E+01  1.63971370008733E+00
(PID.TID 0000.0001)  ploadbar=  1.01160724460737E+05
 cg2d: Sum(rhs),rhsMax =  -5.49270258586156E+01  1.64520483400240E+00
(PID.TID 0000.0001)  ploadbar=  1.01161073051044E+05
 cg2d: Sum(rhs),rhsMax =  -5.48454999524726E+01  1.64905806867790E+00
(PID.TID 0000.0001)  ploadbar=  1.01161421641351E+05
 cg2d: Sum(rhs),rhsMax =  -5.48189309572924E+01  1.65119987965546E+00
(PID.TID 0000.0001)  ploadbar=  1.01161770231659E+05
 cg2d: Sum(rhs),rhsMax =  -5.48427162411255E+01  1.65176191490944E+00
(PID.TID 0000.0001)  ploadbar=  1.01162118821966E+05
 cg2d: Sum(rhs),rhsMax =  -5.49125140120398E+01  1.65088076734151E+00
(PID.TID 0000.0001)  ploadbar=  1.01162467412273E+05
 cg2d: Sum(rhs),rhsMax =  -5.50250528883758E+01  1.64866308843576E+00
(PID.TID 0000.0001)  ploadbar=  1.01162816002581E+05
 cg2d: Sum(rhs),rhsMax =  -5.51635843163789E+01  1.64571559641155E+00
(PID.TID 0000.0001)  ploadbar=  1.01163528220219E+05
 cg2d: Sum(rhs),rhsMax =  -5.53057417714537E+01  1.64271320116658E+00
(PID.TID 0000.0001)  ploadbar=  1.01164240437858E+05
 cg2d: Sum(rhs),rhsMax =  -5.54360191094372E+01  1.64011651609379E+00
(PID.TID 0000.0001)  ploadbar=  1.01164952655496E+05
 cg2d: Sum(rhs),rhsMax =  -5.55471868732669E+01  1.63813603577829E+00
(PID.TID 0000.0001)  ploadbar=  1.01165664873135E+05
 cg2d: Sum(rhs),rhsMax =  -5.56178519922070E+01  1.63739686617725E+00
(PID.TID 0000.0001)  ploadbar=  1.01166377090774E+05
 cg2d: Sum(rhs),rhsMax =  -5.56162499215046E+01  1.63883008413094E+00
(PID.TID 0000.0001)  ploadbar=  1.01167089308412E+05
 cg2d: Sum(rhs),rhsMax =  -5.55434474322054E+01  1.64230933785044E+00
(PID.TID 0000.0001)  ploadbar=  1.01166832809566E+05
 cg2d: Sum(rhs),rhsMax =  -5.54111803628520E+01  1.64751432343020E+00
(PID.TID 0000.0001)  ploadbar=  1.01166576310719E+05
 cg2d: Sum(rhs),rhsMax =  -5.52287225220487E+01  1.65420255128931E+00
(PID.TID 0000.0001)  ploadbar=  1.01166319811872E+05
 cg2d: Sum(rhs),rhsMax =  -5.50092146628065E+01  1.66201462137641E+00
(PID.TID 0000.0001)  ploadbar=  1.01166063313026E+05
 cg2d: Sum(rhs),rhsMax =  -5.47650241454094E+01  1.67060707398057E+00
(PID.TID 0000.0001)  ploadbar=  1.01165806814179E+05
 cg2d: Sum(rhs),rhsMax =  -5.45058185700595E+01  1.67970444626012E+00
(PID.TID 0000.0001)  ploadbar=  1.01165550315333E+05
 cg2d: Sum(rhs),rhsMax =  -5.42807666016761E+01  1.68788798321904E+00
(PID.TID 0000.0001)  ploadbar=  1.01165170948990E+05
 cg2d: Sum(rhs),rhsMax =  -5.41059634066372E+01  1.69462806183066E+00
(PID.TID 0000.0001)  ploadbar=  1.01164791582648E+05
 cg2d: Sum(rhs),rhsMax =  -5.39804557865275E+01  1.69992425491505E+00
(PID.TID 0000.0001)  ploadbar=  1.01164412216306E+05
 cg2d: Sum(rhs),rhsMax =  -5.38932132888860E+01  1.70410113055286E+00
(PID.TID 0000.0001)  ploadbar=  1.01164032849964E+05
 cg2d: Sum(rhs),rhsMax =  -5.38839253935041E+01  1.70588890148851E+00
(PID.TID 0000.0001)  ploadbar=  1.01163653483622E+05
 cg2d: Sum(rhs),rhsMax =  -5.39033247482932E+01  1.70684113636063E+00
(PID.TID 0000.0001)  ploadbar=  1.01163274117280E+05
 cg2d: Sum(rhs),rhsMax =  -5.38558107281526E+01  1.70983024603912E+00
(PID.TID 0000.0001)  ploadbar=  1.01162915977276E+05
 cg2d: Sum(rhs),rhsMax =  -5.37477468067654E+01  1.71466796540787E+00
(PID.TID 0000.0001)  ploadbar=  1.01162557837273E+05
 cg2d: Sum(rhs),rhsMax =  -5.35841742821706E+01  1.72121999149263E+00
(PID.TID 0000.0001)  ploadbar=  1.01162199697269E+05
 cg2d: Sum(rhs),rhsMax =  -5.33793461916764E+01  1.72906192147092E+00
(PID.TID 0000.0001)  ploadbar=  1.01161841557265E+05
 cg2d: Sum(rhs),rhsMax =  -5.31529201748457E+01  1.73758633952182E+00
(PID.TID 0000.0001)  ploadbar=  1.01161483417261E+05
 cg2d: Sum(rhs),rhsMax =  -5.26553046184902E+01  1.75509375005508E+00
(PID.TID 0000.0001)  ploadbar=  1.01161125277257E+05
 cg2d: Sum(rhs),rhsMax =  -5.20181627528738E+01  1.77771583040317E+00
(PID.TID 0000.0001)  ploadbar=  1.01160517389184E+05
 cg2d: Sum(rhs),rhsMax =  -5.14594217204014E+01  1.79818041637961E+00
(PID.TID 0000.0001)  ploadbar=  1.01159909501111E+05
 cg2d: Sum(rhs),rhsMax =  -5.09798454668973E+01  1.81629482176527E+00
(PID.TID 0000.0001)  ploadbar=  1.01159301613038E+05
 cg2d: Sum(rhs),rhsMax =  -5.05711633485799E+01  1.83220818587085E+00
(PID.TID 0000.0001)  ploadbar=  1.01158693724965E+05
 cg2d: Sum(rhs),rhsMax =  -5.02184250773327E+01  1.84634814576084E+00
(PID.TID 0000.0001)  ploadbar=  1.01158085836892E+05
 cg2d: Sum(rhs),rhsMax =  -4.99056743806761E+01  1.85922207863635E+00
(PID.TID 0000.0001)  ploadbar=  1.01157477948819E+05
 cg2d: Sum(rhs),rhsMax =  -4.96356966759093E+01  1.87060830886196E+00
(PID.TID 0000.0001)  ploadbar=  1.01157134353646E+05
 cg2d: Sum(rhs),rhsMax =  -4.93888920869115E+01  1.88119968683368E+00
(PID.TID 0000.0001)  ploadbar=  1.01156790758474E+05
 cg2d: Sum(rhs),rhsMax =  -4.91528633450051E+01  1.89144482926086E+00
(PID.TID 0000.0001)  ploadbar=  1.01156447163301E+05
 cg2d: Sum(rhs),rhsMax =  -4.89198224305116E+01  1.90163640397857E+00
(PID.TID 0000.0001)  ploadbar=  1.01156103568128E+05
 cg2d: Sum(rhs),rhsMax =  -4.86876188909638E+01  1.91185502669633E+00
(PID.TID 0000.0001)  ploadbar=  1.01155759972955E+05
 cg2d: Sum(rhs),rhsMax =  -4.84587324764250E+01  1.92200152313984E+00
(PID.TID 0000.0001)  ploadbar=  1.01155416377783E+05
 cg2d: Sum(rhs),rhsMax =  -4.82365303440202E+01  1.93198865919287E+00
(PID.TID 0000.0001)  ploadbar=  1.01155505699089E+05
 cg2d: Sum(rhs),rhsMax =  -4.80270050587439E+01  1.94156570866509E+00
(PID.TID 0000.0001)  ploadbar=  1.01155595020395E+05
 cg2d: Sum(rhs),rhsMax =  -4.78332871177293E+01  1.95059261189330E+00
(PID.TID 0000.0001)  ploadbar=  1.01155684341701E+05
 cg2d: Sum(rhs),rhsMax =  -4.76592398488697E+01  1.95889411878327E+00
(PID.TID 0000.0001)  ploadbar=  1.01155773663007E+05
 cg2d: Sum(rhs),rhsMax =  -4.75058444768040E+01  1.96640994161707E+00
(PID.TID 0000.0001)  ploadbar=  1.01155862984314E+05
 cg2d: Sum(rhs),rhsMax =  -4.73697480873692E+01  1.97325980983097E+00
(PID.TID 0000.0001)  ploadbar=  1.01155952305620E+05
 cg2d: Sum(rhs),rhsMax =  -4.72357648489601E+01  1.97997509832595E+00
(PID.TID 0000.0001)  ploadbar=  1.01155493486280E+05
 cg2d: Sum(rhs),rhsMax =  -4.71030891386365E+01  1.98658608604274E+00
(PID.TID 0000.0001)  ploadbar=  1.01155034666940E+05
 cg2d: Sum(rhs),rhsMax =  -4.69693807983653E+01  1.99319018668733E+00
(PID.TID 0000.0001)  ploadbar=  1.01154575847600E+05
 cg2d: Sum(rhs),rhsMax =  -4.68897382207925E+01  1.99743611662400E+00
(PID.TID 0000.0001)  ploadbar=  1.01154117028260E+05
 cg2d: Sum(rhs),rhsMax =  -4.67986127248546E+01  2.00210025641280E+00
(PID.TID 0000.0001)  ploadbar=  1.01153658208920E+05
 cg2d: Sum(rhs),rhsMax =  -4.66980874319674E+01  2.00710316079760E+00
(PID.TID 0000.0001)  ploadbar=  1.01153199389580E+05
 cg2d: Sum(rhs),rhsMax =  -4.66178361366170E+01  2.01132821293548E+00
(PID.TID 0000.0001)  ploadbar=  1.01153067957223E+05
 cg2d: Sum(rhs),rhsMax =  -4.65536518745434E+01  2.01494391267137E+00
(PID.TID 0000.0001)  ploadbar=  1.01152936524867E+05
 cg2d: Sum(rhs),rhsMax =  -4.65105683287096E+01  2.01772808136642E+00
(PID.TID 0000.0001)  ploadbar=  1.01152805092510E+05
 cg2d: Sum(rhs),rhsMax =  -4.64927299926857E+01  2.01949310301326E+00
(PID.TID 0000.0001)  ploadbar=  1.01152673660154E+05
 cg2d: Sum(rhs),rhsMax =  -4.65012245945152E+01  2.02018464305043E+00
(PID.TID 0000.0001)  ploadbar=  1.01152542227797E+05
 cg2d: Sum(rhs),rhsMax =  -4.65343300950319E+01  2.01987519232440E+00
(PID.TID 0000.0001)  ploadbar=  1.01152410795441E+05
 cg2d: Sum(rhs),rhsMax =  -4.65718544117557E+01  2.01936354476088E+00
(PID.TID 0000.0001)  ploadbar=  1.01152206145133E+05
 cg2d: Sum(rhs),rhsMax =  -4.66130543081416E+01  2.01868460415514E+00
(PID.TID 0000.0001)  ploadbar=  1.01152001494825E+05
 cg2d: Sum(rhs),rhsMax =  -4.66496602313008E+01  2.01819813299935E+00
(PID.TID 0000.0001)  ploadbar=  1.01151796844517E+05
 cg2d: Sum(rhs),rhsMax =  -4.66749216805998E+01  2.01819740821580E+00
(PID.TID 0000.0001)  ploadbar=  1.01151592194209E+05
 cg2d: Sum(rhs),rhsMax =  -4.66866130461899E+01  2.01877652838821E+00
(PID.TID 0000.0001)  ploadbar=  1.01151387543901E+05
 cg2d: Sum(rhs),rhsMax =  -4.66861654744656E+01  2.01987078695092E+00
(PID.TID 0000.0001)  ploadbar=  1.01151182893593E+05
 cg2d: Sum(rhs),rhsMax =  -4.66633953021291E+01  2.02197044030296E+00
(PID.TID 0000.0001)  ploadbar=  1.01151623941555E+05
 cg2d: Sum(rhs),rhsMax =  -4.66365752390521E+01  2.02428127384553E+00
(PID.TID 0000.0001)  ploadbar=  1.01152064989518E+05
 cg2d: Sum(rhs),rhsMax =  -4.66117079998570E+01  2.02654057749268E+00
(PID.TID 0000.0001)  ploadbar=  1.01152506037481E+05
 cg2d: Sum(rhs),rhsMax =  -4.65917315530872E+01  2.02861431805594E+00
(PID.TID 0000.0001)  ploadbar=  1.01152947085444E+05
 cg2d: Sum(rhs),rhsMax =  -4.65804834522617E+01  2.03033016902572E+00
(PID.TID 0000.0001)  ploadbar=  1.01153388133406E+05
 cg2d: Sum(rhs),rhsMax =  -4.65793661470308E+01  2.03161677695456E+00
(PID.TID 0000.0001)  ploadbar=  1.01153829181369E+05
 cg2d: Sum(rhs),rhsMax =  -4.65951253183283E+01  2.03211649012117E+00
(PID.TID 0000.0001)  ploadbar=  1.01154224642776E+05
 cg2d: Sum(rhs),rhsMax =  -4.66194566328515E+01  2.03218802882650E+00
(PID.TID 0000.0001)  ploadbar=  1.01154620104183E+05
 cg2d: Sum(rhs),rhsMax =  -4.66491708785633E+01  2.03196993258723E+00
(PID.TID 0000.0001)  ploadbar=  1.01155015565589E+05
 cg2d: Sum(rhs),rhsMax =  -4.66813098415242E+01  2.03158787617628E+00
(PID.TID 0000.0001)  ploadbar=  1.01155411026996E+05
 cg2d: Sum(rhs),rhsMax =  -4.67134317603836E+01  2.03114732217941E+00
(PID.TID 0000.0001)  ploadbar=  1.01155806488403E+05
 cg2d: Sum(rhs),rhsMax =  -4.67449389569488E+01  2.03067174704936E+00
(PID.TID 0000.0001)  ploadbar=  1.01156201949810E+05
 cg2d: Sum(rhs),rhsMax =  -4.67863563761487E+01  2.02989721881850E+00
(PID.TID 0000.0001)  ploadbar=  1.01156525261894E+05
 cg2d: Sum(rhs),rhsMax =  -4.68317327175845E+01  2.02908185045731E+00
(PID.TID 0000.0001)  ploadbar=  1.01156848573978E+05
 cg2d: Sum(rhs),rhsMax =  -4.68806947613986E+01  2.02823913804297E+00
(PID.TID 0000.0001)  ploadbar=  1.01157171886062E+05
 cg2d: Sum(rhs),rhsMax =  -4.69334407663550E+01  2.02736077902313E+00
(PID.TID 0000.0001)  ploadbar=  1.01157495198146E+05
 cg2d: Sum(rhs),rhsMax =  -4.69890539150840E+01  2.02648520634300E+00
(PID.TID 0000.0001)  ploadbar=  1.01157818510230E+05
 cg2d: Sum(rhs),rhsMax =  -4.70460937628876E+01  2.02567004944176E+00
(PID.TID 0000.0001)  ploadbar=  1.01158141822315E+05
 cg2d: Sum(rhs),rhsMax =  -4.70999037780609E+01  2.02498345888699E+00
(PID.TID 0000.0001)  ploadbar=  1.01157684243126E+05
 cg2d: Sum(rhs),rhsMax =  -4.71456384474394E+01  2.02463454149421E+00
(PID.TID 0000.0001)  ploadbar=  1.01157226663938E+05
 cg2d: Sum(rhs),rhsMax =  -4.71795024149423E+01  2.02478811463343E+00
(PID.TID 0000.0001)  ploadbar=  1.01156769084749E+05
 cg2d: Sum(rhs),rhsMax =  -4.71991019107813E+01  2.02554516988423E+00
(PID.TID 0000.0001)  ploadbar=  1.01156311505561E+05
 cg2d: Sum(rhs),rhsMax =  -4.72033715006102E+01  2.02695228461307E+00
(PID.TID 0000.0001)  ploadbar=  1.01155853926372E+05
 cg2d: Sum(rhs),rhsMax =  -4.71927699377765E+01  2.02899017300709E+00
(PID.TID 0000.0001)  ploadbar=  1.01155396347184E+05
 cg2d: Sum(rhs),rhsMax =  -4.71516923243756E+01  2.03235111760103E+00
(PID.TID 0000.0001)  ploadbar=  1.01155025421505E+05
 cg2d: Sum(rhs),rhsMax =  -4.70836419472436E+01  2.03689047689462E+00
(PID.TID 0000.0001)  ploadbar=  1.01154654495827E+05
 cg2d: Sum(rhs),rhsMax =  -4.69904084235453E+01  2.04254422620031E+00
(PID.TID 0000.0001)  ploadbar=  1.01154283570148E+05
 cg2d: Sum(rhs),rhsMax =  -4.68741351051388E+01  2.04923427955853E+00
(PID.TID 0000.0001)  ploadbar=  1.01153912644470E+05
 cg2d: Sum(rhs),rhsMax =  -4.67374673044367E+01  2.05686089863100E+00
(PID.TID 0000.0001)  ploadbar=  1.01153541718791E+05
 cg2d: Sum(rhs),rhsMax =  -4.65812600675069E+01  2.06540264415005E+00
(PID.TID 0000.0001)  ploadbar=  1.01153170793113E+05
 cg2d: Sum(rhs),rhsMax =  -4.64093476081351E+01  2.07461517335550E+00
(PID.TID 0000.0001)  ploadbar=  1.01152644360425E+05
 cg2d: Sum(rhs),rhsMax =  -4.62198955064721E+01  2.08459492335830E+00
(PID.TID 0000.0001)  ploadbar=  1.01152117927737E+05
 cg2d: Sum(rhs),rhsMax =  -4.60167790926227E+01  2.09518611385861E+00
(PID.TID 0000.0001)  ploadbar=  1.01151591495049E+05
 cg2d: Sum(rhs),rhsMax =  -4.58090887520876E+01  2.10598891422473E+00
(PID.TID 0000.0001)  ploadbar=  1.01151065062361E+05
 cg2d: Sum(rhs),rhsMax =  -4.56036769186162E+01  2.11669254232860E+00
(PID.TID 0000.0001)  ploadbar=  1.01150538629673E+05
 cg2d: Sum(rhs),rhsMax =  -4.54016616694637E+01  2.12724011380875E+00
(PID.TID 0000.0001)  ploadbar=  1.01150012196985E+05
 cg2d: Sum(rhs),rhsMax =  -4.52182300797712E+01  2.13707157444349E+00
(PID.TID 0000.0001)  ploadbar=  1.01149367935828E+05
 cg2d: Sum(rhs),rhsMax =  -4.50751075659235E+01  2.14513122692978E+00
(PID.TID 0000.0001)  ploadbar=  1.01148723674672E+05
 cg2d: Sum(rhs),rhsMax =  -4.49797693187312E+01  2.15102314226502E+00
(PID.TID 0000.0001)  ploadbar=  1.01148079413515E+05
 cg2d: Sum(rhs),rhsMax =  -4.49350269702131E+01  2.15458137170541E+00
(PID.TID 0000.0001)  ploadbar=  1.01147435152358E+05
 cg2d: Sum(rhs),rhsMax =  -4.49484858614944E+01  2.15541813188766E+00
(PID.TID 0000.0001)  ploadbar=  1.01146790891202E+05
 cg2d: Sum(rhs),rhsMax =  -4.50206067371814E+01  2.15351012865007E+00
(PID.TID 0000.0001)  ploadbar=  1.01146146630045E+05
 cg2d: Sum(rhs),rhsMax =  -4.51387617295185E+01  2.14938198137006E+00
(PID.TID 0000.0001)  ploadbar=  1.01145156327789E+05
 cg2d: Sum(rhs),rhsMax =  -4.52930158481806E+01  2.14353578674196E+00
(PID.TID 0000.0001)  ploadbar=  1.01144166025532E+05
 cg2d: Sum(rhs),rhsMax =  -4.54768021625951E+01  2.13631281197747E+00
(PID.TID 0000.0001)  ploadbar=  1.01143175723275E+05
 cg2d: Sum(rhs),rhsMax =  -4.56907819031615E+01  2.12771552791526E+00
(PID.TID 0000.0001)  ploadbar=  1.01142185421018E+05
 cg2d: Sum(rhs),rhsMax =  -4.59305750489890E+01  2.11798289763429E+00
(PID.TID 0000.0001)  ploadbar=  1.01141195118762E+05
 cg2d: Sum(rhs),rhsMax =  -4.61901351875845E+01  2.10742075861214E+00
(PID.TID 0000.0001)  ploadbar=  1.01140204816505E+05
 cg2d: Sum(rhs),rhsMax =  -4.64605805557243E+01  2.09647690318139E+00
(PID.TID 0000.0001)  ploadbar=  1.01138781391385E+05
 cg2d: Sum(rhs),rhsMax =  -4.67290515947715E+01  2.08573958981547E+00
(PID.TID 0000.0001)  ploadbar=  1.01137357966265E+05
 cg2d: Sum(rhs),rhsMax =  -4.69775938159039E+01  2.07600116550968E+00
(PID.TID 0000.0001)  ploadbar=  1.01135934541145E+05
 cg2d: Sum(rhs),rhsMax =  -4.71891351193989E+01  2.06798610124311E+00
(PID.TID 0000.0001)  ploadbar=  1.01134511116024E+05
 cg2d: Sum(rhs),rhsMax =  -4.73553800709722E+01  2.06200961168830E+00
(PID.TID 0000.0001)  ploadbar=  1.01133087690904E+05
 cg2d: Sum(rhs),rhsMax =  -4.74857066765315E+01  2.05762607794922E+00
(PID.TID 0000.0001)  ploadbar=  1.01131664265784E+05
 cg2d: Sum(rhs),rhsMax =  -4.75984651733760E+01  2.05394022399006E+00
(PID.TID 0000.0001)  ploadbar=  1.01131563453135E+05
 cg2d: Sum(rhs),rhsMax =  -4.76951502997249E+01  2.05087423453496E+00
(PID.TID 0000.0001)  ploadbar=  1.01131462640486E+05
 cg2d: Sum(rhs),rhsMax =  -4.77806973042343E+01  2.04821310743633E+00
(PID.TID 0000.0001)  ploadbar=  1.01131361827837E+05
 cg2d: Sum(rhs),rhsMax =  -4.78571867449084E+01  2.04586312538310E+00
(PID.TID 0000.0001)  ploadbar=  1.01131261015188E+05
 cg2d: Sum(rhs),rhsMax =  -4.79219721407290E+01  2.04393819273428E+00
(PID.TID 0000.0001)  ploadbar=  1.01131160202539E+05
 cg2d: Sum(rhs),rhsMax =  -4.79693414763138E+01  2.04267218566317E+00
(PID.TID 0000.0001)  ploadbar=  1.01131059389890E+05
 cg2d: Sum(rhs),rhsMax =  -4.80089824285694E+01  2.04178990618498E+00
(PID.TID 0000.0001)  ploadbar=  1.01132372049832E+05
 cg2d: Sum(rhs),rhsMax =  -4.80381327853282E+01  2.04140624087255E+00
(PID.TID 0000.0001)  ploadbar=  1.01133684709774E+05
 cg2d: Sum(rhs),rhsMax =  -4.80506710255119E+01  2.04178069192105E+00
(PID.TID 0000.0001)  ploadbar=  1.01134997369716E+05
 cg2d: Sum(rhs),rhsMax =  -4.80427489064248E+01  2.04307571859393E+00
(PID.TID 0000.0001)  ploadbar=  1.01136310029657E+05
 cg2d: Sum(rhs),rhsMax =  -4.80120295606550E+01  2.04538762973497E+00
(PID.TID 0000.0001)  ploadbar=  1.01137622689599E+05
 cg2d: Sum(rhs),rhsMax =  -4.79630853142000E+01  2.04851889878551E+00
(PID.TID 0000.0001)  ploadbar=  1.01138935349541E+05
 cg2d: Sum(rhs),rhsMax =  -4.79042597458679E+01  2.05208064228355E+00
(PID.TID 0000.0001)  ploadbar=  1.01140649454817E+05
 cg2d: Sum(rhs),rhsMax =  -4.78478265730213E+01  2.05555262409086E+00
(PID.TID 0000.0001)  ploadbar=  1.01142363560092E+05
 cg2d: Sum(rhs),rhsMax =  -4.77995609630867E+01  2.05868884274934E+00
(PID.TID 0000.0001)  ploadbar=  1.01144077665367E+05
 cg2d: Sum(rhs),rhsMax =  -4.77595796879079E+01  2.06148331270563E+00
(PID.TID 0000.0001)  ploadbar=  1.01145791770643E+05
 cg2d: Sum(rhs),rhsMax =  -4.77197564868707E+01  2.06428846432505E+00
(PID.TID 0000.0001)  ploadbar=  1.01147505875918E+05
 cg2d: Sum(rhs),rhsMax =  -4.76639430926132E+01  2.06779717999614E+00
(PID.TID 0000.0001)  ploadbar=  1.01149219981193E+05
 cg2d: Sum(rhs),rhsMax =  -4.75828421605774E+01  2.07241713180882E+00
(PID.TID 0000.0001)  ploadbar=  1.01150577622345E+05
 cg2d: Sum(rhs),rhsMax =  -4.74699052333347E+01  2.07845169113764E+00
(PID.TID 0000.0001)  ploadbar=  1.01151935263497E+05
 cg2d: Sum(rhs),rhsMax =  -4.73347027057484E+01  2.08550029579632E+00
(PID.TID 0000.0001)  ploadbar=  1.01153292904649E+05
 cg2d: Sum(rhs),rhsMax =  -4.71602395930480E+01  2.09432809941522E+00
(PID.TID 0000.0001)  ploadbar=  1.01154650545800E+05
 cg2d: Sum(rhs),rhsMax =  -4.69516708192915E+01  2.10473933105865E+00
(PID.TID 0000.0001)  ploadbar=  1.01156008186952E+05
 cg2d: Sum(rhs),rhsMax =  -4.67212650151344E+01  2.11621897483473E+00
(PID.TID 0000.0001)  ploadbar=  1.01157365828104E+05
 cg2d: Sum(rhs),rhsMax =  -4.64791683040438E+01  2.12830324059773E+00
(PID.TID 0000.0001)  ploadbar=  1.01158150129743E+05
 cg2d: Sum(rhs),rhsMax =  -4.62336730903295E+01  2.14062401506720E+00
(PID.TID 0000.0001)  ploadbar=  1.01158934431382E+05
 cg2d: Sum(rhs),rhsMax =  -4.59910574443610E+01  2.15289388335306E+00
(PID.TID 0000.0001)  ploadbar=  1.01159718733021E+05
 cg2d: Sum(rhs),rhsMax =  -4.57543261525606E+01  2.16496830891830E+00
(PID.TID 0000.0001)  ploadbar=  1.01160503034660E+05
 cg2d: Sum(rhs),rhsMax =  -4.55223298762587E+01  2.17689627355447E+00
(PID.TID 0000.0001)  ploadbar=  1.01161287336299E+05
 cg2d: Sum(rhs),rhsMax =  -4.52901818893455E+01  2.18890626580032E+00
(PID.TID 0000.0001)  ploadbar=  1.01162071637938E+05
 cg2d: Sum(rhs),rhsMax =  -4.50604189596429E+01  2.20097677744548E+00
(PID.TID 0000.0001)  ploadbar=  1.01162962201324E+05
 cg2d: Sum(rhs),rhsMax =  -4.48301423422347E+01  2.21324396167863E+00
(PID.TID 0000.0001)  ploadbar=  1.01163852764709E+05
 cg2d: Sum(rhs),rhsMax =  -4.45985496187471E+01  2.22575611505535E+00
(PID.TID 0000.0001)  ploadbar=  1.01164743328094E+05
 cg2d: Sum(rhs),rhsMax =  -4.43667846639473E+01  2.23846270796273E+00
(PID.TID 0000.0001)  ploadbar=  1.01165633891479E+05
 cg2d: Sum(rhs),rhsMax =  -4.41380595551408E+01  2.25120182825510E+00
(PID.TID 0000.0001)  ploadbar=  1.01166524454865E+05
 cg2d: Sum(rhs),rhsMax =  -4.39162018751890E+01  2.26376475895782E+00
(PID.TID 0000.0001)  ploadbar=  1.01167415018250E+05
 cg2d: Sum(rhs),rhsMax =  -4.36995691832261E+01  2.27610509056355E+00
(PID.TID 0000.0001)  ploadbar=  1.01168559540231E+05
 cg2d: Sum(rhs),rhsMax =  -4.34887166971395E+01  2.28819357858062E+00
(PID.TID 0000.0001)  ploadbar=  1.01169704062213E+05
 cg2d: Sum(rhs),rhsMax =  -4.32853627371385E+01  2.29992725765644E+00
(PID.TID 0000.0001)  ploadbar=  1.01170848584194E+05
 cg2d: Sum(rhs),rhsMax =  -4.30903769481059E+01  2.31124752149536E+00
(PID.TID 0000.0001)  ploadbar=  1.01171993106176E+05
 cg2d: Sum(rhs),rhsMax =  -4.29039622769516E+01  2.32213798054486E+00
(PID.TID 0000.0001)  ploadbar=  1.01173137628158E+05
 cg2d: Sum(rhs),rhsMax =  -4.27261566052370E+01  2.33258970137651E+00
(PID.TID 0000.0001)  ploadbar=  1.01174282150139E+05
 cg2d: Sum(rhs),rhsMax =  -4.25675593671131E+01  2.34205880596694E+00
(PID.TID 0000.0001)  ploadbar=  1.01175562373623E+05
 cg2d: Sum(rhs),rhsMax =  -4.24359323436629E+01  2.35009380344720E+00
(PID.TID 0000.0001)  ploadbar=  1.01176842597107E+05
 cg2d: Sum(rhs),rhsMax =  -4.23365383039094E+01  2.35637633286064E+00
(PID.TID 0000.0001)  ploadbar=  1.01178122820591E+05
 cg2d: Sum(rhs),rhsMax =  -4.22720507739483E+01  2.36072976143934E+00
(PID.TID 0000.0001)  ploadbar=  1.01179403044075E+05
 cg2d: Sum(rhs),rhsMax =  -4.22428124690331E+01  2.36311556603222E+00
(PID.TID 0000.0001)  ploadbar=  1.01180683267559E+05
 cg2d: Sum(rhs),rhsMax =  -4.22479300678344E+01  2.36357711450979E+00
(PID.TID 0000.0001)  ploadbar=  1.01181963491043E+05
 cg2d: Sum(rhs),rhsMax =  -4.22696867185668E+01  2.36303819578577E+00
(PID.TID 0000.0001)  ploadbar=  1.01183880665940E+05
 cg2d: Sum(rhs),rhsMax =  -4.22979193311686E+01  2.36206307792440E+00
(PID.TID 0000.0001)  ploadbar=  1.01185797840837E+05
 cg2d: Sum(rhs),rhsMax =  -4.23244129296277E+01  2.36111120147048E+00
(PID.TID 0000.0001)  ploadbar=  1.01187715015734E+05
 cg2d: Sum(rhs),rhsMax =  -4.23447244354727E+01  2.36043215838217E+00
(PID.TID 0000.0001)  ploadbar=  1.01189632190632E+05
 cg2d: Sum(rhs),rhsMax =  -4.23582470276913E+01  2.36005757039295E+00
(PID.TID 0000.0001)  ploadbar=  1.01191549365529E+05
 cg2d: Sum(rhs),rhsMax =  -4.23689293559257E+01  2.35976690477578E+00
(PID.TID 0000.0001)  ploadbar=  1.01193466540426E+05
 cg2d: Sum(rhs),rhsMax =  -4.23723594542119E+01  2.35993468316401E+00
(PID.TID 0000.0001)  ploadbar=  1.01195279226862E+05
 cg2d: Sum(rhs),rhsMax =  -4.23736244951803E+01  2.36027391480803E+00
(PID.TID 0000.0001)  ploadbar=  1.01197091913298E+05
 cg2d: Sum(rhs),rhsMax =  -4.23806892816147E+01  2.36034355322443E+00
(PID.TID 0000.0001)  ploadbar=  1.01198904599734E+05
 cg2d: Sum(rhs),rhsMax =  -4.23896753164893E+01  2.36035423112698E+00
(PID.TID 0000.0001)  ploadbar=  1.01200717286170E+05
 cg2d: Sum(rhs),rhsMax =  -4.23986627080194E+01  2.36041866327563E+00
(PID.TID 0000.0001)  ploadbar=  1.01202529972606E+05
 cg2d: Sum(rhs),rhsMax =  -4.24019921556774E+01  2.36085069864590E+00
(PID.TID 0000.0001)  ploadbar=  1.01204342659042E+05
 cg2d: Sum(rhs),rhsMax =  -4.24144362793845E+01  2.36082316377542E+00
(PID.TID 0000.0001)  ploadbar=  1.01203660867392E+05
 cg2d: Sum(rhs),rhsMax =  -4.24328971424126E+01  2.36051094611558E+00
(PID.TID 0000.0001)  ploadbar=  1.01202979075743E+05
 cg2d: Sum(rhs),rhsMax =  -4.24627766386503E+01  2.35961871821929E+00
(PID.TID 0000.0001)  ploadbar=  1.01202297284093E+05
 cg2d: Sum(rhs),rhsMax =  -4.25115243930481E+01  2.35773975999180E+00
(PID.TID 0000.0001)  ploadbar=  1.01201615492444E+05
 cg2d: Sum(rhs),rhsMax =  -4.24541181336263E+01  2.36181415081051E+00
(PID.TID 0000.0001)  ploadbar=  1.01200933700794E+05
 cg2d: Sum(rhs),rhsMax =  -4.23181319764079E+01  2.37034588659118E+00
(PID.TID 0000.0001)  ploadbar=  1.01200251909145E+05
 cg2d: Sum(rhs),rhsMax =  -4.21627608911467E+01  2.38004134325564E+00
(PID.TID 0000.0001)  ploadbar=  1.01199957611292E+05
 cg2d: Sum(rhs),rhsMax =  -4.20051309980856E+01  2.38995238891861E+00
(PID.TID 0000.0001)  ploadbar=  1.01199663313438E+05
 cg2d: Sum(rhs),rhsMax =  -4.18501959300414E+01  2.39980358830872E+00
(PID.TID 0000.0001)  ploadbar=  1.01199369015585E+05
 cg2d: Sum(rhs),rhsMax =  -4.17006386581735E+01  2.40943622858816E+00
(PID.TID 0000.0001)  ploadbar=  1.01199074717732E+05
 cg2d: Sum(rhs),rhsMax =  -4.15641138601797E+01  2.41839872458106E+00
(PID.TID 0000.0001)  ploadbar=  1.01198780419878E+05
 cg2d: Sum(rhs),rhsMax =  -4.15387671461999E+01  2.42094088576232E+00
(PID.TID 0000.0001)  ploadbar=  1.01198486122025E+05
 cg2d: Sum(rhs),rhsMax =  -4.15408228280488E+01  2.42181114301558E+00
(PID.TID 0000.0001)  ploadbar=  1.01197763806159E+05
 cg2d: Sum(rhs),rhsMax =  -4.15516517649985E+01  2.42208899223947E+00
(PID.TID 0000.0001)  ploadbar=  1.01197041490294E+05
 cg2d: Sum(rhs),rhsMax =  -4.15553267472292E+01  2.42270002754180E+00
(PID.TID 0000.0001)  ploadbar=  1.01196319174428E+05
 cg2d: Sum(rhs),rhsMax =  -4.15428186946996E+01  2.42417041450110E+00
(PID.TID 0000.0001)  ploadbar=  1.01195596858562E+05
 cg2d: Sum(rhs),rhsMax =  -4.15130092681472E+01  2.42656235057728E+00
(PID.TID 0000.0001)  ploadbar=  1.01194874542697E+05
 cg2d: Sum(rhs),rhsMax =  -4.14719105335105E+01  2.42952481665170E+00
(PID.TID 0000.0001)  ploadbar=  1.01194152226831E+05
 cg2d: Sum(rhs),rhsMax =  -4.14361825327142E+01  2.43226391054679E+00
(PID.TID 0000.0001)  ploadbar=  1.01193669507568E+05
 cg2d: Sum(rhs),rhsMax =  -4.14169475271465E+01  2.43412086404157E+00
(PID.TID 0000.0001)  ploadbar=  1.01193186788304E+05
 cg2d: Sum(rhs),rhsMax =  -4.14252996250007E+01  2.43443667159192E+00
(PID.TID 0000.0001)  ploadbar=  1.01192704069041E+05
 cg2d: Sum(rhs),rhsMax =  -4.14683157881590E+01  2.43278959762867E+00
(PID.TID 0000.0001)  ploadbar=  1.01192221349778E+05
 cg2d: Sum(rhs),rhsMax =  -4.15523900740131E+01  2.42881067992183E+00
(PID.TID 0000.0001)  ploadbar=  1.01191738630514E+05
 cg2d: Sum(rhs),rhsMax =  -4.16798395932924E+01  2.42238346777260E+00
(PID.TID 0000.0001)  ploadbar=  1.01191255911251E+05
 cg2d: Sum(rhs),rhsMax =  -4.18388089010228E+01  2.41419493682122E+00
(PID.TID 0000.0001)  ploadbar=  1.01190480163476E+05
 cg2d: Sum(rhs),rhsMax =  -4.20155568894783E+01  2.40506754520362E+00
(PID.TID 0000.0001)  ploadbar=  1.01189704415700E+05
 cg2d: Sum(rhs),rhsMax =  -4.21966630354630E+01  2.39578561826640E+00
(PID.TID 0000.0001)  ploadbar=  1.01188928667925E+05
 cg2d: Sum(rhs),rhsMax =  -4.23739448782845E+01  2.38681489424780E+00
(PID.TID 0000.0001)  ploadbar=  1.01188152920150E+05
 cg2d: Sum(rhs),rhsMax =  -4.25453080076340E+01  2.37826220228270E+00
(PID.TID 0000.0001)  ploadbar=  1.01187377172374E+05
 cg2d: Sum(rhs),rhsMax =  -4.27146910775621E+01  2.36989411171377E+00
(PID.TID 0000.0001)  ploadbar=  1.01186601424599E+05
 cg2d: Sum(rhs),rhsMax =  -4.29002640270270E+01  2.36074654025580E+00
(PID.TID 0000.0001)  ploadbar=  1.01185233255254E+05
 cg2d: Sum(rhs),rhsMax =  -4.31168401888676E+01  2.35002891738288E+00
(PID.TID 0000.0001)  ploadbar=  1.01183865085909E+05
 cg2d: Sum(rhs),rhsMax =  -4.33788519603306E+01  2.33700800312469E+00
(PID.TID 0000.0001)  ploadbar=  1.01182496916564E+05
 cg2d: Sum(rhs),rhsMax =  -4.36952892047630E+01  2.32128122702644E+00
(PID.TID 0000.0001)  ploadbar=  1.01181128747219E+05
 cg2d: Sum(rhs),rhsMax =  -4.40720801465450E+01  2.30264974609349E+00
(PID.TID 0000.0001)  ploadbar=  1.01179760577875E+05
 cg2d: Sum(rhs),rhsMax =  -4.41262798564362E+01  2.30106105919310E+00
(PID.TID 0000.0001)  ploadbar=  1.01178392408530E+05
 cg2d: Sum(rhs),rhsMax =  -4.40998675493846E+01  2.30361668873868E+00
(PID.TID 0000.0001)  ploadbar=  1.01177662541266E+05
 cg2d: Sum(rhs),rhsMax =  -4.40788019625023E+01  2.30582101434126E+00
(PID.TID 0000.0001)  ploadbar=  1.01176932674002E+05
 cg2d: Sum(rhs),rhsMax =  -4.40639392359489E+01  2.30762617139562E+00
(PID.TID 0000.0001)  ploadbar=  1.01176202806738E+05
 cg2d: Sum(rhs),rhsMax =  -4.40561830538753E+01  2.30898349556530E+00
(PID.TID 0000.0001)  ploadbar=  1.01175472939474E+05
 cg2d: Sum(rhs),rhsMax =  -4.40556404048801E+01  2.30987961600773E+00
(PID.TID 0000.0001)  ploadbar=  1.01174743072210E+05
 cg2d: Sum(rhs),rhsMax =  -4.40623861800588E+01  2.31030441968677E+00
(PID.TID 0000.0001)  ploadbar=  1.01174013204946E+05
 cg2d: Sum(rhs),rhsMax =  -4.40617206512571E+01  2.31114880310027E+00
(PID.TID 0000.0001)  ploadbar=  1.01173094553670E+05
 cg2d: Sum(rhs),rhsMax =  -4.40484277610618E+01  2.31268520450936E+00
(PID.TID 0000.0001)  ploadbar=  1.01172175902395E+05
 cg2d: Sum(rhs),rhsMax =  -4.40168846153581E+01  2.31520862345267E+00
(PID.TID 0000.0001)  ploadbar=  1.01171257251119E+05
 cg2d: Sum(rhs),rhsMax =  -4.39624567590570E+01  2.31896546753038E+00
(PID.TID 0000.0001)  ploadbar=  1.01170338599844E+05
 cg2d: Sum(rhs),rhsMax =  -4.38783825188623E+01  2.32431878953029E+00
(PID.TID 0000.0001)  ploadbar=  1.01169419948568E+05
 cg2d: Sum(rhs),rhsMax =  -4.37593130904025E+01  2.33156778960854E+00
(PID.TID 0000.0001)  ploadbar=  1.01168501297293E+05
 cg2d: Sum(rhs),rhsMax =  -4.36200589818510E+01  2.33993653997904E+00
(PID.TID 0000.0001)  ploadbar=  1.01167879865933E+05
 cg2d: Sum(rhs),rhsMax =  -4.34703436462691E+01  2.34892035098659E+00
(PID.TID 0000.0001)  ploadbar=  1.01167258434573E+05
 cg2d: Sum(rhs),rhsMax =  -4.33193296223155E+01  2.35803951163426E+00
(PID.TID 0000.0001)  ploadbar=  1.01166637003213E+05
 cg2d: Sum(rhs),rhsMax =  -4.31746021897494E+01  2.36688258585203E+00
(PID.TID 0000.0001)  ploadbar=  1.01166015571853E+05
 cg2d: Sum(rhs),rhsMax =  -4.30424188136299E+01  2.37509097004152E+00
(PID.TID 0000.0001)  ploadbar=  1.01165394140493E+05
 cg2d: Sum(rhs),rhsMax =  -4.29273412530315E+01  2.38239189261782E+00
(PID.TID 0000.0001)  ploadbar=  1.01164772709133E+05
 cg2d: Sum(rhs),rhsMax =  -4.28382649835302E+01  2.38836998539024E+00
(PID.TID 0000.0001)  ploadbar=  1.01163701663135E+05
 cg2d: Sum(rhs),rhsMax =  -4.27801567842693E+01  2.39273099191910E+00
(PID.TID 0000.0001)  ploadbar=  1.01162630617138E+05
 cg2d: Sum(rhs),rhsMax =  -4.27488710264758E+01  2.39568949752660E+00
(PID.TID 0000.0001)  ploadbar=  1.01161559571141E+05
 cg2d: Sum(rhs),rhsMax =  -4.27378963079982E+01  2.39760094242442E+00
(PID.TID 0000.0001)  ploadbar=  1.01160488525144E+05
 cg2d: Sum(rhs),rhsMax =  -4.27541758151962E+01  2.39807251614656E+00
(PID.TID 0000.0001)  ploadbar=  1.01159417479147E+05
 cg2d: Sum(rhs),rhsMax =  -4.28066903189024E+01  2.39659823902444E+00
(PID.TID 0000.0001)  ploadbar=  1.01158346433150E+05
 cg2d: Sum(rhs),rhsMax =  -4.28765037337756E+01  2.39407040051709E+00
(PID.TID 0000.0001)  ploadbar=  1.01157941499399E+05
 cg2d: Sum(rhs),rhsMax =  -4.29552744376532E+01  2.39096271019156E+00
(PID.TID 0000.0001)  ploadbar=  1.01157536565649E+05
 cg2d: Sum(rhs),rhsMax =  -4.30401084633767E+01  2.38744051147609E+00
(PID.TID 0000.0001)  ploadbar=  1.01157131631899E+05
 cg2d: Sum(rhs),rhsMax =  -4.31275806153338E+01  2.38369141182894E+00
(PID.TID 0000.0001)  ploadbar=  1.01156726698148E+05
 cg2d: Sum(rhs),rhsMax =  -4.32159840891253E+01  2.37980516163797E+00
(PID.TID 0000.0001)  ploadbar=  1.01156321764398E+05
 cg2d: Sum(rhs),rhsMax =  -4.33032408155263E+01  2.37589037672958E+00
(PID.TID 0000.0001)  ploadbar=  1.01155916830647E+05
 cg2d: Sum(rhs),rhsMax =  -4.33946857580489E+01  2.37182124025687E+00
(PID.TID 0000.0001)  ploadbar=  1.01155231917955E+05
 cg2d: Sum(rhs),rhsMax =  -4.34956327352335E+01  2.36731161364181E+00
(PID.TID 0000.0001)  ploadbar=  1.01154547005262E+05
 cg2d: Sum(rhs),rhsMax =  -4.36096609240559E+01  2.36217252694839E+00
(PID.TID 0000.0001)  ploadbar=  1.01153862092569E+05
 cg2d: Sum(rhs),rhsMax =  -4.37386419036938E+01  2.35631459472813E+00
(PID.TID 0000.0001)  ploadbar=  1.01153177179877E+05
 cg2d: Sum(rhs),rhsMax =  -4.38820931332505E+01  2.34977586224231E+00
(PID.TID 0000.0001)  ploadbar=  1.01152492267184E+05
 cg2d: Sum(rhs),rhsMax =  -4.40378729608540E+01  2.34268290317911E+00
(PID.TID 0000.0001)  ploadbar=  1.01151807354491E+05
 cg2d: Sum(rhs),rhsMax =  -4.45585637586424E+01  2.31649383684101E+00
(PID.TID 0000.0001)  ploadbar=  1.01151430280071E+05
 cg2d: Sum(rhs),rhsMax =  -4.53226503870932E+01  2.27859196052084E+00
(PID.TID 0000.0001)  ploadbar=  1.01151053205651E+05
 cg2d: Sum(rhs),rhsMax =  -4.60719193551124E+01  2.24264788996647E+00
(PID.TID 0000.0001)  ploadbar=  1.01150676131231E+05
 cg2d: Sum(rhs),rhsMax =  -4.59703032963178E+01  2.24869818987494E+00
(PID.TID 0000.0001)  ploadbar=  1.01150299056811E+05
 cg2d: Sum(rhs),rhsMax =  -4.58795076698801E+01  2.25421588590197E+00
(PID.TID 0000.0001)  ploadbar=  1.01149921982391E+05
 cg2d: Sum(rhs),rhsMax =  -4.58066604246488E+01  2.25883396487943E+00
(PID.TID 0000.0001)  ploadbar=  1.01149544907971E+05
 cg2d: Sum(rhs),rhsMax =  -4.57529762960969E+01  2.26255375007515E+00
(PID.TID 0000.0001)  ploadbar=  1.01150737770119E+05
 cg2d: Sum(rhs),rhsMax =  -4.57259407015052E+01  2.26499961462575E+00
(PID.TID 0000.0001)  ploadbar=  1.01151930632268E+05
 cg2d: Sum(rhs),rhsMax =  -4.57258962914888E+01  2.26614660336169E+00
(PID.TID 0000.0001)  ploadbar=  1.01153123494416E+05
(PID.TID 0000.0001) %CHECKPOINT     13111 ckptA
(PID.TID 0000.0001) 
(PID.TID 0000.0001) == cost_profiles: begin ==
(PID.TID 0000.0001) == cost_profiles: end   ==
(PID.TID 0000.0001) 
(PID.TID 0000.0001) gmsl          13     0.81170E-03    -0.15315E-03
(PID.TID 0000.0001) gmsl          14    -0.22354E-02    -0.10591E-02
(PID.TID 0000.0001) gmsl          15    -0.89192E-03     0.34667E-03
(PID.TID 0000.0001) gmsl          16     0.53769E-03     0.41801E-03
(PID.TID 0000.0001) gmsl          17     0.64362E-03     0.19030E-03
(PID.TID 0000.0001) gmsl          18     0.11343E-02     0.25727E-03
(PID.TID 0000.0001)  sshv4: use global mean of eta useEtaMean= F
(PID.TID 0000.0001)  sshv4:re-reference MDT= T
(PID.TID 0000.0001) mdt[start,end]date(1): 19930101,20171231
(PID.TID 0000.0001)   TP MDT yrrange:          1993,2017
(PID.TID 0000.0001)  --> f_gencost = 0.144986026012657E+08 1
(PID.TID 0000.0001)  --> f_gencost = 0.306880969366415E+06 2
(PID.TID 0000.0001)  --> f_gencost = 0.166007050839725E+07 3
(PID.TID 0000.0001)  --> f_gencost = 0.149983649918074E+05 4
(PID.TID 0000.0001)  --> f_gencost = 0.980776368997990E+05 5
(PID.TID 0000.0001)  --> f_gencost = 0.590485441628406E+06 7
(PID.TID 0000.0001)  --> f_gencost = 0.560615451930790E+06 8
(PID.TID 0000.0001)  --> f_gencost = 0.758504492069080E+0011
(PID.TID 0000.0001)  --> f_gencost = 0.450423198466168E+0612
(PID.TID 0000.0001)  --> f_gencost = 0.803459562908790E+0613
(PID.TID 0000.0001)  --> f_gencost = 0.115932622809178E+0715
(PID.TID 0000.0001)  --> f_gencost = 0.207553553799212E+0717
(PID.TID 0000.0001)  --> f_gencost = 0.248031281823958E+0718
(PID.TID 0000.0001)  --> f_gencost = 0.331517483555932E+0022
(PID.TID 0000.0001)  --> f_gencost = 0.125506310305150E+1127
(PID.TID 0000.0001)  --> f_genarr2d = 0.112316272108573E+00 1
(PID.TID 0000.0001)  --> f_genarr3d = 0.603915502546036E+04 1
(PID.TID 0000.0001)  --> f_genarr3d = 0.271902630686722E+04 2
(PID.TID 0000.0001)  --> f_genarr3d = 0.168301931515201E+05 3
(PID.TID 0000.0001)  --> f_genarr3d = 0.519422256503459E+04 4
(PID.TID 0000.0001)  --> f_genarr3d = 0.101631908524040E+05 5
(PID.TID 0000.0001)  --> f_genarr3d = 0.247466853841387E+01 6
(PID.TID 0000.0001)  --> f_genarr3d = 0.279378863819902E+02 7
(PID.TID 0000.0001)  --> fc               = 0.588395052953006E+07
(PID.TID 0000.0001)   early fc =  0.000000000000000E+00
(PID.TID 0000.0001)   local fc =  0.521793712398109E+05
(PID.TID 0000.0001)  global fc =  0.588395052953006E+07
(PID.TID 0000.0001)   Seconds in section "ALL                    [THE_MODEL_MAIN]":
(PID.TID 0000.0001)           User time: 1439.1000000000001
(PID.TID 0000.0001)         System time: 279.32999999999998
(PID.TID 0000.0001)     Wall clock time: 2239.492299079895
(PID.TID 0000.0001)          No. starts: 1
(PID.TID 0000.0001)           No. stops: 1
(PID.TID 0000.0001)   Seconds in section "INITIALISE_FIXED       [THE_MODEL_MAIN]":
(PID.TID 0000.0001)           User time: 100.31
(PID.TID 0000.0001)         System time: 181.06
(PID.TID 0000.0001)     Wall clock time: 301.78101801872253
(PID.TID 0000.0001)          No. starts: 1
(PID.TID 0000.0001)           No. stops: 1
(PID.TID 0000.0001)   Seconds in section "THE_MAIN_LOOP          [THE_MODEL_MAIN]":
(PID.TID 0000.0001)           User time: 1338.7900000000002
(PID.TID 0000.0001)         System time: 98.27000000000001
(PID.TID 0000.0001)     Wall clock time: 1937.7111880779266
(PID.TID 0000.0001)          No. starts: 1
(PID.TID 0000.0001)           No. stops: 1
(PID.TID 0000.0001)   Seconds in section "INITIALISE_VARIA    [THE_MAIN_LOOP]":
(PID.TID 0000.0001)           User time: 12.739999999999995
(PID.TID 0000.0001)         System time: 1.25
(PID.TID 0000.0001)     Wall clock time: 15.701647996902466
(PID.TID 0000.0001)          No. starts: 1
(PID.TID 0000.0001)           No. stops: 1
(PID.TID 0000.0001)   Seconds in section "MAIN LOOP           [THE_MAIN_LOOP]":
(PID.TID 0000.0001)           User time: 1326.0500000000002
(PID.TID 0000.0001)         System time: 97.02000000000001
(PID.TID 0000.0001)     Wall clock time: 1922.0095241069794
(PID.TID 0000.0001)          No. starts: 1
(PID.TID 0000.0001)           No. stops: 1
(PID.TID 0000.0001)   Seconds in section "COST_AVERAGESFIELDS [MAIN_DO_LOOP]":
(PID.TID 0000.0001)           User time: 47.180000000004156
(PID.TID 0000.0001)         System time: 5.5400000000002194
(PID.TID 0000.0001)     Wall clock time: 55.549286365509033
(PID.TID 0000.0001)          No. starts: 13110
(PID.TID 0000.0001)           No. stops: 13110
(PID.TID 0000.0001)   Seconds in section "PROFILES_INLOOP    [MAIN_DO_LOOP]":
(PID.TID 0000.0001)           User time: 59.979999999996608
(PID.TID 0000.0001)         System time: 0.35000000000002274
(PID.TID 0000.0001)     Wall clock time: 60.440140724182129
(PID.TID 0000.0001)          No. starts: 13110
(PID.TID 0000.0001)           No. stops: 13110
(PID.TID 0000.0001)   Seconds in section "MAIN_DO_LOOP        [THE_MAIN_LOOP]":
(PID.TID 0000.0001)           User time: 1092.8800000002032
(PID.TID 0000.0001)         System time: 27.61999999999972
(PID.TID 0000.0001)     Wall clock time: 1287.4233646392822
(PID.TID 0000.0001)          No. starts: 13110
(PID.TID 0000.0001)           No. stops: 13110
(PID.TID 0000.0001)   Seconds in section "FORWARD_STEP        [MAIN_DO_LOOP]":
(PID.TID 0000.0001)           User time: 1092.6600000002065
(PID.TID 0000.0001)         System time: 27.61999999999972
(PID.TID 0000.0001)     Wall clock time: 1287.2872457504272
(PID.TID 0000.0001)          No. starts: 13110
(PID.TID 0000.0001)           No. stops: 13110
(PID.TID 0000.0001)   Seconds in section "UPDATE_R_STAR       [FORWARD_STEP]":
(PID.TID 0000.0001)           User time: 25.909999999993261
(PID.TID 0000.0001)         System time: 0.44999999999990337
(PID.TID 0000.0001)     Wall clock time: 26.449275970458984
(PID.TID 0000.0001)          No. starts: 26220
(PID.TID 0000.0001)           No. stops: 26220
(PID.TID 0000.0001)   Seconds in section "LOAD_FIELDS_DRIVER  [FORWARD_STEP]":
(PID.TID 0000.0001)           User time: 26.799999999997453
(PID.TID 0000.0001)         System time: 8.7799999999999159
(PID.TID 0000.0001)     Wall clock time: 119.64339709281921
(PID.TID 0000.0001)          No. starts: 13110
(PID.TID 0000.0001)           No. stops: 13110
(PID.TID 0000.0001)   Seconds in section "EXF_GETFORCING     [LOAD_FLDS_DRIVER]":
(PID.TID 0000.0001)           User time: 26.419999999998026
(PID.TID 0000.0001)         System time: 8.7199999999998852
(PID.TID 0000.0001)     Wall clock time: 119.22738909721375
(PID.TID 0000.0001)          No. starts: 13110
(PID.TID 0000.0001)           No. stops: 13110
(PID.TID 0000.0001)   Seconds in section "EXTERNAL_FLDS_LOAD [LOAD_FLDS_DRIVER]":
(PID.TID 0000.0001)           User time: 5.99999999999454303E-2
(PID.TID 0000.0001)         System time: 1.00000000000193268E-2
(PID.TID 0000.0001)     Wall clock time: 6.25729560852050781E-2
(PID.TID 0000.0001)          No. starts: 13110
(PID.TID 0000.0001)           No. stops: 13110
(PID.TID 0000.0001)   Seconds in section "CTRL_MAP_FORCING  [FORWARD_STEP]":
(PID.TID 0000.0001)           User time: 3.2200000000011642
(PID.TID 0000.0001)         System time: 0.43999999999991246
(PID.TID 0000.0001)     Wall clock time: 3.885662317276001
(PID.TID 0000.0001)          No. starts: 13110
(PID.TID 0000.0001)           No. stops: 13110
(PID.TID 0000.0001)   Seconds in section "DO_ATMOSPHERIC_PHYS [FORWARD_STEP]":
(PID.TID 0000.0001)           User time: 2.0400000000006457
(PID.TID 0000.0001)         System time: 0.20999999999989427
(PID.TID 0000.0001)     Wall clock time: 2.1423630714416504
(PID.TID 0000.0001)          No. starts: 13110
(PID.TID 0000.0001)           No. stops: 13110
(PID.TID 0000.0001)   Seconds in section "DO_OCEANIC_PHYS     [FORWARD_STEP]":
(PID.TID 0000.0001)           User time: 376.56999999993059
(PID.TID 0000.0001)         System time: 1.309999999999917
(PID.TID 0000.0001)     Wall clock time: 378.69077205657959
(PID.TID 0000.0001)          No. starts: 13110
(PID.TID 0000.0001)           No. stops: 13110
(PID.TID 0000.0001)   Seconds in section "SEAICE_MODEL    [DO_OCEANIC_PHYS]":
(PID.TID 0000.0001)           User time: 75.63000000000784
(PID.TID 0000.0001)         System time: 0.8699999999999477
(PID.TID 0000.0001)     Wall clock time: 76.555938959121704
(PID.TID 0000.0001)          No. starts: 13110
(PID.TID 0000.0001)           No. stops: 13110
(PID.TID 0000.0001)   Seconds in section "SEAICE_DYNSOLVER   [SEAICE_MODEL]":
(PID.TID 0000.0001)           User time: 70.750000000007276
(PID.TID 0000.0001)         System time: 0.5399999999999352
(PID.TID 0000.0001)     Wall clock time: 71.105216264724731
(PID.TID 0000.0001)          No. starts: 13110
(PID.TID 0000.0001)           No. stops: 13110
(PID.TID 0000.0001)   Seconds in section "GGL90_CALC [DO_OCEANIC_PHYS]":
(PID.TID 0000.0001)           User time: 99.529999999989059
(PID.TID 0000.0001)         System time: 0.14999999999997726
(PID.TID 0000.0001)     Wall clock time: 99.88166880607605
(PID.TID 0000.0001)          No. starts: 13110
(PID.TID 0000.0001)           No. stops: 13110
(PID.TID 0000.0001)   Seconds in section "DYNAMICS            [FORWARD_STEP]":
(PID.TID 0000.0001)           User time: 114.50999999998294
(PID.TID 0000.0001)         System time: 6.00000000000306954E-2
(PID.TID 0000.0001)     Wall clock time: 114.43481850624084
(PID.TID 0000.0001)          No. starts: 13110
(PID.TID 0000.0001)           No. stops: 13110
(PID.TID 0000.0001)   Seconds in section "UPDATE_CG2D         [FORWARD_STEP]":
(PID.TID 0000.0001)           User time: 15.870000000003074
(PID.TID 0000.0001)         System time: 6.00000000000591172E-2
(PID.TID 0000.0001)     Wall clock time: 16.166962385177612
(PID.TID 0000.0001)          No. starts: 13110
(PID.TID 0000.0001)           No. stops: 13110
(PID.TID 0000.0001)   Seconds in section "SOLVE_FOR_PRESSURE  [FORWARD_STEP]":
(PID.TID 0000.0001)           User time: 156.51999999998475
(PID.TID 0000.0001)         System time: 9.99999999999943157E-2
(PID.TID 0000.0001)     Wall clock time: 156.17680835723877
(PID.TID 0000.0001)          No. starts: 13110
(PID.TID 0000.0001)           No. stops: 13110
(PID.TID 0000.0001)   Seconds in section "MOM_CORRECTION_STEP [FORWARD_STEP]":
(PID.TID 0000.0001)           User time: 9.9300000000027921
(PID.TID 0000.0001)         System time: 9.99999999999090505E-3
(PID.TID 0000.0001)     Wall clock time: 10.075270414352417
(PID.TID 0000.0001)          No. starts: 13110
(PID.TID 0000.0001)           No. stops: 13110
(PID.TID 0000.0001)   Seconds in section "INTEGR_CONTINUITY   [FORWARD_STEP]":
(PID.TID 0000.0001)           User time: 11.230000000003884
(PID.TID 0000.0001)         System time: 0.18000000000006366
(PID.TID 0000.0001)     Wall clock time: 11.580472946166992
(PID.TID 0000.0001)          No. starts: 13110
(PID.TID 0000.0001)           No. stops: 13110
(PID.TID 0000.0001)   Seconds in section "CALC_R_STAR         [FORWARD_STEP]":
(PID.TID 0000.0001)           User time: 1.470000000000482
(PID.TID 0000.0001)         System time: 9.99999999999090505E-3
(PID.TID 0000.0001)     Wall clock time: 1.6335160732269287
(PID.TID 0000.0001)          No. starts: 13110
(PID.TID 0000.0001)           No. stops: 13110
(PID.TID 0000.0001)   Seconds in section "BLOCKING_EXCHANGES  [FORWARD_STEP]":
(PID.TID 0000.0001)           User time: 39.269999999996799
(PID.TID 0000.0001)         System time: 0.19000000000005457
(PID.TID 0000.0001)     Wall clock time: 38.676807403564453
(PID.TID 0000.0001)          No. starts: 26220
(PID.TID 0000.0001)           No. stops: 26220
(PID.TID 0000.0001)   Seconds in section "THERMODYNAMICS      [FORWARD_STEP]":
(PID.TID 0000.0001)           User time: 212.64000000003375
(PID.TID 0000.0001)         System time: 0.13000000000002387
(PID.TID 0000.0001)     Wall clock time: 213.68845319747925
(PID.TID 0000.0001)          No. starts: 13110
(PID.TID 0000.0001)           No. stops: 13110
(PID.TID 0000.0001)   Seconds in section "TRC_CORRECTION_STEP [FORWARD_STEP]":
(PID.TID 0000.0001)           User time: 7.99999999999272404E-2
(PID.TID 0000.0001)         System time: 0.
(PID.TID 0000.0001)     Wall clock time: 6.32765293121337891E-2
(PID.TID 0000.0001)          No. starts: 13110
(PID.TID 0000.0001)           No. stops: 13110
(PID.TID 0000.0001)   Seconds in section "DO_STATEVARS_TAVE   [FORWARD_STEP]":
(PID.TID 0000.0001)           User time: 5.99999999999454303E-2
(PID.TID 0000.0001)         System time: 0.
(PID.TID 0000.0001)     Wall clock time: 6.40077590942382812E-2
(PID.TID 0000.0001)          No. starts: 13110
(PID.TID 0000.0001)           No. stops: 13110
(PID.TID 0000.0001)   Seconds in section "MONITOR             [FORWARD_STEP]":
(PID.TID 0000.0001)           User time: 0.10999999999989996
(PID.TID 0000.0001)         System time: 0.
(PID.TID 0000.0001)     Wall clock time: 0.11352062225341797
(PID.TID 0000.0001)          No. starts: 13110
(PID.TID 0000.0001)           No. stops: 13110
(PID.TID 0000.0001)   Seconds in section "COST_TILE           [FORWARD_STEP]":
(PID.TID 0000.0001)           User time: 5.00000000001818989E-2
(PID.TID 0000.0001)         System time: 0.
(PID.TID 0000.0001)     Wall clock time: 6.20524883270263672E-2
(PID.TID 0000.0001)          No. starts: 13110
(PID.TID 0000.0001)           No. stops: 13110
(PID.TID 0000.0001)   Seconds in section "DO_THE_MODEL_IO     [FORWARD_STEP]":
(PID.TID 0000.0001)           User time: 36.830000000004475
(PID.TID 0000.0001)         System time: 14.989999999999924
(PID.TID 0000.0001)     Wall clock time: 133.86139702796936
(PID.TID 0000.0001)          No. starts: 13110
(PID.TID 0000.0001)           No. stops: 13110
(PID.TID 0000.0001)   Seconds in section "DO_WRITE_PICKUP     [FORWARD_STEP]":
(PID.TID 0000.0001)           User time: 1.9299999999998363
(PID.TID 0000.0001)         System time: 0.48000000000001819
(PID.TID 0000.0001)     Wall clock time: 2.4547805786132812
(PID.TID 0000.0001)          No. starts: 13110
(PID.TID 0000.0001)           No. stops: 13110
(PID.TID 0000.0001)   Seconds in section "COST_AVERAGESFIELDS [THE_MAIN_LOOP]":
(PID.TID 0000.0001)           User time: 0.15999999999985448
(PID.TID 0000.0001)         System time: 4.00000000000204636E-2
(PID.TID 0000.0001)     Wall clock time: 0.20236492156982422
(PID.TID 0000.0001)          No. starts: 1
(PID.TID 0000.0001)           No. stops: 1
(PID.TID 0000.0001)   Seconds in section "PROFILES_INLOOP    [THE_MAIN_LOOP]":
(PID.TID 0000.0001)           User time: 0.
(PID.TID 0000.0001)         System time: 0.
(PID.TID 0000.0001)     Wall clock time: 4.81700897216796875E-3
(PID.TID 0000.0001)          No. starts: 1
(PID.TID 0000.0001)           No. stops: 1
(PID.TID 0000.0001)   Seconds in section "ECCO_COST_DRIVER   [THE_MAIN_LOOP]":
(PID.TID 0000.0001)           User time: 125.11000000000013
(PID.TID 0000.0001)         System time: 62.77000000000001
(PID.TID 0000.0001)     Wall clock time: 516.94875192642212
(PID.TID 0000.0001)          No. starts: 1
(PID.TID 0000.0001)           No. stops: 1
(PID.TID 0000.0001)   Seconds in section "COST_GENCOST_ALL    [ECCO SPIN-DOWN]":
(PID.TID 0000.0001)           User time: 124.8900000000001
(PID.TID 0000.0001)         System time: 62.599999999999994
(PID.TID 0000.0001)     Wall clock time: 516.05487108230591
(PID.TID 0000.0001)          No. starts: 1
(PID.TID 0000.0001)           No. stops: 1
(PID.TID 0000.0001)   Seconds in section "CTRL_COST_DRIVER [ECCO SPIN-DOWN]":
(PID.TID 0000.0001)           User time: 0.22000000000002728
(PID.TID 0000.0001)         System time: 0.17000000000001592
(PID.TID 0000.0001)     Wall clock time: 0.89385294914245605
(PID.TID 0000.0001)          No. starts: 1
(PID.TID 0000.0001)           No. stops: 1
(PID.TID 0000.0001)   Seconds in section "COST_FINAL         [ADJOINT SPIN-DOWN]":
(PID.TID 0000.0001)           User time: 0.
(PID.TID 0000.0001)         System time: 0.
(PID.TID 0000.0001)     Wall clock time: 1.32780075073242187E-2
(PID.TID 0000.0001)          No. starts: 1
(PID.TID 0000.0001)           No. stops: 1
(PID.TID 0000.0001) // ======================================================
(PID.TID 0000.0001) // Tile <-> Tile communication statistics
(PID.TID 0000.0001) // ======================================================
(PID.TID 0000.0001) // o Tile number: 000001
(PID.TID 0000.0001) //         No. X exchanges =              0
(PID.TID 0000.0001) //            Max. X spins =              0
(PID.TID 0000.0001) //            Min. X spins =     1000000000
(PID.TID 0000.0001) //          Total. X spins =              0
(PID.TID 0000.0001) //            Avg. X spins =       0.00E+00
(PID.TID 0000.0001) //         No. Y exchanges =              0
(PID.TID 0000.0001) //            Max. Y spins =              0
(PID.TID 0000.0001) //            Min. Y spins =     1000000000
(PID.TID 0000.0001) //          Total. Y spins =              0
(PID.TID 0000.0001) //            Avg. Y spins =       0.00E+00
(PID.TID 0000.0001) // o Thread number: 000001
(PID.TID 0000.0001) //            No. barriers =       45426298
(PID.TID 0000.0001) //      Max. barrier spins =              1
(PID.TID 0000.0001) //      Min. barrier spins =              1
(PID.TID 0000.0001) //     Total barrier spins =       45426298
(PID.TID 0000.0001) //      Avg. barrier spins =       1.00E+00
PROGRAM MAIN: Execution ended Normally
