(PID.TID 0000.0001) 
(PID.TID 0000.0001) // ======================================================
(PID.TID 0000.0001) //                      MITgcm UV
(PID.TID 0000.0001) //                      =========
(PID.TID 0000.0001) // ======================================================
(PID.TID 0000.0001) // execution environment starting up...
(PID.TID 0000.0001) 
(PID.TID 0000.0001) // MITgcmUV version:  checkpoint66g
(PID.TID 0000.0001) // Build user:        mjmn02
(PID.TID 0000.0001) // Build host:        ln04
(PID.TID 0000.0001) // Build date:        Wed Apr 20 21:50:05 BST 2022
(PID.TID 0000.0001) 
(PID.TID 0000.0001) // =======================================================
(PID.TID 0000.0001) // Execution Environment parameter file "eedata"
(PID.TID 0000.0001) // =======================================================
(PID.TID 0000.0001) ># Example "eedata" file
(PID.TID 0000.0001) ># Lines beginning "#" are comments
(PID.TID 0000.0001) ># nTx - No. threads per process in X
(PID.TID 0000.0001) ># nTy - No. threads per process in Y
(PID.TID 0000.0001) > &EEPARMS
(PID.TID 0000.0001) > useCubedSphereExchange=.TRUE.,
(PID.TID 0000.0001) > nTx=1,
(PID.TID 0000.0001) > nTy=1,
(PID.TID 0000.0001) > debugMode=.FALSE.,
(PID.TID 0000.0001) > /
(PID.TID 0000.0001) ># Note: Some systems use & as the
(PID.TID 0000.0001) ># namelist terminator. Other systems
(PID.TID 0000.0001) ># use a / character (as shown here).
(PID.TID 0000.0001) 
(PID.TID 0000.0001) // =======================================================
(PID.TID 0000.0001) // Computational Grid Specification ( see files "SIZE.h" )
(PID.TID 0000.0001) //                                  ( and "eedata"       )
(PID.TID 0000.0001) // =======================================================
(PID.TID 0000.0001)      nPx =  360 ; /* No. processes in X */
(PID.TID 0000.0001)      nPy =    1 ; /* No. processes in Y */
(PID.TID 0000.0001)      nSx =    1 ; /* No. tiles in X per process */
(PID.TID 0000.0001)      nSy =    1 ; /* No. tiles in Y per process */
(PID.TID 0000.0001)      sNx =   15 ; /* Tile size in X */
(PID.TID 0000.0001)      sNy =   15 ; /* Tile size in Y */
(PID.TID 0000.0001)      OLx =    4 ; /* Tile overlap distance in X */
(PID.TID 0000.0001)      OLy =    4 ; /* Tile overlap distance in Y */
(PID.TID 0000.0001)      nTx =    1 ; /* No. threads in X per process */
(PID.TID 0000.0001)      nTy =    1 ; /* No. threads in Y per process */
(PID.TID 0000.0001)       Nr =   50 ; /* No. levels in the vertical   */
(PID.TID 0000.0001)       Nx = 5400 ; /* Total domain size in X ( = nPx*nSx*sNx ) */
(PID.TID 0000.0001)       Ny =   15 ; /* Total domain size in Y ( = nPy*nSy*sNy ) */
(PID.TID 0000.0001)   nTiles =    1 ; /* Total no. tiles per process ( = nSx*nSy ) */
(PID.TID 0000.0001)   nProcs =  360 ; /* Total no. processes ( = nPx*nPy ) */
(PID.TID 0000.0001) nThreads =    1 ; /* Total no. threads per process ( = nTx*nTy ) */
(PID.TID 0000.0001) usingMPI =    T ; /* Flag used to control whether MPI is in use */
(PID.TID 0000.0001)                   /*  note: To execute a program with MPI calls */
(PID.TID 0000.0001)                   /*  it must be launched appropriately e.g     */
(PID.TID 0000.0001)                   /*  "mpirun -np 64 ......"                    */
(PID.TID 0000.0001) useCoupler=    F ;/* Flag used to control communications with   */
(PID.TID 0000.0001)                   /*  other model components, through a coupler */
(PID.TID 0000.0001) debugMode =    F ; /* print debug msg. (sequence of S/R calls)  */
(PID.TID 0000.0001) printMapIncludesZeros=    F ; /* print zeros in Std.Output maps */
(PID.TID 0000.0001) maxLengthPrt1D=   65 /* maxLength of 1D array printed to StdOut */
(PID.TID 0000.0001) 
(PID.TID 0000.0001) ======= Starting MPI parallel Run =========
(PID.TID 0000.0001)  My Processor Name (len:  9 ) = nid004852
(PID.TID 0000.0001)  Located at (  0,  0) on processor grid (0:359,0:  0)
(PID.TID 0000.0001)  Origin at  (     1,     1) on global grid (1:  5400,1:    15)
(PID.TID 0000.0001)  North neighbor = processor 0000
(PID.TID 0000.0001)  South neighbor = processor 0000
(PID.TID 0000.0001)   East neighbor = processor 0001
(PID.TID 0000.0001)   West neighbor = processor 0359
(PID.TID 0000.0001) // ======================================================
(PID.TID 0000.0001) // Mapping of tiles to threads
(PID.TID 0000.0001) // ======================================================
(PID.TID 0000.0001) // -o- Thread   1, tiles (   1:   1,   1:   1)
(PID.TID 0000.0001) 
(PID.TID 0000.0001) W2_READPARMS: opening data.exch2
(PID.TID 0000.0001)  OPEN_COPY_DATA_FILE: opening file data.exch2
(PID.TID 0000.0001) // =======================================================
(PID.TID 0000.0001) // Parameter file "data.exch2"
(PID.TID 0000.0001) // =======================================================
(PID.TID 0000.0001) ># EXCH2 Package: Wrapper-2 User Choice
(PID.TID 0000.0001) >#--------------------
(PID.TID 0000.0001) >#  preDefTopol   :: pre-defined Topology selector:
(PID.TID 0000.0001) >#                :: = 0 : topology defined from processing "data.exch2";
(PID.TID 0000.0001) >#                :: = 1 : simple, single facet topology;
(PID.TID 0000.0001) >#                :: = 2 : customized topology (w2_set_myown_facets)
(PID.TID 0000.0001) >#                :: = 3 : 6-facet Cube (3 face-dims: nRed, nGreen, nBlue).
(PID.TID 0000.0001) >#  dimsFacets    :: facet pair of dimensions (n1x,n1y, n2x,n2y ...)
(PID.TID 0000.0001) >#  facetEdgeLink :: Face-Edge connectivity map:
(PID.TID 0000.0001) >#    facetEdgeLink(i,j)=XX.1 : face(j)-edge(i) (i=1,2,3,4 <==> N,S,E,W)
(PID.TID 0000.0001) >#    is connected to Northern edge of face "XX" ; similarly,
(PID.TID 0000.0001) >#    = XX.2 : to Southern.E, XX.3 = Eastern.E, XX.4 = Western.E of face "XX"
(PID.TID 0000.0001) >#  blankList     :: List of "blank" tiles
(PID.TID 0000.0001) >#  W2_mapIO      :: global map IO selector (-1 = old type ; 0 = 1 long line in X
(PID.TID 0000.0001) >#                :: 1 = compact, mostly in Y dir)
(PID.TID 0000.0001) >#  W2_printMsg   :: option for information messages printing
(PID.TID 0000.0001) >#                :: <0 : write to log file ; =0 : minimum print ;
(PID.TID 0000.0001) >#                :: =1 : no duplicated print ; =2 : all processes do print
(PID.TID 0000.0001) >#--------------------
(PID.TID 0000.0001) > &W2_EXCH2_PARM01
(PID.TID 0000.0001) ># W2_printMsg= 0,
(PID.TID 0000.0001) >  W2_mapIO   = 1,
(PID.TID 0000.0001) >#
(PID.TID 0000.0001) >  preDefTopol=0,
(PID.TID 0000.0001) >#-- 5 facets llc_120 topology (drop facet 6 and its connection):
(PID.TID 0000.0001) >  dimsFacets(1:10) = 90, 270, 90, 270, 90, 90, 270, 90, 270, 90,
(PID.TID 0000.0001) >  facetEdgeLink(1:4,1)= 3.4, 0. , 2.4, 5.1,
(PID.TID 0000.0001) >  facetEdgeLink(1:4,2)= 3.2, 0. , 4.2, 1.3,
(PID.TID 0000.0001) >  facetEdgeLink(1:4,3)= 5.4, 2.1, 4.4, 1.1,
(PID.TID 0000.0001) >  facetEdgeLink(1:4,4)= 5.2, 2.3, 0. , 3.3,
(PID.TID 0000.0001) >  facetEdgeLink(1:4,5)= 1.4, 4.1, 0. , 3.1,
(PID.TID 0000.0001) >#-- full 6 facets llc_120 topology (equivalent to default preDefTopol=3):
(PID.TID 0000.0001) ># dimsFacets(1:12) = 120, 360, 120, 360, 120, 120, 360, 120, 360, 120, 120, 120,
(PID.TID 0000.0001) ># facetEdgeLink(1:4,1)= 3.4, 6.1, 2.4, 5.1,
(PID.TID 0000.0001) ># facetEdgeLink(1:4,2)= 3.2, 6.3, 4.2, 1.3,
(PID.TID 0000.0001) ># facetEdgeLink(1:4,3)= 5.4, 2.1, 4.4, 1.1,
(PID.TID 0000.0001) ># facetEdgeLink(1:4,4)= 5.2, 2.3, 6.2, 3.3,
(PID.TID 0000.0001) ># facetEdgeLink(1:4,5)= 1.4, 4.1, 6.4, 3.1,
(PID.TID 0000.0001) ># facetEdgeLink(1:4,6)= 1.2, 4.3, 2.2, 5.3,
(PID.TID 0000.0001) >#
(PID.TID 0000.0001) >#90x30   nprocs = 36
(PID.TID 0000.0001) ># blankList(1:3)=1,10,11,
(PID.TID 0000.0001) >#30x90
(PID.TID 0000.0001) >#
(PID.TID 0000.0001) >#45x30   nprocs = 72
(PID.TID 0000.0001) ># blankList(1:6)=1,2,19,20,21,22
(PID.TID 0000.0001) >#30x45   nprocs = 68
(PID.TID 0000.0001) ># blankList(1:10)=2,3,19,20,21,35,51,60,69,78
(PID.TID 0000.0001) >#45x45   nprocs = 48
(PID.TID 0000.0001) ># blankList(1:4)=2,13,14,23
(PID.TID 0000.0001) >#30x30   nprocs = 96
(PID.TID 0000.0001) >#  blankList(1:21)=1,2,3,5,6,28,29,30,31,32,33,49,50,52,53,72,81,90,99,108,117
(PID.TID 0000.0001) >#30x30   nprocs = 112
(PID.TID 0000.0001) ># blankList(1:5)=2,3,28,29,30
(PID.TID 0000.0001) >#15x30   nprocs = 192
(PID.TID 0000.0001) ># blankList(1:42)=1,2,3,4,5,6,9,10,11,12,55,56,57,58,59,60,61,62,63,64,65,66,
(PID.TID 0000.0001) >#            97,98,99,100,103,104,105,106,143,144,
(PID.TID 0000.0001) >#            161,162,179,180,197,198,215,216,233,234
(PID.TID 0000.0001) >#15x15   nprocs = 360
(PID.TID 0000.0001) > blankList(1:108)=1,2,3,4,5,6,7,8,9,10,11,12,14,15,16,17,18,21,22,23,24,
(PID.TID 0000.0001) >  65,71,75,76,90,95,96,101,102,109,110,111,112,113,114,115,116,117,118,119,
(PID.TID 0000.0001) >  120,121,122,123,124,125,126,127,128,129,130,131,132,
(PID.TID 0000.0001) >  188,189,190,193,194,195,196,199,
(PID.TID 0000.0001) >  200,201,202,203,205,206,207,208,209,211,212,213,214,215,216,242,247,253,
(PID.TID 0000.0001) >  267,268,269,270,287,288,305,306,323,324,341,342,359,360,362,376,377,378,
(PID.TID 0000.0001) >  380,381,382,395,396,400,412,413,414,430,
(PID.TID 0000.0001) >#note: it seems that 8 of the followig 9 tiles could be added to 15x15 blank
(PID.TID 0000.0001) >#  list to reach 352=22*16 cores : 431 432 440 441 448 449 450 467 468
(PID.TID 0000.0001) > /
(PID.TID 0000.0001) 
(PID.TID 0000.0001) W2_READPARMS: finished reading data.exch2
(PID.TID 0000.0001) W2_useE2ioLayOut=    T ;/* T: use Exch2 glob IO map; F: use model default */
(PID.TID 0000.0001) W2_mapIO        =   1 ; /* select option for Exch2 global-IO map */
(PID.TID 0000.0001) W2_printMsg     =  -1 ; /* select option for printing information */
(PID.TID 0000.0001) ===== Start setting W2 TOPOLOGY:
(PID.TID 0000.0001)  write to log-file: w2_tile_topology.0000.log
(PID.TID 0000.0001) =====       setting W2 TOPOLOGY: Done
(PID.TID 0000.0001) 
(PID.TID 0000.0001)  INI_PARMS: opening model parameter file "data"
(PID.TID 0000.0001)  OPEN_COPY_DATA_FILE: opening file data
(PID.TID 0000.0001) // =======================================================
(PID.TID 0000.0001) // Parameter file "data"
(PID.TID 0000.0001) // =======================================================
(PID.TID 0000.0001) ># ====================
(PID.TID 0000.0001) ># | Model parameters |
(PID.TID 0000.0001) ># ====================
(PID.TID 0000.0001) >#
(PID.TID 0000.0001) ># Continuous equation parameters
(PID.TID 0000.0001) > &PARM01
(PID.TID 0000.0001) > tRef               = 3*23.,3*22.,21.,2*20.,19.,2*18.,17.,2*16.,15.,14.,13.,
(PID.TID 0000.0001) >                      12.,11.,2*9.,8.,7.,2*6.,2*5.,3*4.,3*3.,4*2.,12*1.,
(PID.TID 0000.0001) > sRef               = 50*34.5,
(PID.TID 0000.0001) > no_slip_sides  = .TRUE.,
(PID.TID 0000.0001) > no_slip_bottom = .TRUE.,
(PID.TID 0000.0001) >#
(PID.TID 0000.0001) > viscAr=0.5E-4,
(PID.TID 0000.0001) >#
(PID.TID 0000.0001) > viscAh=1.E0,
(PID.TID 0000.0001) > viscAhGrid=2.E-2,
(PID.TID 0000.0001) ># viscAh=2.0e4,
(PID.TID 0000.0001) >#
(PID.TID 0000.0001) > diffKhT=1.E1,
(PID.TID 0000.0001) > diffKrT=1.E-5,
(PID.TID 0000.0001) > diffKhS=1.E1,
(PID.TID 0000.0001) > diffKrS=1.E-5,
(PID.TID 0000.0001) >#
(PID.TID 0000.0001) >### diffKrBL79surf=0.1E-4,
(PID.TID 0000.0001) >### diffKrBL79deep=1.0E-4,
(PID.TID 0000.0001) > bottomDragQuadratic = 0.001,
(PID.TID 0000.0001) >#when using ggl90
(PID.TID 0000.0001) > ivdc_kappa=10.,
(PID.TID 0000.0001) > implicitDiffusion=.TRUE.,
(PID.TID 0000.0001) > implicitViscosity=.TRUE.,
(PID.TID 0000.0001) > useRealFreshWaterFlux=.TRUE.,
(PID.TID 0000.0001) ># balanceThetaClimRelax=.TRUE.,
(PID.TID 0000.0001) > balanceSaltClimRelax=.TRUE.,
(PID.TID 0000.0001) ># balanceEmPmR=.TRUE.,
(PID.TID 0000.0001) ># balanceQnet=.TRUE.,
(PID.TID 0000.0001) > allowFreezing=.FALSE.,
(PID.TID 0000.0001) >### hFacInf=0.2,
(PID.TID 0000.0001) >### hFacSup=2.0,
(PID.TID 0000.0001) > hFacMin=.2,
(PID.TID 0000.0001) > hFacMinDr=5.,
(PID.TID 0000.0001) > select_rStar=2,
(PID.TID 0000.0001) > nonlinFreeSurf=4,
(PID.TID 0000.0001) > gravity=9.81,
(PID.TID 0000.0001) > rhonil=1029.,
(PID.TID 0000.0001) > rhoConst=1029.,
(PID.TID 0000.0001) > rhoConstFresh=1000.,
(PID.TID 0000.0001) > convertFW2Salt=-1.,
(PID.TID 0000.0001) > eosType='JMD95Z',
(PID.TID 0000.0001) > implicitFreeSurface=.TRUE.,
(PID.TID 0000.0001) > exactConserv=.TRUE.,
(PID.TID 0000.0001) > useSingleCpuIO=.TRUE.,
(PID.TID 0000.0001) > tempAdvScheme=30,
(PID.TID 0000.0001) > saltAdvScheme=30,
(PID.TID 0000.0001) > tempVertAdvScheme=3,
(PID.TID 0000.0001) > saltVertAdvScheme=3,
(PID.TID 0000.0001) > tempImplVertAdv=.TRUE.,
(PID.TID 0000.0001) > saltImplVertAdv=.TRUE.,
(PID.TID 0000.0001) > staggerTimeStep=.TRUE.,
(PID.TID 0000.0001) > vectorInvariantMomentum=.TRUE.,
(PID.TID 0000.0001) >#when using the cd scheme:
(PID.TID 0000.0001) ># useCDscheme=.TRUE.,
(PID.TID 0000.0001) > useJamartWetPoints=.TRUE.,
(PID.TID 0000.0001) > readBinaryPrec=32,
(PID.TID 0000.0001) > writeBinaryPrec=32,
(PID.TID 0000.0001) > debugLevel=1,
(PID.TID 0000.0001) > /
(PID.TID 0000.0001) >
(PID.TID 0000.0001) ># Elliptic solver parameters
(PID.TID 0000.0001) > &PARM02
(PID.TID 0000.0001) > cg2dMaxIters=300,
(PID.TID 0000.0001) >#cg2dTargetResWunit=1.E-12,
(PID.TID 0000.0001) > /
(PID.TID 0000.0001) >
(PID.TID 0000.0001) ># Time stepping parameters
(PID.TID 0000.0001) > &PARM03
(PID.TID 0000.0001) > nIter0=1,
(PID.TID 0000.0001) >#2 lev2 for testing:
(PID.TID 0000.0001) >#nTimeSteps=8,
(PID.TID 0000.0001) >#3month
(PID.TID 0000.0001) >#nTimeSteps=2160,
(PID.TID 0000.0001) >#18month
(PID.TID 0000.0001) > nTimeSteps=13110,
(PID.TID 0000.0001) >#2yr
(PID.TID 0000.0001) >#nTimeSteps=17520,
(PID.TID 0000.0001) >#4-yr from 2014 to 2017, inclusive
(PID.TID 0000.0001) >#nTimeSteps=35051,
(PID.TID 0000.0001) >#20y:
(PID.TID 0000.0001) >#nTimeSteps=175295,
(PID.TID 0000.0001) >#22y:
(PID.TID 0000.0001) >#nTimeSteps=192839,
(PID.TID 0000.0001) >#24y:
(PID.TID 0000.0001) >#nTimeSteps=210359,
(PID.TID 0000.0001) >#26yr
(PID.TID 0000.0001) >#nTimeSteps=227903,
(PID.TID 0000.0001) >#60 years
(PID.TID 0000.0001) >#nTimeSteps=525985,
(PID.TID 0000.0001) >#
(PID.TID 0000.0001) > forcing_In_AB=.FALSE.,
(PID.TID 0000.0001) > momDissip_In_AB=.FALSE.,
(PID.TID 0000.0001) >#when using the cd scheme:
(PID.TID 0000.0001) ># epsAB_CD = 0.25,
(PID.TID 0000.0001) ># tauCD=172800.0,
(PID.TID 0000.0001) > deltaTmom   =3600.,
(PID.TID 0000.0001) > deltaTtracer=3600.,
(PID.TID 0000.0001) > deltaTfreesurf=3600.,
(PID.TID 0000.0001) > deltaTClock =3600.,
(PID.TID 0000.0001) >#when using ab2:
(PID.TID 0000.0001) ># abEps = 0.1,
(PID.TID 0000.0001) >#when using ab3:
(PID.TID 0000.0001) > doAB_onGtGs=.FALSE.,
(PID.TID 0000.0001) > alph_AB=0.5,
(PID.TID 0000.0001) > beta_AB=0.281105,
(PID.TID 0000.0001) >#
(PID.TID 0000.0001) > pChkptFreq  =31536000.0,
(PID.TID 0000.0001) > chkptFreq   =31536000.0,
(PID.TID 0000.0001) ># taveFreq    =31536000.0,
(PID.TID 0000.0001) ># dumpFreq    =31536000.0,
(PID.TID 0000.0001) ># monitorFreq = 7200.0,
(PID.TID 0000.0001) > monitorFreq = 6307200.0,
(PID.TID 0000.0001) > dumpInitAndLast = .TRUE.,
(PID.TID 0000.0001) > adjDumpFreq = 31536000.0,
(PID.TID 0000.0001) >#adjDumpFreq = 604800.0,
(PID.TID 0000.0001) > adjMonitorFreq = 864000.0,
(PID.TID 0000.0001) > pickupStrictlyMatch=.FALSE.,
(PID.TID 0000.0001) > /
(PID.TID 0000.0001) >
(PID.TID 0000.0001) ># Gridding parameters
(PID.TID 0000.0001) > &PARM04
(PID.TID 0000.0001) > usingCurvilinearGrid=.TRUE.,
(PID.TID 0000.0001) > delR =
(PID.TID 0000.0001) >     10.00, 10.00, 10.00, 10.00, 10.00, 10.00, 10.00, 10.01,
(PID.TID 0000.0001) >     10.03, 10.11, 10.32, 10.80, 11.76, 13.42, 16.04, 19.82, 24.85,
(PID.TID 0000.0001) >     31.10, 38.42, 46.50, 55.00, 63.50, 71.58, 78.90, 85.15, 90.18,
(PID.TID 0000.0001) >     93.96, 96.58, 98.25, 99.25,100.01,101.33,104.56,111.33,122.83,
(PID.TID 0000.0001) >     139.09,158.94,180.83,203.55,226.50,249.50,272.50,295.50,318.50,
(PID.TID 0000.0001) >     341.50,364.50,387.50,410.50,433.50,456.50,
(PID.TID 0000.0001) > /
(PID.TID 0000.0001) >
(PID.TID 0000.0001) ># Input datasets
(PID.TID 0000.0001) > &PARM05
(PID.TID 0000.0001) > diffKrFile='total_diffkr_r009bit11.bin',
(PID.TID 0000.0001) > adTapeDir='tapes',
(PID.TID 0000.0001) >#bathyFile      ='bathy_eccollc_90x50.bin',
(PID.TID 0000.0001) > bathyFile      ='bathy_eccollc_90x50_min2pts.bin',
(PID.TID 0000.0001) > hydrogThetaFile='T_OWPv1_M_eccollc_90x50.bin',
(PID.TID 0000.0001) > hydrogSaltFile ='S_OWPv1_M_eccollc_90x50.bin',
(PID.TID 0000.0001) > viscA4Dfile    ='fenty_biharmonic_visc_v11.bin',
(PID.TID 0000.0001) > viscA4Zfile    ='fenty_biharmonic_visc_v11.bin',
(PID.TID 0000.0001) > geothermalFile='geothermalFlux.bin',
(PID.TID 0000.0001) >#
(PID.TID 0000.0001) > /
(PID.TID 0000.0001) 
(PID.TID 0000.0001)  INI_PARMS ; starts to read PARM01
(PID.TID 0000.0001)  INI_PARMS ; read PARM01 : OK
(PID.TID 0000.0001)  INI_PARMS ; starts to read PARM02
(PID.TID 0000.0001)  INI_PARMS ; read PARM02 : OK
(PID.TID 0000.0001)  INI_PARMS ; starts to read PARM03
(PID.TID 0000.0001)  INI_PARMS ; read PARM03 : OK
(PID.TID 0000.0001)  INI_PARMS ; starts to read PARM04
(PID.TID 0000.0001)  INI_PARMS ; read PARM04 : OK
(PID.TID 0000.0001)  INI_PARMS ; starts to read PARM05
(PID.TID 0000.0001)  INI_PARMS ; read PARM05 : OK
(PID.TID 0000.0001)  INI_PARMS: finished reading file "data"
(PID.TID 0000.0001)  PACKAGES_BOOT: opening data.pkg
(PID.TID 0000.0001)  OPEN_COPY_DATA_FILE: opening file data.pkg
(PID.TID 0000.0001) // =======================================================
(PID.TID 0000.0001) // Parameter file "data.pkg"
(PID.TID 0000.0001) // =======================================================
(PID.TID 0000.0001) ># Packages
(PID.TID 0000.0001) > &PACKAGES
(PID.TID 0000.0001) > useEXF   = .TRUE.,
(PID.TID 0000.0001) >#useRBCS  = .TRUE.,
(PID.TID 0000.0001) > useGMRedi= .TRUE.,
(PID.TID 0000.0001) ># useKPP   = .TRUE.,
(PID.TID 0000.0001) > useSBO   = .TRUE.,
(PID.TID 0000.0001) >#useMNC   = .TRUE.,
(PID.TID 0000.0001) > useSeaice= .TRUE.,
(PID.TID 0000.0001) > useGGL90=.TRUE.,
(PID.TID 0000.0001) > useSALT_PlUME=.TRUE.,
(PID.TID 0000.0001) ># useDOWN_SLOPE=.TRUE.,
(PID.TID 0000.0001) > useDiagnostics=.FALSE.,
(PID.TID 0000.0001) > useECCO=.TRUE.,
(PID.TID 0000.0001) > useCTRL=.TRUE.,
(PID.TID 0000.0001) > useProfiles=.TRUE.,
(PID.TID 0000.0001) > useSMOOTH=.TRUE.,
(PID.TID 0000.0001) >#useGrdchk=.TRUE.,
(PID.TID 0000.0001) >#useLayers=.TRUE.,
(PID.TID 0000.0001) >#
(PID.TID 0000.0001) >#usePtracers=.TRUE.,
(PID.TID 0000.0001) >#useBBL=.TRUE.,
(PID.TID 0000.0001) > /
(PID.TID 0000.0001) 
(PID.TID 0000.0001)  PACKAGES_BOOT: finished reading data.pkg
(PID.TID 0000.0001)  PACKAGES_BOOT: On/Off package Summary
 --------  pkgs with a standard "usePKG" On/Off switch in "data.pkg":  --------
 pkg/ggl90                compiled   and   used ( useGGL90                 = T )
 pkg/gmredi               compiled   and   used ( useGMRedi                = T )
 pkg/cal                  compiled   and   used ( useCAL                   = T )
 pkg/exf                  compiled   and   used ( useEXF                   = T )
 pkg/autodiff             compiled   and   used ( useAUTODIFF              = T )
 pkg/grdchk               compiled but not used ( useGrdchk                = F )
 pkg/smooth               compiled   and   used ( useSMOOTH                = T )
 pkg/profiles             compiled   and   used ( usePROFILES              = T )
 pkg/ecco                 compiled   and   used ( useECCO                  = T )
 pkg/ctrl                 compiled   and   used ( useCTRL                  = T )
 pkg/sbo                  compiled   and   used ( useSBO                   = T )
 pkg/seaice               compiled   and   used ( useSEAICE                = T )
 pkg/salt_plume           compiled   and   used ( useSALT_PLUME            = T )
 pkg/diagnostics          compiled but not used ( useDiagnostics           = F )
 -------- pkgs without standard "usePKG" On/Off switch in "data.pkg":  --------
 pkg/generic_advdiff      compiled   and   used ( useGAD                   = T )
 pkg/mom_common           compiled   and   used ( momStepping              = T )
 pkg/mom_vecinv           compiled   and   used ( +vectorInvariantMomentum = T )
 pkg/monitor              compiled   and   used ( monitorFreq > 0.         = T )
 pkg/timeave              compiled but not used ( taveFreq > 0.            = F )
 pkg/debug                compiled but not used ( debugMode                = F )
 pkg/exch2                compiled   and   used
 pkg/rw                   compiled   and   used
 pkg/mdsio                compiled   and   used
 pkg/autodiff             compiled   and   used
 pkg/cost                 compiled   and   used
(PID.TID 0000.0001)  PACKAGES_BOOT: End of package Summary
(PID.TID 0000.0001) 
(PID.TID 0000.0001) CAL_READPARMS: opening data.cal
(PID.TID 0000.0001)  OPEN_COPY_DATA_FILE: opening file data.cal
(PID.TID 0000.0001) // =======================================================
(PID.TID 0000.0001) // Parameter file "data.cal"
(PID.TID 0000.0001) // =======================================================
(PID.TID 0000.0001) >#
(PID.TID 0000.0001) ># *******************
(PID.TID 0000.0001) ># Calendar Parameters
(PID.TID 0000.0001) ># *******************
(PID.TID 0000.0001) > &CAL_NML
(PID.TID 0000.0001) > TheCalendar='gregorian',
(PID.TID 0000.0001) > calendarDumps=.TRUE.,
(PID.TID 0000.0001) ># TheCalendar='model',
(PID.TID 0000.0001) > startDate_1=19920101,
(PID.TID 0000.0001) > startDate_2=120000,
(PID.TID 0000.0001) > /
(PID.TID 0000.0001) 
(PID.TID 0000.0001) CAL_READPARMS: finished reading data.cal
(PID.TID 0000.0001) EXF_READPARMS: opening data.exf
(PID.TID 0000.0001)  OPEN_COPY_DATA_FILE: opening file data.exf
(PID.TID 0000.0001) // =======================================================
(PID.TID 0000.0001) // Parameter file "data.exf"
(PID.TID 0000.0001) // =======================================================
(PID.TID 0000.0001) ># *********************
(PID.TID 0000.0001) ># External Forcing Data
(PID.TID 0000.0001) ># *********************
(PID.TID 0000.0001) >#
(PID.TID 0000.0001) > &EXF_NML_01
(PID.TID 0000.0001) >#
(PID.TID 0000.0001) > useAtmWind        = .FALSE.,
(PID.TID 0000.0001) >#NCEP VALUES:
(PID.TID 0000.0001) ># exf_albedo        = 0.15,
(PID.TID 0000.0001) ># exf_scal_BulkCdn  = 1.015,
(PID.TID 0000.0001) >#
(PID.TID 0000.0001) >#TO COMBINE WITH ALLOW_ZENITH_ANGLE:
(PID.TID 0000.0001) > exf_albedo        = 0.1,
(PID.TID 0000.0001) > useExfZenIncoming = .TRUE.,
(PID.TID 0000.0001) > select_ZenAlbedo  = 1,
(PID.TID 0000.0001) >#
(PID.TID 0000.0001) > ocean_emissivity = 0.97,
(PID.TID 0000.0001) > ice_emissivity = 0.95,
(PID.TID 0000.0001) > snow_emissivity = 0.95,
(PID.TID 0000.0001) >#
(PID.TID 0000.0001) > exf_iprec         = 32,
(PID.TID 0000.0001) > exf_yftype        = 'RL',
(PID.TID 0000.0001) > useExfYearlyFields= .TRUE.,
(PID.TID 0000.0001) > useExfCheckRange  = .FALSE.,
(PID.TID 0000.0001) > readStressOnAgrid = .TRUE.,
(PID.TID 0000.0001) > rotateStressOnAgrid = .TRUE.,
(PID.TID 0000.0001) > /
(PID.TID 0000.0001) >#
(PID.TID 0000.0001) > &EXF_NML_02
(PID.TID 0000.0001) > ustressfile       = 'eccov4r4_ustr',
(PID.TID 0000.0001) > vstressfile       = 'eccov4r4_vstr',
(PID.TID 0000.0001) > atempfile         = 'eccov4r4_tmp2m_degC',
(PID.TID 0000.0001) > aqhfile           = 'eccov4r4_spfh2m',
(PID.TID 0000.0001) > precipfile        = 'eccov4r4_rain',
(PID.TID 0000.0001) ># uwindfile         = 'EIG_u10m',
(PID.TID 0000.0001) ># vwindfile         = 'EIG_v10m',
(PID.TID 0000.0001) > wspeedfile        = 'eccov4r4_wspeed',
(PID.TID 0000.0001) > swdownfile        = 'eccov4r4_dsw',
(PID.TID 0000.0001) > lwdownfile        = 'eccov4r4_dlw',
(PID.TID 0000.0001) > apressurefile     = 'eccov4r4_pres',
(PID.TID 0000.0001) >#
(PID.TID 0000.0001) > ustressstartdate1   = 19920101,
(PID.TID 0000.0001) > ustressstartdate2   = 030000,
(PID.TID 0000.0001) > ustressperiod       = 21600.0,
(PID.TID 0000.0001) >#
(PID.TID 0000.0001) > vstressstartdate1   = 19920101,
(PID.TID 0000.0001) > vstressstartdate2   = 030000,
(PID.TID 0000.0001) > vstressperiod       = 21600.0,
(PID.TID 0000.0001) >#
(PID.TID 0000.0001) > atempstartdate1   = 19920101,
(PID.TID 0000.0001) > atempstartdate2   = 030000,
(PID.TID 0000.0001) > atempperiod       = 21600.0,
(PID.TID 0000.0001) >#
(PID.TID 0000.0001) > aqhstartdate1     = 19920101,
(PID.TID 0000.0001) > aqhstartdate2     = 030000,
(PID.TID 0000.0001) > aqhperiod         = 21600.0,
(PID.TID 0000.0001) >#
(PID.TID 0000.0001) > precipstartdate1  = 19920101,
(PID.TID 0000.0001) > precipstartdate2  = 030000,
(PID.TID 0000.0001) > precipperiod      = 21600.0,
(PID.TID 0000.0001) >#
(PID.TID 0000.0001) > runofffile        = 'runoff-2d-Fekete-1deg-mon-V4-SMOOTH.bin',
(PID.TID 0000.0001) > runoffperiod      = -12,
(PID.TID 0000.0001) >#
(PID.TID 0000.0001) > uwindstartdate1   = 19920101,
(PID.TID 0000.0001) > uwindstartdate2   = 030000,
(PID.TID 0000.0001) > uwindperiod       = 21600.0,
(PID.TID 0000.0001) >#
(PID.TID 0000.0001) > vwindstartdate1   = 19920101,
(PID.TID 0000.0001) > vwindstartdate2   = 030000,
(PID.TID 0000.0001) > vwindperiod       = 21600.0,
(PID.TID 0000.0001) >#
(PID.TID 0000.0001) > wspeedstartdate1   = 19920101,
(PID.TID 0000.0001) > wspeedstartdate2   = 030000,
(PID.TID 0000.0001) > wspeedperiod       = 21600.0,
(PID.TID 0000.0001) >#
(PID.TID 0000.0001) > swdownstartdate1  = 19920101,
(PID.TID 0000.0001) > swdownstartdate2  = 030000,
(PID.TID 0000.0001) > swdownperiod      = 21600.0,
(PID.TID 0000.0001) >#
(PID.TID 0000.0001) > lwdownstartdate1  = 19920101,
(PID.TID 0000.0001) > lwdownstartdate2  = 030000,
(PID.TID 0000.0001) > lwdownperiod      = 21600.0,
(PID.TID 0000.0001) >#
(PID.TID 0000.0001) > apressurestartdate1   = 19920101,
(PID.TID 0000.0001) > apressurestartdate2   = 030000,
(PID.TID 0000.0001) > apressureperiod       = 21600.0,
(PID.TID 0000.0001) >#
(PID.TID 0000.0001) > climsstperiod     = -12.,
(PID.TID 0000.0001) >#climsssfile       = 'SSS_WPv1_M_eccollc_90x50.bin',
(PID.TID 0000.0001) > climsssperiod     = -12.,
(PID.TID 0000.0001) >#climsssTauRelax   = 15768000.,
(PID.TID 0000.0001) > /
(PID.TID 0000.0001) >#
(PID.TID 0000.0001) > &EXF_NML_03
(PID.TID 0000.0001) >#NOT FOR EIG exf_offset_atemp  = 273.3971,
(PID.TID 0000.0001) > exf_offset_atemp  = 273.15,
(PID.TID 0000.0001) >#NOT FOR NEW RUNOFF FIELD exf_inscal_runoff = 3.1710e-08,
(PID.TID 0000.0001) > exf_inscal_swdown = -1.0,
(PID.TID 0000.0001) > exf_inscal_lwdown = -1.0,
(PID.TID 0000.0001) > exf_inscal_ustress = -1.0,
(PID.TID 0000.0001) > exf_inscal_vstress = -1.0,
(PID.TID 0000.0001) ># to compensate for sea level rise for nlfs/realFWF
(PID.TID 0000.0001) >#precip_exfremo_intercept = 1.073E-9,
(PID.TID 0000.0001) >#precip_exfremo_slope = -3.340E-18,
(PID.TID 0000.0001) > /
(PID.TID 0000.0001) >#
(PID.TID 0000.0001) > &EXF_NML_04
(PID.TID 0000.0001) > runoff_interpMethod = 0,
(PID.TID 0000.0001) > climsss_interpMethod = 0,
(PID.TID 0000.0001) > ustress_interpMethod = 0,
(PID.TID 0000.0001) > vstress_interpMethod = 0,
(PID.TID 0000.0001) > atemp_interpMethod = 0,
(PID.TID 0000.0001) > aqh_interpMethod = 0,
(PID.TID 0000.0001) > precip_interpMethod = 0,
(PID.TID 0000.0001) > wspeed_interpMethod = 0,
(PID.TID 0000.0001) > swdown_interpMethod = 0,
(PID.TID 0000.0001) > lwdown_interpMethod = 0,
(PID.TID 0000.0001) > apressure_interpMethod = 0,
(PID.TID 0000.0001) >#
(PID.TID 0000.0001) > /
(PID.TID 0000.0001) 
(PID.TID 0000.0001) EXF_READPARMS: reading EXF_NML_01
(PID.TID 0000.0001) EXF_READPARMS: reading EXF_NML_02
(PID.TID 0000.0001) EXF_READPARMS: reading EXF_NML_03
(PID.TID 0000.0001) EXF_READPARMS: reading EXF_NML_04
(PID.TID 0000.0001) EXF_READPARMS: finished reading data.exf
(PID.TID 0000.0001)  GGL90_READPARMS: opening data.ggl90
(PID.TID 0000.0001)  OPEN_COPY_DATA_FILE: opening file data.ggl90
(PID.TID 0000.0001) // =======================================================
(PID.TID 0000.0001) // Parameter file "data.ggl90"
(PID.TID 0000.0001) // =======================================================
(PID.TID 0000.0001) ># =====================================================================
(PID.TID 0000.0001) ># | Parameters for Gaspar et al. (1990)'s TKE vertical mixing scheme  |
(PID.TID 0000.0001) ># =====================================================================
(PID.TID 0000.0001) > &GGL90_PARM01
(PID.TID 0000.0001) ># GGL90taveFreq = 345600000.,
(PID.TID 0000.0001) ># GGL90dumpFreq = 86400.,
(PID.TID 0000.0001) ># GGL90writeState=.FALSE.,
(PID.TID 0000.0001) ># GGL90diffTKEh=3.e3,
(PID.TID 0000.0001) > GGL90alpha=30.,
(PID.TID 0000.0001) ># GGL90TKEFile = 'TKE_init.bin',
(PID.TID 0000.0001) > GGL90TKEmin  = 1.e-7,
(PID.TID 0000.0001) > GGL90TKEbottom = 1.e-6,
(PID.TID 0000.0001) > mxlMaxFlag =2,
(PID.TID 0000.0001) > mxlSurfFlag=.TRUE.,
(PID.TID 0000.0001) > /
(PID.TID 0000.0001) 
(PID.TID 0000.0001)  GGL90_READPARMS: finished reading data.ggl90
(PID.TID 0000.0001) // =======================================================
(PID.TID 0000.0001) // GGL90 configuration
(PID.TID 0000.0001) // =======================================================
(PID.TID 0000.0001) GGL90dumpFreq =   /* GGL90 state write out interval ( s ). */
(PID.TID 0000.0001)                 0.000000000000000E+00
(PID.TID 0000.0001)     ;
(PID.TID 0000.0001) GGL90taveFreq =   /* GGL90 averaging interval ( s ). */
(PID.TID 0000.0001)                 0.000000000000000E+00
(PID.TID 0000.0001)     ;
(PID.TID 0000.0001) GGL90mixingMAPS =   /* GGL90 IO flag. */
(PID.TID 0000.0001)                   F
(PID.TID 0000.0001)     ;
(PID.TID 0000.0001) GGL90writeState =   /* GGL90 IO flag. */
(PID.TID 0000.0001)                   F
(PID.TID 0000.0001)     ;
(PID.TID 0000.0001) GGL90ck =   /* GGL90 viscosity parameter. */
(PID.TID 0000.0001)                 1.000000000000000E-01
(PID.TID 0000.0001)     ;
(PID.TID 0000.0001) GGL90ceps =   /* GGL90 dissipation parameter. */
(PID.TID 0000.0001)                 7.000000000000000E-01
(PID.TID 0000.0001)     ;
(PID.TID 0000.0001) GGL90alpha =   /* GGL90 TKE diffusivity parameter. */
(PID.TID 0000.0001)                 3.000000000000000E+01
(PID.TID 0000.0001)     ;
(PID.TID 0000.0001) GGL90m2 =   /* GGL90 wind stress to vertical stress ratio. */
(PID.TID 0000.0001)                 3.750000000000000E+00
(PID.TID 0000.0001)     ;
(PID.TID 0000.0001) GGL90TKEmin =   /* GGL90 minimum kinetic energy ( m^2/s^2 ). */
(PID.TID 0000.0001)                 1.000000000000000E-07
(PID.TID 0000.0001)     ;
(PID.TID 0000.0001) GGL90TKEsurfMin =   /* GGL90 minimum surface kinetic energy ( m^2/s^2 ). */
(PID.TID 0000.0001)                 1.000000000000000E-04
(PID.TID 0000.0001)     ;
(PID.TID 0000.0001) GGL90TKEbottom =   /* GGL90 bottom kinetic energy ( m^2/s^2 ). */
(PID.TID 0000.0001)                 1.000000000000000E-06
(PID.TID 0000.0001)     ;
(PID.TID 0000.0001) GGL90viscMax =   /* GGL90 upper limit for viscosity ( m^2/s ). */
(PID.TID 0000.0001)                 1.000000000000000E+02
(PID.TID 0000.0001)     ;
(PID.TID 0000.0001) GGL90diffMax =   /* GGL90 upper limit for diffusivity ( m^2/s ). */
(PID.TID 0000.0001)                 1.000000000000000E+02
(PID.TID 0000.0001)     ;
(PID.TID 0000.0001) GGL90diffTKEh =   /* GGL90 horizontal diffusivity for TKE ( m^2/s ). */
(PID.TID 0000.0001)                 0.000000000000000E+00
(PID.TID 0000.0001)     ;
(PID.TID 0000.0001) GGL90mixingLengthMin =   /* GGL90 minimum mixing length ( m ). */
(PID.TID 0000.0001)                 1.000000000000000E-08
(PID.TID 0000.0001)     ;
(PID.TID 0000.0001) mxlMaxFlag =   /* Flag for limiting mixing-length method */
(PID.TID 0000.0001)                       2
(PID.TID 0000.0001)     ;
(PID.TID 0000.0001) mxlSurfFlag =   /* GGL90 flag for near surface mixing. */
(PID.TID 0000.0001)                   T
(PID.TID 0000.0001)     ;
(PID.TID 0000.0001) calcMeanVertShear = /* calc Mean of Vert.Shear (vs shear of Mean flow) */
(PID.TID 0000.0001)                   F
(PID.TID 0000.0001)     ;
(PID.TID 0000.0001) GGL90: GGL90TKEFile =
(PID.TID 0000.0001) GGL90writeState =   /* GGL90 Boundary condition flag. */
(PID.TID 0000.0001)                   T
(PID.TID 0000.0001)     ;
(PID.TID 0000.0001) // =======================================================
(PID.TID 0000.0001) // End of GGL90 config. summary
(PID.TID 0000.0001) // =======================================================
(PID.TID 0000.0001) 
(PID.TID 0000.0001)  GM_READPARMS: opening data.gmredi
(PID.TID 0000.0001)  OPEN_COPY_DATA_FILE: opening file data.gmredi
(PID.TID 0000.0001) // =======================================================
(PID.TID 0000.0001) // Parameter file "data.gmredi"
(PID.TID 0000.0001) // =======================================================
(PID.TID 0000.0001) ># GM+Redi package parameters:
(PID.TID 0000.0001) >#     GM_Small_Number  :: epsilon used in computing the slope
(PID.TID 0000.0001) >#     GM_slopeSqCutoff :: slope^2 cut-off value
(PID.TID 0000.0001) >
(PID.TID 0000.0001) >#-from MOM :
(PID.TID 0000.0001) ># GM_background_K: 	G & Mc.W  diffusion coefficient
(PID.TID 0000.0001) ># GM_maxSlope    :	max slope of isopycnals
(PID.TID 0000.0001) ># GM_Scrit       :	transition for scaling diffusion coefficient
(PID.TID 0000.0001) ># GM_Sd          :	half width scaling for diffusion coefficient
(PID.TID 0000.0001) ># GM_taper_scheme:	slope clipping or one of the tapering schemes
(PID.TID 0000.0001) ># GM_Kmin_horiz  :	horizontal diffusion minimum value
(PID.TID 0000.0001) >
(PID.TID 0000.0001) >#-Option parameters (needs to "define" options in GMREDI_OPTIONS.h")
(PID.TID 0000.0001) ># GM_isopycK     :	isopycnal diffusion coefficient (default=GM_background_K)
(PID.TID 0000.0001) ># GM_AdvForm     :	turn on GM Advective form       (default=Skew flux form)
(PID.TID 0000.0001) >
(PID.TID 0000.0001) > &GM_PARM01
(PID.TID 0000.0001) >  GM_Small_Number  = 1.D-20,
(PID.TID 0000.0001) >  GM_slopeSqCutoff = 1.D+08,
(PID.TID 0000.0001) >  GM_AdvForm         = .TRUE.,
(PID.TID 0000.0001) >  GM_isopycK         = 1.D+3,
(PID.TID 0000.0001) >  GM_background_K    = 1.D+3,
(PID.TID 0000.0001) >  GM_maxSlope        = 4.D-3,
(PID.TID 0000.0001) >  GM_taper_scheme    = 'stableGmAdjTap',
(PID.TID 0000.0001) >  GM_Kmin_horiz      = 100.,
(PID.TID 0000.0001) >  GM_Scrit           = 4.D-3,
(PID.TID 0000.0001) >  GM_Sd              = 1.D-3,
(PID.TID 0000.0001) >  GM_background_K3dFile='total_kapgm_r009bit11.bin'
(PID.TID 0000.0001) >  GM_isopycK3dFile='total_kapredi_r009bit11.bin'
(PID.TID 0000.0001) >
(PID.TID 0000.0001) >#
(PID.TID 0000.0001) >###  GM_Visbeck_alpha   = 1.5D-2,
(PID.TID 0000.0001) >###  GM_Visbeck_alpha   = 0.D0,
(PID.TID 0000.0001) >###  GM_Visbeck_length  = 2.D+5,
(PID.TID 0000.0001) >###  GM_Visbeck_depth   = 1.D+3,
(PID.TID 0000.0001) >###  GM_Visbeck_maxval_K= 2.5D+3,
(PID.TID 0000.0001) > /
(PID.TID 0000.0001) >
(PID.TID 0000.0001) >
(PID.TID 0000.0001) 
(PID.TID 0000.0001)  GM_READPARMS: finished reading data.gmredi
(PID.TID 0000.0001) 
(PID.TID 0000.0001)  SEAICE_READPARMS: opening data.seaice
(PID.TID 0000.0001)  OPEN_COPY_DATA_FILE: opening file data.seaice
(PID.TID 0000.0001) // =======================================================
(PID.TID 0000.0001) // Parameter file "data.seaice"
(PID.TID 0000.0001) // =======================================================
(PID.TID 0000.0001) ># SEAICE parameters
(PID.TID 0000.0001) > &SEAICE_PARM01
(PID.TID 0000.0001) >
(PID.TID 0000.0001) >      SEAICEpresH0=2.,
(PID.TID 0000.0001) >      SEAICEpresPow0=1,
(PID.TID 0000.0001) >      SEAICEpresPow1=1,
(PID.TID 0000.0001) >
(PID.TID 0000.0001) >      SEAICE_strength = 2.25e4,
(PID.TID 0000.0001) >      SEAICE_area_max = 0.97,
(PID.TID 0000.0001) >
(PID.TID 0000.0001) >      SEAICE_no_slip     = .TRUE.,
(PID.TID 0000.0001) >
(PID.TID 0000.0001) >      SEAICE_drag=0.001,
(PID.TID 0000.0001) >      OCEAN_drag=0.001,
(PID.TID 0000.0001) >
(PID.TID 0000.0001) >#####
(PID.TID 0000.0001) >      SEAICEuseTILT=.FALSE.,
(PID.TID 0000.0001) >      SEAICE_multDim=1,
(PID.TID 0000.0001) >      SEAICErestoreUnderIce=.TRUE.,
(PID.TID 0000.0001) >
(PID.TID 0000.0001) >      SEAICE_salt0=4.,
(PID.TID 0000.0001) >
(PID.TID 0000.0001) >      LSR_ERROR          = 2.e-4,
(PID.TID 0000.0001) >      SEAICEuseDYNAMICS  = .TRUE.,
(PID.TID 0000.0001) >      MIN_ATEMP          = -40.,
(PID.TID 0000.0001) >      MIN_TICE           = -40.,
(PID.TID 0000.0001) >      SEAICEadvScheme    = 33,
(PID.TID 0000.0001) >      SEAICEuseFluxForm = .TRUE.,
(PID.TID 0000.0001) >      SEAICEadvSnow      = .TRUE.,
(PID.TID 0000.0001) >      SEAICEdiffKhHeff   = 400.,
(PID.TID 0000.0001) >      SEAICEdiffKhArea   = 400.,
(PID.TID 0000.0001) >      SEAICEdiffKhSnow   = 400.,
(PID.TID 0000.0001) >      SEAICEuseFlooding  = .TRUE.,
(PID.TID 0000.0001) >      SEAICE_mcPheePiston= 3.858024691358025E-05,
(PID.TID 0000.0001) >      SEAICE_frazilFrac  = 1.,
(PID.TID 0000.0001) >      SEAICE_mcPheeTaper = 0.,
(PID.TID 0000.0001) >      SEAICE_areaLossFormula=2,
(PID.TID 0000.0001) >      SEAICEheatConsFix  = .TRUE.,
(PID.TID 0000.0001) >      SEAICE_tempFrz0    = -1.96,
(PID.TID 0000.0001) >      SEAICE_dTempFrz_dS = 0.,
(PID.TID 0000.0001) >      SEAICEuseMetricTerms = .TRUE.,
(PID.TID 0000.0001) >      SEAICE_clipVelocities = .TRUE.,
(PID.TID 0000.0001) >
(PID.TID 0000.0001) >#take 33% out of (1-albedo)
(PID.TID 0000.0001) >      SEAICE_dryIceAlb   = 0.84,
(PID.TID 0000.0001) >      SEAICE_wetIceAlb   = 0.78,
(PID.TID 0000.0001) >      SEAICE_drySnowAlb  = 0.90,
(PID.TID 0000.0001) >      SEAICE_wetSnowAlb  = 0.8 ,
(PID.TID 0000.0001) >#default albedos
(PID.TID 0000.0001) >      SEAICE_dryIceAlb_south   = 0.75
(PID.TID 0000.0001) >      SEAICE_wetIceAlb_south   = 0.66
(PID.TID 0000.0001) >      SEAICE_drySnowAlb_south  = 0.84
(PID.TID 0000.0001) >      SEAICE_wetSnowAlb_south  = 0.7
(PID.TID 0000.0001) > /
(PID.TID 0000.0001) >#
(PID.TID 0000.0001) > &SEAICE_PARM02
(PID.TID 0000.0001) > /
(PID.TID 0000.0001) >
(PID.TID 0000.0001) 
(PID.TID 0000.0001)  SEAICE_READPARMS: finished reading data.seaice
(PID.TID 0000.0001) SALT_PLUME_READPARMS: opening data.salt_plume
(PID.TID 0000.0001)  OPEN_COPY_DATA_FILE: opening file data.salt_plume
(PID.TID 0000.0001) // =======================================================
(PID.TID 0000.0001) // Parameter file "data.salt_plume"
(PID.TID 0000.0001) // =======================================================
(PID.TID 0000.0001) > &SALT_PLUME_PARM01
(PID.TID 0000.0001) ># SaltPlumeCriterion = 0.4D0,
(PID.TID 0000.0001) > SPsalFRAC= 0.5D0,
(PID.TID 0000.0001) >#SPsalFRAC= 0.25D0,
(PID.TID 0000.0001) >#SPsalFRAC= 0.0D0,
(PID.TID 0000.0001) > /
(PID.TID 0000.0001) 
(PID.TID 0000.0001) SALT_PLUME_READPARMS: finished reading data.salt_plume
(PID.TID 0000.0001) AUTODIFF_READPARMS: opening data.autodiff
(PID.TID 0000.0001)  OPEN_COPY_DATA_FILE: opening file data.autodiff
(PID.TID 0000.0001) // =======================================================
(PID.TID 0000.0001) // Parameter file "data.autodiff"
(PID.TID 0000.0001) // =======================================================
(PID.TID 0000.0001) ># =========================
(PID.TID 0000.0001) ># pkg AUTODIFF parameters :
(PID.TID 0000.0001) ># =========================
(PID.TID 0000.0001) >#  inAdExact :: get an exact adjoint (no approximation) (def=.True.)
(PID.TID 0000.0001) >#
(PID.TID 0000.0001) > &AUTODIFF_PARM01
(PID.TID 0000.0001) ># inAdExact = .FALSE.,
(PID.TID 0000.0001) > useSEAICEinAdMode = .FALSE.,
(PID.TID 0000.0001) ># useKPPinAdMode = .FALSE.,
(PID.TID 0000.0001) ># useGMRediInAdMode = .FALSE.,
(PID.TID 0000.0001) > useGGL90inAdMode = .FALSE.,
(PID.TID 0000.0001) > useSALT_PLUMEinAdMode = .FALSE.,
(PID.TID 0000.0001) > /
(PID.TID 0000.0001) 
(PID.TID 0000.0001) AUTODIFF_READPARMS: finished reading data.autodiff
(PID.TID 0000.0001) // ===================================
(PID.TID 0000.0001) // AUTODIFF parameters :
(PID.TID 0000.0001) // ===================================
(PID.TID 0000.0001) inAdExact = /* get an exact adjoint (no approximation) */
(PID.TID 0000.0001)                   T
(PID.TID 0000.0001)     ;
(PID.TID 0000.0001) useKPPinAdMode = /* use KPP in adjoint mode */
(PID.TID 0000.0001)                   F
(PID.TID 0000.0001)     ;
(PID.TID 0000.0001) useGMRediInAdMode = /* use GMRedi in adjoint mode */
(PID.TID 0000.0001)                   T
(PID.TID 0000.0001)     ;
(PID.TID 0000.0001) useSEAICEinAdMode = /* use SEAICE in adjoint mode */
(PID.TID 0000.0001)                   F
(PID.TID 0000.0001)     ;
(PID.TID 0000.0001) useGGL90inAdMode = /* use GGL90 in adjoint mode */
(PID.TID 0000.0001)                   F
(PID.TID 0000.0001)     ;
(PID.TID 0000.0001) useSALT_PLUMEinAdMode = /* use SALT_PLUME in adjoint mode */
(PID.TID 0000.0001)                   F
(PID.TID 0000.0001)     ;
(PID.TID 0000.0001) SEAICEuseDYNAMICSswitchInAd = /* switch On/Off SEAICE Dyn in AD mode */
(PID.TID 0000.0001)                   F
(PID.TID 0000.0001)     ;
(PID.TID 0000.0001) SEAICEuseFREEDRIFTswitchInAd= /* switch On/Off Free-Drift in AD mode */
(PID.TID 0000.0001)                   F
(PID.TID 0000.0001)     ;
(PID.TID 0000.0001) SEAICEapproxLevInAd = /* -1:SEAICE_FAKE, >0:other adjoint approximation */
(PID.TID 0000.0001)                       0
(PID.TID 0000.0001)     ;
(PID.TID 0000.0001) dumpAdVarExch = /* control adexch before dumpinp */
(PID.TID 0000.0001)                       2
(PID.TID 0000.0001)     ;
(PID.TID 0000.0001) mon_AdVarExch = /* control adexch before monitor */
(PID.TID 0000.0001)                       2
(PID.TID 0000.0001)     ;
(PID.TID 0000.0001) viscFacInAd = /* viscosity factor for adjoint */
(PID.TID 0000.0001)                 1.000000000000000E+00
(PID.TID 0000.0001)     ;
(PID.TID 0000.0001) 
(PID.TID 0000.0001) OPTIM_READPARMS: opening data.optim
(PID.TID 0000.0001)  OPEN_COPY_DATA_FILE: opening file data.optim
(PID.TID 0000.0001) // =======================================================
(PID.TID 0000.0001) // Parameter file "data.optim"
(PID.TID 0000.0001) // =======================================================
(PID.TID 0000.0001) > &OPTIM
(PID.TID 0000.0001) > optimcycle=129,
(PID.TID 0000.0001) > /
(PID.TID 0000.0001) 
(PID.TID 0000.0001) OPTIM_READPARMS: finished reading data.optim
(PID.TID 0000.0001) CTRL_READPARMS: opening data.ctrl
(PID.TID 0000.0001)  OPEN_COPY_DATA_FILE: opening file data.ctrl
(PID.TID 0000.0001) // =======================================================
(PID.TID 0000.0001) // Parameter file "data.ctrl"
(PID.TID 0000.0001) // =======================================================
(PID.TID 0000.0001) ># *********************
(PID.TID 0000.0001) ># ECCO controlvariables
(PID.TID 0000.0001) ># *********************
(PID.TID 0000.0001) > &ctrl_nml
(PID.TID 0000.0001) >#
(PID.TID 0000.0001) > doSinglePrecTapelev=.TRUE.,
(PID.TID 0000.0001) > ctrlSmoothCorrel2D=.TRUE.,
(PID.TID 0000.0001) > ctrlSmoothCorrel3D=.TRUE.,
(PID.TID 0000.0001) >  ctrlUseGen=.TRUE.,
(PID.TID 0000.0001) >#to start from given xx*00.data files
(PID.TID 0000.0001) >  doinitxx = .FALSE.,
(PID.TID 0000.0001) >  doMainUnpack = .FALSE.,
(PID.TID 0000.0001) >#to start from given ecco_ctrl... files
(PID.TID 0000.0001) ># doinitxx = .FALSE.,
(PID.TID 0000.0001) >#
(PID.TID 0000.0001) >#doPackDiag = .TRUE.,
(PID.TID 0000.0001) > forcingPrecond=1.,
(PID.TID 0000.0001) >/
(PID.TID 0000.0001) >
(PID.TID 0000.0001) >#
(PID.TID 0000.0001) ># *********************
(PID.TID 0000.0001) ># names for ctrl_pack/unpack
(PID.TID 0000.0001) ># *********************
(PID.TID 0000.0001) > &ctrl_packnames
(PID.TID 0000.0001) > /
(PID.TID 0000.0001) >#
(PID.TID 0000.0001) ># *********************
(PID.TID 0000.0001) ># names for CTRL_GENARR, CTRL_GENTIM
(PID.TID 0000.0001) ># *********************
(PID.TID 0000.0001) > &CTRL_NML_GENARR
(PID.TID 0000.0001) >#
(PID.TID 0000.0001) > xx_genarr2d_weight(1) = 'SSH_weights_nonseasonal_rms_areascaled.bin',
(PID.TID 0000.0001) > xx_genarr2d_file(1)='xx_etan',
(PID.TID 0000.0001) > xx_genarr2d_bounds(1:5,1)=-9.0,-8.9,8.9,9.0,0.,
(PID.TID 0000.0001) > xx_genarr2d_preproc(1,1)='WC01',
(PID.TID 0000.0001) > xx_genarr2d_preproc_i(1,1)=1,
(PID.TID 0000.0001) > mult_genarr2d(1) = 1.,
(PID.TID 0000.0001) >#
(PID.TID 0000.0001) > xx_genarr3d_weight(1) = 'Theta_weights_nonseasonal_rmsv2_areascaled.bin',
(PID.TID 0000.0001) > xx_genarr3d_file(1)='xx_theta',
(PID.TID 0000.0001) > xx_genarr3d_bounds(1:5,1)=-2.0,-1.9,39.,40.,0.,
(PID.TID 0000.0001) > xx_genarr3d_preproc(1,1)='WC01',
(PID.TID 0000.0001) > xx_genarr3d_preproc_i(1,1)=1,
(PID.TID 0000.0001) > mult_genarr3d(1) = 1.,
(PID.TID 0000.0001) >#
(PID.TID 0000.0001) > xx_genarr3d_weight(2) = 'Salt_weights_nonseasonal_rmsv2_areascaled.bin',
(PID.TID 0000.0001) > xx_genarr3d_file(2)='xx_salt',
(PID.TID 0000.0001) > xx_genarr3d_bounds(1:5,2)=20.,20.5,40.5,41.,0.,
(PID.TID 0000.0001) > xx_genarr3d_preproc(1,2)='WC01',
(PID.TID 0000.0001) > xx_genarr3d_preproc_i(1,2)=1,
(PID.TID 0000.0001) > mult_genarr3d(2) = 1.,
(PID.TID 0000.0001) >#
(PID.TID 0000.0001) > xx_genarr3d_weight(3) = 'r2.wkapgmFldv2.data',
(PID.TID 0000.0001) > xx_genarr3d_file(3)='xx_kapgm',
(PID.TID 0000.0001) > xx_genarr3d_bounds(1:5,3)=1.E2,2.E2,0.9E4,1.E4,0.,
(PID.TID 0000.0001) > xx_genarr3d_preproc(1,3)='WC01',
(PID.TID 0000.0001) > xx_genarr3d_preproc_i(1,3)=1,
(PID.TID 0000.0001) > mult_genarr3d(3) = 1.,
(PID.TID 0000.0001) >#
(PID.TID 0000.0001) > xx_genarr3d_weight(4) = 'r2.wkaprediFldv2.data',
(PID.TID 0000.0001) > xx_genarr3d_file(4)='xx_kapredi',
(PID.TID 0000.0001) > xx_genarr3d_bounds(1:5,4)=1.E2,2.E2,0.9E4,1.E4,0.,
(PID.TID 0000.0001) > xx_genarr3d_preproc(1,4)='WC01',
(PID.TID 0000.0001) > xx_genarr3d_preproc_i(1,4)=1,
(PID.TID 0000.0001) > mult_genarr3d(4) = 1.,
(PID.TID 0000.0001) >#
(PID.TID 0000.0001) > xx_genarr3d_weight(5) = 'r2.wdiffkrFldv2.data',
(PID.TID 0000.0001) > xx_genarr3d_file(5)='xx_diffkr',
(PID.TID 0000.0001) > xx_genarr3d_bounds(1:5,5)=1.E-6,2.E-6,4.E-4,5.E-4,0.,
(PID.TID 0000.0001) > xx_genarr3d_preproc(1,5)='WC01',
(PID.TID 0000.0001) > xx_genarr3d_preproc_i(1,5)=1,
(PID.TID 0000.0001) > mult_genarr3d(5) = 1.,
(PID.TID 0000.0001) >#
(PID.TID 0000.0001) > xx_genarr3d_weight(6) = 'Uvel_weights_nonseasonal_rmsv2_areascaled.bin',
(PID.TID 0000.0001) > xx_genarr3d_file(6)='xx_uvel',
(PID.TID 0000.0001) > xx_genarr3d_bounds(1:5,6)=-3.,-2.9, 2.9,3.,0.,
(PID.TID 0000.0001) > xx_genarr3d_preproc(1,6)='WC01',
(PID.TID 0000.0001) > xx_genarr3d_preproc_i(1,6)=1,
(PID.TID 0000.0001) > mult_genarr3d(6) = 1.,
(PID.TID 0000.0001) >#
(PID.TID 0000.0001) > xx_genarr3d_weight(7) = 'Vvel_weights_nonseasonal_rmsv2_areascaled.bin',
(PID.TID 0000.0001) > xx_genarr3d_file(7)='xx_vvel',
(PID.TID 0000.0001) > xx_genarr3d_bounds(1:5,7)=-3.,-2.9, 2.9,3.,0.,
(PID.TID 0000.0001) > xx_genarr3d_preproc(1,7)='WC01',
(PID.TID 0000.0001) > xx_genarr3d_preproc_i(1,7)=1,
(PID.TID 0000.0001) > mult_genarr3d(7) = 1.,
(PID.TID 0000.0001) >
(PID.TID 0000.0001) > /
(PID.TID 0000.0001) 
(PID.TID 0000.0001) CTRL_READPARMS: finished reading data.ctrl
(PID.TID 0000.0001) COST_READPARMS: opening data.cost
(PID.TID 0000.0001)  OPEN_COPY_DATA_FILE: opening file data.cost
(PID.TID 0000.0001) // =======================================================
(PID.TID 0000.0001) // Parameter file "data.cost"
(PID.TID 0000.0001) // =======================================================
(PID.TID 0000.0001) >#
(PID.TID 0000.0001) >#
(PID.TID 0000.0001) ># ******************
(PID.TID 0000.0001) ># cost function
(PID.TID 0000.0001) ># ******************
(PID.TID 0000.0001) > &COST_NML
(PID.TID 0000.0001) > /
(PID.TID 0000.0001) 
(PID.TID 0000.0001) COST_READPARMS: finished reading data.cost
(PID.TID 0000.0001) SMOOTH_READPARMS: opening data.smooth
(PID.TID 0000.0001)  OPEN_COPY_DATA_FILE: opening file data.smooth
(PID.TID 0000.0001) // =======================================================
(PID.TID 0000.0001) // Parameter file "data.smooth"
(PID.TID 0000.0001) // =======================================================
(PID.TID 0000.0001) > &SMOOTH_NML
(PID.TID 0000.0001) > smooth2Dnbt(1)=300
(PID.TID 0000.0001) > smooth2Dtype(1)=1
(PID.TID 0000.0001) > smooth2Dsize(1)=2
(PID.TID 0000.0001) > smooth2Dfilter(1)=0
(PID.TID 0000.0001) > smooth3Dnbt(1)=300
(PID.TID 0000.0001) > smooth3DtypeH(1)=1
(PID.TID 0000.0001) > smooth3DsizeH(1)=3
(PID.TID 0000.0001) > smooth3DtypeZ(1)=1
(PID.TID 0000.0001) > smooth3DsizeZ(1)=3
(PID.TID 0000.0001) > smooth3Dfilter(1)=0
(PID.TID 0000.0001) > /
(PID.TID 0000.0001) 
(PID.TID 0000.0001) SMOOTH_READPARMS: finished reading data.smooth
(PID.TID 0000.0001) // =======================================================
(PID.TID 0000.0001) // pkg/smooth configuration
(PID.TID 0000.0001) // =======================================================
(PID.TID 0000.0001) smooth 2D parameters:  1   300    0.    0.
(PID.TID 0000.0001) smooth 3D parameters:  1   300    0.    0.    0.
(PID.TID 0000.0001) // =======================================================
(PID.TID 0000.0001) // End of pkg/smooth config. summary
(PID.TID 0000.0001) // =======================================================
(PID.TID 0000.0001) 
(PID.TID 0000.0001) ECCO_READPARMS: opening data.ecco
(PID.TID 0000.0001)  OPEN_COPY_DATA_FILE: opening file data.ecco
(PID.TID 0000.0001) // =======================================================
(PID.TID 0000.0001) // Parameter file "data.ecco"
(PID.TID 0000.0001) // =======================================================
(PID.TID 0000.0001) >#
(PID.TID 0000.0001) >#
(PID.TID 0000.0001) ># ******************
(PID.TID 0000.0001) ># ECCO cost function
(PID.TID 0000.0001) ># ******************
(PID.TID 0000.0001) >#
(PID.TID 0000.0001) > &ECCO_COST_NML
(PID.TID 0000.0001) >#
(PID.TID 0000.0001) > data_errfile    = 'data.err',
(PID.TID 0000.0001) > temp0errfile     = 'Theta_sigma_smoothed_method_02_masked_merged_capped_areascaled.bin',
(PID.TID 0000.0001) > salt0errfile     = 'Salt_sigma_smoothed_method_02_masked_merged_capped_areascaled.bin',
(PID.TID 0000.0001) > cost_iprec  = 32,
(PID.TID 0000.0001) > cost_yftype = 'RL',
(PID.TID 0000.0001) >#
(PID.TID 0000.0001) > /
(PID.TID 0000.0001) >#
(PID.TID 0000.0001) > &ECCO_GENCOST_NML
(PID.TID 0000.0001) >#
(PID.TID 0000.0001) >  gencost_avgperiod(1)  = 'day',
(PID.TID 0000.0001) >  gencost_barfile(1) = 'gbar_area',
(PID.TID 0000.0001) >  gencost_datafile(1) = 'NOAA_NSIDC_DAILY_v3b_MAPPED_TO_LLC90',
(PID.TID 0000.0001) >  gencost_errfile(1) = 'sigma_iceconc_eccollc_coastalmask_areascaled.bin',
(PID.TID 0000.0001) >  gencost_name(1) = 'siv4-conc',
(PID.TID 0000.0001) >  gencost_spmin(1) = -999.,
(PID.TID 0000.0001) >  gencost_spmax(1) = 999.,
(PID.TID 0000.0001) >  gencost_spzero(1) = -9999.,
(PID.TID 0000.0001) >  gencost_outputlevel(1)=1,
(PID.TID 0000.0001) >  mult_gencost(1) = 0.,
(PID.TID 0000.0001) >#
(PID.TID 0000.0001) >  gencost_avgperiod(2)  = 'day',
(PID.TID 0000.0001) >  gencost_barfile(2) = 'gbar_deconc',
(PID.TID 0000.0001) >  gencost_name(2) = 'siv4-deconc',
(PID.TID 0000.0001) >  gencost_datafile(2) = 'NOAA_NSIDC_DAILY_v3b_MAPPED_TO_LLC90',
(PID.TID 0000.0001) >  gencost_errfile(2) = 'seaiceproxy_sigma_coastalmask_areascaled.bin',
(PID.TID 0000.0001) >  gencost_spmin(2) = -999.,
(PID.TID 0000.0001) >  gencost_spmax(2) = 999.,
(PID.TID 0000.0001) >  gencost_spzero(2) = -9999.,
(PID.TID 0000.0001) >  gencost_outputlevel(2)=1,
(PID.TID 0000.0001) >  mult_gencost(2) = 0.071,
(PID.TID 0000.0001) >#
(PID.TID 0000.0001) >  gencost_avgperiod(3)  = 'day',
(PID.TID 0000.0001) >  gencost_barfile(3) = 'gbar_exconc',
(PID.TID 0000.0001) >  gencost_name(3) = 'siv4-exconc',
(PID.TID 0000.0001) >  gencost_datafile(3) = 'NOAA_NSIDC_DAILY_v3b_MAPPED_TO_LLC90',
(PID.TID 0000.0001) >  gencost_errfile(3) = 'seaiceproxy_sigma_coastalmask_areascaled.bin',
(PID.TID 0000.0001) >  gencost_spmin(3) = -999.,
(PID.TID 0000.0001) >  gencost_spmax(3) = 999.,
(PID.TID 0000.0001) >  gencost_spzero(3) = -9999.,
(PID.TID 0000.0001) >  gencost_outputlevel(3)=1,
(PID.TID 0000.0001) >  mult_gencost(3) = 0.,
(PID.TID 0000.0001) >#
(PID.TID 0000.0001) >  gencost_avgperiod(4)  = 'month',
(PID.TID 0000.0001) >  gencost_barfile(4) = 'm_sstmon',
(PID.TID 0000.0001) >  gencost_datafile(4) = 'reynolds_oiv2_r1_mar2018_simasked',
(PID.TID 0000.0001) >  gencost_errfile(4) = 'sigma_half_areascaled.bin',
(PID.TID 0000.0001) >  gencost_name(4) = 'sst-reynoldsmean',
(PID.TID 0000.0001) >  gencost_spmin(4) = -1.8,
(PID.TID 0000.0001) >  gencost_spmax(4) = 40.,
(PID.TID 0000.0001) >  gencost_spzero(4) = 0.,
(PID.TID 0000.0001) >  gencost_preproc(1,4)='mean',
(PID.TID 0000.0001) >  gencost_outputlevel(4)=1,
(PID.TID 0000.0001) >  mult_gencost(4) = 1.,
(PID.TID 0000.0001) >#
(PID.TID 0000.0001) >  gencost_avgperiod(5)  = 'month',
(PID.TID 0000.0001) >  gencost_barfile(5) = 'm_sstmon',
(PID.TID 0000.0001) >  gencost_datafile(5) = 'reynolds_oiv2_r1_mar2018_simasked',
(PID.TID 0000.0001) >  gencost_errfile(5) = 'sigma_half_areascaled.bin',
(PID.TID 0000.0001) >  gencost_name(5) = 'sst-reynoldsanom',
(PID.TID 0000.0001) >  gencost_spmin(5) = -1.8,
(PID.TID 0000.0001) >  gencost_spmax(5) = 40.,
(PID.TID 0000.0001) >  gencost_spzero(5) = 0.,
(PID.TID 0000.0001) >  gencost_preproc(1,5)='anom',
(PID.TID 0000.0001) >  gencost_outputlevel(5)=1,
(PID.TID 0000.0001) >  mult_gencost(5) = 1.,
(PID.TID 0000.0001) >
(PID.TID 0000.0001) >#
(PID.TID 0000.0001) ># gencost_avgperiod(5)  = 'month',
(PID.TID 0000.0001) ># gencost_barfile(5) = 'sstmon',
(PID.TID 0000.0001) ># gencost_datafile(5) = 'tmi_amsre_oisst_r1',
(PID.TID 0000.0001) ># gencost_errfile(5) = 'sigma_half_areascaled.bin',
(PID.TID 0000.0001) ># gencost_name(5) = 'sst-tmi-amsre',
(PID.TID 0000.0001) ># gencost_startdate1(5) = 19980101,
(PID.TID 0000.0001) ># gencost_startdate2(5)= 00000,
(PID.TID 0000.0001) ># gencost_spmin(5) = -1.8,
(PID.TID 0000.0001) ># gencost_spmax(5) = 40.,
(PID.TID 0000.0001) ># gencost_spzero(5) = 0.,
(PID.TID 0000.0001) ># gencost_outputlevel(5)=1,
(PID.TID 0000.0001) ># mult_gencost(5) = 0.,
(PID.TID 0000.0001) >#
(PID.TID 0000.0001) >  gencost_avgperiod(6)  = 'month',
(PID.TID 0000.0001) >  gencost_barfile(6) = 'm_bp_nopabarmon',
(PID.TID 0000.0001) >  gencost_datafile(6) = 'GRACE_jpl_rl05m_20180122',
(PID.TID 0000.0001) >  gencost_errfile(6) = 'GRACE_jpl_rl05m_20180122_err_areascaled',
(PID.TID 0000.0001) >  gencost_name(6) = 'bpv4-grace',
(PID.TID 0000.0001) >  gencost_outputlevel(6)=1,
(PID.TID 0000.0001) >  mult_gencost(6) = 1.,
(PID.TID 0000.0001) >#
(PID.TID 0000.0001) >  gencost_avgperiod(7)  = 'month',
(PID.TID 0000.0001) >  gencost_barfile(7) = 'm_thetamon',
(PID.TID 0000.0001) >  gencost_datafile(7) = 'T_monthly_woa09_highlatnearsurface_masked',
(PID.TID 0000.0001) >  gencost_errfile(7) = 'Theta_sigma_smoothed_method_02_masked_merged_capped_areascaled.bin',
(PID.TID 0000.0001) >#  gencost_name(7) = 'thetaclim',
(PID.TID 0000.0001) >  gencost_name(7) = 'thetamean',
(PID.TID 0000.0001) >  gencost_spmin(7) = -1.8,
(PID.TID 0000.0001) >  gencost_spmax(7) = 40.,
(PID.TID 0000.0001) >  gencost_spzero(7) = 0.,
(PID.TID 0000.0001) >  gencost_is3d(7)=.TRUE.,
(PID.TID 0000.0001) >  gencost_preproc(1,7)='mean',
(PID.TID 0000.0001) >  gencost_outputlevel(7)=1,
(PID.TID 0000.0001) >  mult_gencost(7) = 1.,
(PID.TID 0000.0001) >#
(PID.TID 0000.0001) >  gencost_avgperiod(8)  = 'month',
(PID.TID 0000.0001) >  gencost_barfile(8) = 'm_saltmon',
(PID.TID 0000.0001) >  gencost_datafile(8) = 'S_monthly_woa09_highlatnearsurface_masked',
(PID.TID 0000.0001) >  gencost_errfile(8) = 'Salt_sigma_smoothed_method_02_masked_merged_capped_areascaled.bin',
(PID.TID 0000.0001) >#  gencost_name(8) = 'saltclim',
(PID.TID 0000.0001) >  gencost_name(8) = 'saltmean',
(PID.TID 0000.0001) >  gencost_spmin(8) = 25.,
(PID.TID 0000.0001) >  gencost_spmax(8) = 40.,
(PID.TID 0000.0001) >  gencost_spzero(8) = 0.,
(PID.TID 0000.0001) >  gencost_is3d(8)=.TRUE.,
(PID.TID 0000.0001) >  gencost_preproc(1,8)='mean',
(PID.TID 0000.0001) >  gencost_outputlevel(8)=1,
(PID.TID 0000.0001) >  mult_gencost(8) = 1.,
(PID.TID 0000.0001) >#
(PID.TID 0000.0001) > gencost_datafile(11) = 'mdt2_dtu17.bin',
(PID.TID 0000.0001) > gencost_startdate1(11) = 19930101,
(PID.TID 0000.0001) > gencost_startdate2(11) = 00000,
(PID.TID 0000.0001) > gencost_enddate1(11) = 20171231,
(PID.TID 0000.0001) > gencost_enddate2(11) = 00000,
(PID.TID 0000.0001) > gencost_errfile(11) = 'mdt_dtu13_error_m_areascaled.bin',
(PID.TID 0000.0001) > gencost_name(11) = 'sshv4-mdt',
(PID.TID 0000.0001) > gencost_posproc(1,11)='smooth',
(PID.TID 0000.0001) > gencost_posproc_c(1,11)='sshv4_scale_1p5points.bin',
(PID.TID 0000.0001) > gencost_posproc_i(1,11)=300,
(PID.TID 0000.0001) ># gencost_scalefile(11) = 'sshv4_scale_1p5points.bin',
(PID.TID 0000.0001) > gencost_outputlevel(11)=1,
(PID.TID 0000.0001) > mult_gencost(11) = 1.,
(PID.TID 0000.0001) >#
(PID.TID 0000.0001) > gencost_barfile(12) = 'm_eta_dynday',
(PID.TID 0000.0001) > gencost_datafile(12) = 'RADS_TJ_mar2018',
(PID.TID 0000.0001) > gencost_startdate1(12) = 19920101,
(PID.TID 0000.0001) > gencost_startdate2(12) = 00000,
(PID.TID 0000.0001) > gencost_avgperiod(12)  = 'day',
(PID.TID 0000.0001) > gencost_errfile(12) = 'slaerr_gridscale_r5_areascaled.err',
(PID.TID 0000.0001) > gencost_name(12) = 'sshv4-tp',
(PID.TID 0000.0001) > gencost_outputlevel(12)=1,
(PID.TID 0000.0001) > mult_gencost(12) = 0.,
(PID.TID 0000.0001) >#
(PID.TID 0000.0001) > gencost_datafile(13) = 'RADS_ERS_ENV_SA_mar2018',
(PID.TID 0000.0001) > gencost_startdate1(13) = 19920101,
(PID.TID 0000.0001) > gencost_startdate2(13) = 00000,
(PID.TID 0000.0001) > gencost_avgperiod(13)  = 'day',
(PID.TID 0000.0001) > gencost_errfile(13) = 'slaerr_gridscale_r5_areascaled.err',
(PID.TID 0000.0001) > gencost_name(13) = 'sshv4-ers',
(PID.TID 0000.0001) > gencost_outputlevel(13)=1,
(PID.TID 0000.0001) > mult_gencost(13) = 0.,
(PID.TID 0000.0001) >#
(PID.TID 0000.0001) > gencost_datafile(14) = 'RADS_GFO_C2_mar2018',
(PID.TID 0000.0001) > gencost_startdate1(14) = 19920101,
(PID.TID 0000.0001) > gencost_startdate2(14) = 00000,
(PID.TID 0000.0001) > gencost_avgperiod(14)  = 'day',
(PID.TID 0000.0001) > gencost_errfile(14) = 'slaerr_gridscale_r5_areascaled.err',
(PID.TID 0000.0001) > gencost_name(14) = 'sshv4-gfo',
(PID.TID 0000.0001) > gencost_outputlevel(14)=1,
(PID.TID 0000.0001) > mult_gencost(14) = 0.,
(PID.TID 0000.0001) >#
(PID.TID 0000.0001) > gencost_errfile(15) = 'slaerr_largescale_r5_areascaled.err',
(PID.TID 0000.0001) > gencost_name(15) = 'sshv4-lsc',
(PID.TID 0000.0001) >#gencost_scalefile(15) = 'sshv4_scale_3points.bin',
(PID.TID 0000.0001) > gencost_posproc(1,15)='smooth',
(PID.TID 0000.0001) > gencost_posproc_c(1,15)='sshv4_scale_3points.bin',
(PID.TID 0000.0001) > gencost_posproc_i(1,15)=300,
(PID.TID 0000.0001) > gencost_outputlevel(15)=1,
(PID.TID 0000.0001) > mult_gencost(15) = 0.001,
(PID.TID 0000.0001) >#
(PID.TID 0000.0001) >#gencost_name(16) = 'sshv4-gmsl',
(PID.TID 0000.0001) >#gencost_outputlevel(16)=1,
(PID.TID 0000.0001) >#mult_gencost(16) = 0.,
(PID.TID 0000.0001) >#
(PID.TID 0000.0001) >  gencost_avgperiod(17)  = 'month',
(PID.TID 0000.0001) >  gencost_barfile(17) = 'm_thetamon',
(PID.TID 0000.0001) >  gencost_datafile(17) = 'T_monthly_woa09_highlatnearsurface_masked',
(PID.TID 0000.0001) >  gencost_errfile(17) = 'Theta_sigma_smoothed_method_02_masked_merged_capped_areascaled.bin',
(PID.TID 0000.0001) >#  gencost_name(17) = 'thetaclim',
(PID.TID 0000.0001) >  gencost_name(17) = 'thetaanom',
(PID.TID 0000.0001) >  gencost_spmin(17) = -1.8,
(PID.TID 0000.0001) >  gencost_spmax(17) = 40.,
(PID.TID 0000.0001) >  gencost_spzero(17) = 0.,
(PID.TID 0000.0001) >  gencost_is3d(17)=.TRUE.,
(PID.TID 0000.0001) >  gencost_preproc(1,17)='clim',
(PID.TID 0000.0001) >  gencost_preproc_i(1,17)=12,
(PID.TID 0000.0001) >  gencost_preproc(2,17)='anom',
(PID.TID 0000.0001) >  gencost_outputlevel(17)=1,
(PID.TID 0000.0001) >  mult_gencost(17) = 1.,
(PID.TID 0000.0001) >#
(PID.TID 0000.0001) >  gencost_avgperiod(18)  = 'month',
(PID.TID 0000.0001) >  gencost_barfile(18) = 'm_saltmon',
(PID.TID 0000.0001) >  gencost_datafile(18) = 'S_monthly_woa09_highlatnearsurface_masked',
(PID.TID 0000.0001) >  gencost_errfile(18) = 'Salt_sigma_smoothed_method_02_masked_merged_capped_areascaled.bin',
(PID.TID 0000.0001) >#  gencost_name(18) = 'saltclim',
(PID.TID 0000.0001) >  gencost_name(18) = 'saltanom',
(PID.TID 0000.0001) >  gencost_spmin(18) = 25.,
(PID.TID 0000.0001) >  gencost_spmax(18) = 40.,
(PID.TID 0000.0001) >  gencost_spzero(18) = 0.,
(PID.TID 0000.0001) >  gencost_is3d(18)=.TRUE.,
(PID.TID 0000.0001) >  gencost_preproc(1,18)='clim',
(PID.TID 0000.0001) >  gencost_preproc_i(1,18)=12,
(PID.TID 0000.0001) >  gencost_preproc(2,18)='anom',
(PID.TID 0000.0001) >  gencost_outputlevel(18)=1,
(PID.TID 0000.0001) >  mult_gencost(18) = 1.,
(PID.TID 0000.0001) >#
(PID.TID 0000.0001) >  gencost_avgperiod(19)  = 'month',
(PID.TID 0000.0001) >  gencost_barfile(19) = 'm_sssmon',
(PID.TID 0000.0001) >  gencost_datafile(19) = 'monthlyL3v5_20180129',
(PID.TID 0000.0001) >  gencost_errfile(19) = 'errStdAQ_v3_llc_090_floored_areascaled',
(PID.TID 0000.0001) >  gencost_name(19) = 'sss_AQanom',
(PID.TID 0000.0001) >  gencost_spmin(19) = 25.,
(PID.TID 0000.0001) >  gencost_spmax(19) = 40.,
(PID.TID 0000.0001) >  gencost_spzero(19) = 0.,
(PID.TID 0000.0001) >  gencost_preproc(1,19) = 'anom',
(PID.TID 0000.0001) ># gencost_is3d(19)=.TRUE.,
(PID.TID 0000.0001) >  gencost_outputlevel(19)=1,
(PID.TID 0000.0001) >  mult_gencost(19) = 1.,
(PID.TID 0000.0001) >#
(PID.TID 0000.0001) >  gencost_avgperiod(20)  = 'month',
(PID.TID 0000.0001) >  gencost_barfile(20) = 'm_sssmon',
(PID.TID 0000.0001) >  gencost_datafile(20) = 'monthlyL3v5_20180129',
(PID.TID 0000.0001) >  gencost_errfile(20) = 'biasStdAQ_v3_llc_090_floored_areascaled',
(PID.TID 0000.0001) >  gencost_name(20) = 'sss_AQmean',
(PID.TID 0000.0001) >  gencost_spmin(20) = 25.,
(PID.TID 0000.0001) >  gencost_spmax(20) = 40.,
(PID.TID 0000.0001) >  gencost_spzero(20) = 0.,
(PID.TID 0000.0001) >  gencost_preproc(1,20) = 'mean',
(PID.TID 0000.0001) ># gencost_is3d(20)=.TRUE.,
(PID.TID 0000.0001) >  gencost_outputlevel(20)=1,
(PID.TID 0000.0001) >  mult_gencost(20) = 1.,
(PID.TID 0000.0001) >#
(PID.TID 0000.0001) >  gencost_avgperiod(21)  = 'month',
(PID.TID 0000.0001) >  gencost_barfile(21) = 'm_bp_nopabarmon',
(PID.TID 0000.0001) >  gencost_datafile(21) = 'GRACE_jpl_rl05m_20180122_SpatialMean.asc',
(PID.TID 0000.0001) >  gencost_name(21) = 'gmbp',
(PID.TID 0000.0001) >  gencost_wei1d(21) = 0.1583,
(PID.TID 0000.0001) >  gencost_spmin(21) = -990.,
(PID.TID 0000.0001) >  gencost_spmax(21) = 990.,
(PID.TID 0000.0001) >  gencost_spzero(21) = 0.,
(PID.TID 0000.0001) >  gencost_is1d(21)=.TRUE.,
(PID.TID 0000.0001) >  gencost_outputlevel(21)=1,
(PID.TID 0000.0001) >  mult_gencost(21) = 1.,
(PID.TID 0000.0001) >#
(PID.TID 0000.0001) >  gencost_avgperiod(22)  = 'month',
(PID.TID 0000.0001) >  gencost_barfile(22) = 'm_eta_dynmon',
(PID.TID 0000.0001) >  gencost_datafile(22) = '20180228_ensemble_average_gmsl_ref.asc',
(PID.TID 0000.0001) >  gencost_name(22) = 'gmsl',
(PID.TID 0000.0001) >  gencost_wei1d(22) = 0.00382,
(PID.TID 0000.0001) >  gencost_spmin(22) = -990.,
(PID.TID 0000.0001) >  gencost_spmax(22) = 990.,
(PID.TID 0000.0001) >  gencost_spzero(22) = 0.,
(PID.TID 0000.0001) >  gencost_is1d(22)=.TRUE.,
(PID.TID 0000.0001) >  gencost_outputlevel(22)=1,
(PID.TID 0000.0001) >  mult_gencost(22) = 1.,
(PID.TID 0000.0001) >#
(PID.TID 0000.0001) >  gencost_barfile(27) = 'm_etaday',
(PID.TID 0000.0001) >  gencost_datafile(27) = 'RADS_TJ_mar2018',
(PID.TID 0000.0001) >  gencost_startdate1(27) = 19920101,
(PID.TID 0000.0001) >  gencost_startdate2(27) = 00000,
(PID.TID 0000.0001) >  gencost_avgperiod(27)  = 'day',
(PID.TID 0000.0001) >  gencost_errfile(27) = 'slaerr_gridscale_r5_areascaled.err',
(PID.TID 0000.0001) >  gencost_spmin(27) = -990.,
(PID.TID 0000.0001) >  gencost_spmax(27) = 990.,
(PID.TID 0000.0001) >  gencost_spzero(27) = 0.,
(PID.TID 0000.0001) >  gencost_outputlevel(27)=1,
(PID.TID 0000.0001) >  mult_gencost(27) = 0.,
(PID.TID 0000.0001) >#
(PID.TID 0000.0001) >  gencost_avgperiod(28)  = 'month',
(PID.TID 0000.0001) >  gencost_barfile(28) = 'm_etamon',
(PID.TID 0000.0001) >  gencost_datafile(28) = '20180228_ensemble_average_gmsl_ref.asc',
(PID.TID 0000.0001) >  gencost_wei1d(28) = 0.00382,
(PID.TID 0000.0001) >  gencost_spmin(28) = -990.,
(PID.TID 0000.0001) >  gencost_spmax(28) = 990.,
(PID.TID 0000.0001) >  gencost_spzero(28) = 0.,
(PID.TID 0000.0001) >  gencost_is1d(28)=.TRUE.,
(PID.TID 0000.0001) >  gencost_outputlevel(28)=1,
(PID.TID 0000.0001) >  mult_gencost(28) = 0.,
(PID.TID 0000.0001) >#
(PID.TID 0000.0001) >  gencost_avgperiod(29)  = 'month',
(PID.TID 0000.0001) >  gencost_barfile(29) = 'm_bpmon',
(PID.TID 0000.0001) >  gencost_datafile(29) = 'GRACE_jpl_rl05m_20180122_SpatialMean.asc',
(PID.TID 0000.0001) >  gencost_wei1d(29) = 0.1583,
(PID.TID 0000.0001) >  gencost_spmin(29) = -990.,
(PID.TID 0000.0001) >  gencost_spmax(29) = 990.,
(PID.TID 0000.0001) >  gencost_spzero(29) = 0.,
(PID.TID 0000.0001) >  gencost_is1d(29)=.TRUE.,
(PID.TID 0000.0001) >  gencost_outputlevel(29)=1,
(PID.TID 0000.0001) >  mult_gencost(29) = 0.,
(PID.TID 0000.0001) >#
(PID.TID 0000.0001) >  gencost_avgperiod(30)  = 'day',
(PID.TID 0000.0001) >  gencost_barfile(30) = 'm_bpday',
(PID.TID 0000.0001) >  gencost_datafile(30) = 'GRACE_fake_daily',
(PID.TID 0000.0001) >  gencost_errfile(30) = 'GRACE_jpl_rl05m_20180122_err_areascaled',
(PID.TID 0000.0001) >  gencost_spmin(30) = -990.,
(PID.TID 0000.0001) >  gencost_spmax(30) = 990.,
(PID.TID 0000.0001) >  gencost_spzero(30) = 0.,
(PID.TID 0000.0001) >  gencost_outputlevel(30)=1,
(PID.TID 0000.0001) >  mult_gencost(30) = 0.,
(PID.TID 0000.0001) >#
(PID.TID 0000.0001) >  gencost_avgperiod(31)  = 'day',
(PID.TID 0000.0001) >  gencost_barfile(31) = 'm_bp_nopabarday',
(PID.TID 0000.0001) >  gencost_datafile(31) = 'GRACE_fake_daily'
(PID.TID 0000.0001) >  gencost_errfile(31) = 'GRACE_jpl_rl05m_20180122_err_areascaled',
(PID.TID 0000.0001) >  gencost_spmin(31) = -990.,
(PID.TID 0000.0001) >  gencost_spmax(31) = 990.,
(PID.TID 0000.0001) >  gencost_spzero(31) = 0.,
(PID.TID 0000.0001) >  gencost_outputlevel(31)=1,
(PID.TID 0000.0001) >  mult_gencost(31) = 0.,
(PID.TID 0000.0001) > /
(PID.TID 0000.0001) >#
(PID.TID 0000.0001) 
(PID.TID 0000.0001) ECCO_READPARMS: finished reading #1: ecco_cost_nml
(PID.TID 0000.0001) ECCO_READPARMS: finished reading #2: ecco_gencost_nml
(PID.TID 0000.0001) ECCO_READPARMS: done
(PID.TID 0000.0001) PROFILES_READPARMS: opening data.profiles
(PID.TID 0000.0001)  OPEN_COPY_DATA_FILE: opening file data.profiles
(PID.TID 0000.0001) // =======================================================
(PID.TID 0000.0001) // Parameter file "data.profiles"
(PID.TID 0000.0001) // =======================================================
(PID.TID 0000.0001) >#
(PID.TID 0000.0001) ># ******************
(PID.TID 0000.0001) ># PROFILES cost function
(PID.TID 0000.0001) ># ******************
(PID.TID 0000.0001) > &PROFILES_NML
(PID.TID 0000.0001) >#
(PID.TID 0000.0001) > profilesDir='profiles',
(PID.TID 0000.0001) > profilesDoGenGrid=.TRUE.,
(PID.TID 0000.0001) >#
(PID.TID 0000.0001) > profiles_mean_indsamples(1) = 9,
(PID.TID 0000.0001) > profiles_mean_indsamples(2) = 9,
(PID.TID 0000.0001) >
(PID.TID 0000.0001) > profilesfiles(1)= 'ARGO_20190131_95to13',
(PID.TID 0000.0001) > profilesfiles(2)= 'ARGO_20190131_14to17',
(PID.TID 0000.0001) > profilesfiles(3)= 'APB_20190131_97to04',
(PID.TID 0000.0001) > profilesfiles(4)= 'CTD_20190131_92to05',
(PID.TID 0000.0001) > profilesfiles(5)= 'GLD_20190131_02to11',
(PID.TID 0000.0001) > profilesfiles(6)= 'GLD_20190131_12to13',
(PID.TID 0000.0001) > profilesfiles(7)= 'GLD_20190131_14to15',
(PID.TID 0000.0001) > profilesfiles(8)= 'MRB_20190131_92to03',
(PID.TID 0000.0001) > profilesfiles(9)= 'MRB_20190131_04to04',
(PID.TID 0000.0001) > profilesfiles(10)= 'XBT_20190131_92to05',
(PID.TID 0000.0001) > profilesfiles(11)= 'XBT_20190131_06to17',
(PID.TID 0000.0001) > profilesfiles(12)= 'ITP_20190131_04to13',
(PID.TID 0000.0001) >#profilesfiles(13)= 'beaufortgyremooring_GAMMA_20150915',
(PID.TID 0000.0001) >#profilesfiles(14)= 'beringstraitmooring_GAMMA_20150915',
(PID.TID 0000.0001) >#profilesfiles(15)= 'framstraitmooring_GAMMA_20150915',
(PID.TID 0000.0001) >#profilesfiles(16)= 'climode_GAMMA_20150915',
(PID.TID 0000.0001) >#profilesfiles(17)= 'davisstraitmooring_GAMMA_20150915',
(PID.TID 0000.0001) > profilesfiles(18)= 'GLD_20190131_16to17',
(PID.TID 0000.0001) > profilesfiles(19)= 'GOSHIP_20190131_92to17',
(PID.TID 0000.0001) > profilesfiles(20)= 'MRB_20190131_05to05',
(PID.TID 0000.0001) > profilesfiles(21)= 'MRB_20190131_06to17',
(PID.TID 0000.0001) > profilesfiles(22)= 'CTD_20190131_06to17',
(PID.TID 0000.0001) > profilesfiles(23)= 'ITP_20190131_14to17',
(PID.TID 0000.0001) > profilesfiles(24)= 'APB_20190131_05to05',
(PID.TID 0000.0001) > profilesfiles(25)= 'APB_20190131_06to06',
(PID.TID 0000.0001) > profilesfiles(26)= 'APB_20190131_07to07',
(PID.TID 0000.0001) > profilesfiles(27)= 'APB_20190131_08to09',
(PID.TID 0000.0001) > profilesfiles(28)= 'APB_20190131_10to17',
(PID.TID 0000.0001) > profilesfiles(29)= 'CCHDO_20190131_92to17',
(PID.TID 0000.0001) >#
(PID.TID 0000.0001) > mult_profiles_mean(1)   = 1.,
(PID.TID 0000.0001) > mult_profiles_mean(2)   = 1.,
(PID.TID 0000.0001) >
(PID.TID 0000.0001) > mult_profiles(1,1)   = 1.,
(PID.TID 0000.0001) > mult_profiles(1,2)   = 1.,
(PID.TID 0000.0001) > mult_profiles(2,1)   = 1.,
(PID.TID 0000.0001) > mult_profiles(2,2)   = 1.,
(PID.TID 0000.0001) > mult_profiles(3,1)   = 1.,
(PID.TID 0000.0001) > mult_profiles(3,2)   = 1.,
(PID.TID 0000.0001) > mult_profiles(4,1)   = 1.,
(PID.TID 0000.0001) > mult_profiles(4,2)   = 1.,
(PID.TID 0000.0001) > mult_profiles(5,1)   = 1.,
(PID.TID 0000.0001) > mult_profiles(5,2)   = 1.,
(PID.TID 0000.0001) > mult_profiles(6,1)   = 1.,
(PID.TID 0000.0001) > mult_profiles(6,2)   = 1.,
(PID.TID 0000.0001) > mult_profiles(7,1)   = 1.,
(PID.TID 0000.0001) > mult_profiles(7,2)   = 1.,
(PID.TID 0000.0001) > mult_profiles(8,1)   = 1.,
(PID.TID 0000.0001) > mult_profiles(8,2)   = 1.,
(PID.TID 0000.0001) > mult_profiles(9,1)   = 1.,
(PID.TID 0000.0001) > mult_profiles(9,2)   = 1.,
(PID.TID 0000.0001) > mult_profiles(10,1)   = 1.,
(PID.TID 0000.0001) > mult_profiles(10,2)   = 1.,
(PID.TID 0000.0001) > mult_profiles(11,1)   = 1.,
(PID.TID 0000.0001) > mult_profiles(11,2)   = 1.,
(PID.TID 0000.0001) > mult_profiles(12,1)   = 1.,
(PID.TID 0000.0001) > mult_profiles(12,2)   = 1.,
(PID.TID 0000.0001) > mult_profiles(13,1)   = 0.2,
(PID.TID 0000.0001) > mult_profiles(13,2)   = 0.2,
(PID.TID 0000.0001) > mult_profiles(14,1)   = 1.,
(PID.TID 0000.0001) > mult_profiles(14,2)   = 1.,
(PID.TID 0000.0001) > mult_profiles(15,1)   = 0.013,
(PID.TID 0000.0001) > mult_profiles(15,2)   = 0.013,
(PID.TID 0000.0001) > mult_profiles(16,1)   = 1.,
(PID.TID 0000.0001) > mult_profiles(16,2)   = 1.,
(PID.TID 0000.0001) > mult_profiles(17,1)   = 0.0165,
(PID.TID 0000.0001) > mult_profiles(17,2)   = 0.0165,
(PID.TID 0000.0001) > mult_profiles(18,1)   = 1.,
(PID.TID 0000.0001) > mult_profiles(18,2)   = 1.,
(PID.TID 0000.0001) > mult_profiles(19,1)   = 1.,
(PID.TID 0000.0001) > mult_profiles(19,2)   = 1.,
(PID.TID 0000.0001) > mult_profiles(20,1)   = 1.,
(PID.TID 0000.0001) > mult_profiles(20,2)   = 1.,
(PID.TID 0000.0001) > mult_profiles(21,1)   = 1.,
(PID.TID 0000.0001) > mult_profiles(21,2)   = 1.,
(PID.TID 0000.0001) > mult_profiles(22,1)   = 1.,
(PID.TID 0000.0001) > mult_profiles(22,2)   = 1.,
(PID.TID 0000.0001) > mult_profiles(23,1)   = 1.,
(PID.TID 0000.0001) > mult_profiles(23,2)   = 1.,
(PID.TID 0000.0001) > mult_profiles(24,1)   = 1.,
(PID.TID 0000.0001) > mult_profiles(24,2)   = 1.,
(PID.TID 0000.0001) > mult_profiles(25,1)   = 1.,
(PID.TID 0000.0001) > mult_profiles(25,2)   = 1.,
(PID.TID 0000.0001) > mult_profiles(26,1)   = 1.,
(PID.TID 0000.0001) > mult_profiles(26,2)   = 1.,
(PID.TID 0000.0001) > mult_profiles(27,1)   = 1.,
(PID.TID 0000.0001) > mult_profiles(27,2)   = 1.,
(PID.TID 0000.0001) > mult_profiles(28,1)   = 1.,
(PID.TID 0000.0001) > mult_profiles(28,2)   = 1.,
(PID.TID 0000.0001) > mult_profiles(29,1)   = 1.,
(PID.TID 0000.0001) > mult_profiles(29,2)   = 1.,
(PID.TID 0000.0001) >
(PID.TID 0000.0001) >#
(PID.TID 0000.0001) > /
(PID.TID 0000.0001) 
(PID.TID 0000.0001) PROFILES_READPARMS: finished reading data.profiles
(PID.TID 0000.0001)  SBO_READPARMS: opening data.sbo
(PID.TID 0000.0001)  OPEN_COPY_DATA_FILE: opening file data.sbo
(PID.TID 0000.0001) // =======================================================
(PID.TID 0000.0001) // Parameter file "data.sbo"
(PID.TID 0000.0001) // =======================================================
(PID.TID 0000.0001) >#
(PID.TID 0000.0001) ># *******************
(PID.TID 0000.0001) ># SBO Parameters
(PID.TID 0000.0001) ># *******************
(PID.TID 0000.0001) > &SBO_PARM01
(PID.TID 0000.0001) > /
(PID.TID 0000.0001) 
(PID.TID 0000.0001)  SBO_READPARMS: finished reading data.sbo
(PID.TID 0000.0001) SET_PARMS: done
==> SYSTEM CALL (from AUTODIFF_INI_MODEL_IO): > mkdir -p tapes <
==> SYSTEM CALL (from PROFILES_INI_IO): > mkdir -p profiles <
(PID.TID 0000.0001) Enter INI_VERTICAL_GRID: setInterFDr=    T ; setCenterDr=    F
(PID.TID 0000.0001) tile:  13 ; Read from file tile001.mitgrid
(PID.TID 0000.0001)   => xC yC dxF dyF rA xG yG dxV dyU rAz dxC dyC rAw rAs dxG dyG
(PID.TID 0000.0001) %MON XC_max                       =   1.7997758946678E+02
(PID.TID 0000.0001) %MON XC_min                       =  -1.7998895680928E+02
(PID.TID 0000.0001) %MON XC_mean                      =  -1.0354689745251E+01
(PID.TID 0000.0001) %MON XC_sd                        =   1.0601378873778E+02
(PID.TID 0000.0001) %MON XG_max                       =   1.8000000000000E+02
(PID.TID 0000.0001) %MON XG_min                       =  -1.7999919444240E+02
(PID.TID 0000.0001) %MON XG_mean                      =  -9.7316629877778E+00
(PID.TID 0000.0001) %MON XG_sd                        =   1.0605795026741E+02
(PID.TID 0000.0001) %MON DXC_max                      =   1.1117680031365E+05
(PID.TID 0000.0001) %MON DXC_min                      =   1.3362789164732E+04
(PID.TID 0000.0001) %MON DXC_mean                     =   7.1282067642819E+04
(PID.TID 0000.0001) %MON DXC_sd                       =   2.6365676113021E+04
(PID.TID 0000.0001) %MON DXF_max                      =   1.1117680031365E+05
(PID.TID 0000.0001) %MON DXF_min                      =   1.3491575949394E+04
(PID.TID 0000.0001) %MON DXF_mean                     =   7.1262567365097E+04
(PID.TID 0000.0001) %MON DXF_sd                       =   2.6385918670202E+04
(PID.TID 0000.0001) %MON DXG_max                      =   1.1117747335204E+05
(PID.TID 0000.0001) %MON DXG_min                      =   1.0930409249570E+04
(PID.TID 0000.0001) %MON DXG_mean                     =   7.1224912463018E+04
(PID.TID 0000.0001) %MON DXG_sd                       =   2.6396347680762E+04
(PID.TID 0000.0001) %MON DXV_max                      =   1.1117747335204E+05
(PID.TID 0000.0001) %MON DXV_min                      =   9.4742518926426E+03
(PID.TID 0000.0001) %MON DXV_mean                     =   7.1244400980648E+04
(PID.TID 0000.0001) %MON DXV_sd                       =   2.6376171348787E+04
(PID.TID 0000.0001) %MON YC_max                       =   8.9739397429324E+01
(PID.TID 0000.0001) %MON YC_min                       =  -8.8102666383598E+01
(PID.TID 0000.0001) %MON YC_mean                      =  -3.8493079484782E+00
(PID.TID 0000.0001) %MON YC_sd                        =   5.1076689278256E+01
(PID.TID 0000.0001) %MON YG_max                       =   9.0000000000000E+01
(PID.TID 0000.0001) %MON YG_min                       =  -8.8024090322283E+01
(PID.TID 0000.0001) %MON YG_mean                      =  -3.8179083153408E+00
(PID.TID 0000.0001) %MON YG_sd                        =   5.1084555464417E+01
(PID.TID 0000.0001) %MON DYC_max                      =   1.1117680031365E+05
(PID.TID 0000.0001) %MON DYC_min                      =   1.2851209862268E+04
(PID.TID 0000.0001) %MON DYC_mean                     =   7.0996219118354E+04
(PID.TID 0000.0001) %MON DYC_sd                       =   2.7172906336655E+04
(PID.TID 0000.0001) %MON DYF_max                      =   1.1117680031365E+05
(PID.TID 0000.0001) %MON DYF_min                      =   1.2946481280457E+04
(PID.TID 0000.0001) %MON DYF_mean                     =   7.1029727417398E+04
(PID.TID 0000.0001) %MON DYF_sd                       =   2.7169103980511E+04
(PID.TID 0000.0001) %MON DYG_max                      =   1.1117747335204E+05
(PID.TID 0000.0001) %MON DYG_min                      =   1.0930409249570E+04
(PID.TID 0000.0001) %MON DYG_mean                     =   7.1056024568496E+04
(PID.TID 0000.0001) %MON DYG_sd                       =   2.7138779068799E+04
(PID.TID 0000.0001) %MON DYU_max                      =   1.1117747335204E+05
(PID.TID 0000.0001) %MON DYU_min                      =   9.4742518926426E+03
(PID.TID 0000.0001) %MON DYU_mean                     =   7.1022557361675E+04
(PID.TID 0000.0001) %MON DYU_sd                       =   2.7142564797123E+04
(PID.TID 0000.0001) %MON RA_max                       =   1.1896090857160E+10
(PID.TID 0000.0001) %MON RA_min                       =   1.8802726709832E+08
(PID.TID 0000.0001) %MON RA_mean                      =   5.6509598865793E+09
(PID.TID 0000.0001) %MON RA_sd                        =   3.6237073945657E+09
(PID.TID 0000.0001) %MON RAW_max                      =   1.1896090856781E+10
(PID.TID 0000.0001) %MON RAW_min                      =   1.7369571508711E+08
(PID.TID 0000.0001) %MON RAW_mean                     =   5.6529106837210E+09
(PID.TID 0000.0001) %MON RAW_sd                       =   3.6222060900726E+09
(PID.TID 0000.0001) %MON RAS_max                      =   1.1896090856781E+10
(PID.TID 0000.0001) %MON RAS_min                      =   1.7369571508711E+08
(PID.TID 0000.0001) %MON RAS_mean                     =   5.6462585155598E+09
(PID.TID 0000.0001) %MON RAS_sd                       =   3.6239168120244E+09
(PID.TID 0000.0001) %MON RAZ_max                      =   1.1891903479271E+10
(PID.TID 0000.0001) %MON RAZ_min                      =   1.0413402423292E+08
(PID.TID 0000.0001) %MON RAZ_mean                     =   5.6482099179688E+09
(PID.TID 0000.0001) %MON RAZ_sd                       =   3.6224179770596E+09
(PID.TID 0000.0001) %MON AngleCS_max                  =   1.0000000000000E+00
(PID.TID 0000.0001) %MON AngleCS_min                  =  -9.9996641938864E-01
(PID.TID 0000.0001) %MON AngleCS_mean                 =   3.7891728692339E-01
(PID.TID 0000.0001) %MON AngleCS_sd                   =   5.4799109936655E-01
(PID.TID 0000.0001) %MON AngleSN_max                  =   9.9996641938864E-01
(PID.TID 0000.0001) %MON AngleSN_min                  =  -1.0000000000000E+00
(PID.TID 0000.0001) %MON AngleSN_mean                 =  -5.1564638641270E-01
(PID.TID 0000.0001) %MON AngleSN_sd                   =   5.3873578762245E-01
(PID.TID 0000.0001) 
(PID.TID 0000.0001) // =======================================================
(PID.TID 0000.0001) // Calendar configuration >>> START <<<
(PID.TID 0000.0001) // =======================================================
(PID.TID 0000.0001) 
(PID.TID 0000.0001) modelstart = /* Start time of the model integration [s] */
(PID.TID 0000.0001)                 3.600000000000000E+03
(PID.TID 0000.0001)     ;
(PID.TID 0000.0001) modelend  = /* End time of the model integration [s] */
(PID.TID 0000.0001)                 4.719960000000000E+07
(PID.TID 0000.0001)     ;
(PID.TID 0000.0001) modelStep = /* Time interval for a model forward step [s] */
(PID.TID 0000.0001)                 3.600000000000000E+03
(PID.TID 0000.0001)     ;
(PID.TID 0000.0001) usingGregorianCalendar= /* Calendar Type: Gregorian Calendar */
(PID.TID 0000.0001)                   T
(PID.TID 0000.0001)     ;
(PID.TID 0000.0001) usingJulianCalendar = /* Calendar Type: Julian Calendar */
(PID.TID 0000.0001)                   F
(PID.TID 0000.0001)     ;
(PID.TID 0000.0001) usingNoLeapYearCal  = /* Calendar Type: without Leap Year */
(PID.TID 0000.0001)                   F
(PID.TID 0000.0001)     ;
(PID.TID 0000.0001) usingModelCalendar  = /* Calendar Type: Model Calendar */
(PID.TID 0000.0001)                   F
(PID.TID 0000.0001)     ;
(PID.TID 0000.0001) modelStartDate YYYYMMDD = /* Model start date YYYY-MM-DD */
(PID.TID 0000.0001)                19920101
(PID.TID 0000.0001)     ;
(PID.TID 0000.0001)   modelStartDate HHMMSS = /* Model start date HH-MM-SS  */
(PID.TID 0000.0001)                  130000
(PID.TID 0000.0001)     ;
(PID.TID 0000.0001) modelEndDate   YYYYMMDD = /* Model end date YYYY-MM-DD */
(PID.TID 0000.0001)                19930630
(PID.TID 0000.0001)     ;
(PID.TID 0000.0001)   modelEndDate   HHMMSS = /* Model end date HH-MM-SS  */
(PID.TID 0000.0001)                  190000
(PID.TID 0000.0001)     ;
(PID.TID 0000.0001) intyears = /* Number of calendar years affected by the integration */
(PID.TID 0000.0001)                       2
(PID.TID 0000.0001)     ;
(PID.TID 0000.0001) intmonths= /* Number of calendar months affected by the integration */
(PID.TID 0000.0001)                      18
(PID.TID 0000.0001)     ;
(PID.TID 0000.0001) intdays = /* Number of calendar days affected by the integration */
(PID.TID 0000.0001)                     547
(PID.TID 0000.0001)     ;
(PID.TID 0000.0001) modelIter0 = /* Base timestep number  */
(PID.TID 0000.0001)                       1
(PID.TID 0000.0001)     ;
(PID.TID 0000.0001) modelIterEnd = /* Final timestep number  */
(PID.TID 0000.0001)                   13111
(PID.TID 0000.0001)     ;
(PID.TID 0000.0001) modelIntSteps= /* Number of model timesteps  */
(PID.TID 0000.0001)                   13110
(PID.TID 0000.0001)     ;
(PID.TID 0000.0001) 
(PID.TID 0000.0001) // =======================================================
(PID.TID 0000.0001) // Calendar configuration  >>> END <<<
(PID.TID 0000.0001) // =======================================================
(PID.TID 0000.0001) 
(PID.TID 0000.0001) GAD_INIT_FIXED: GAD_OlMinSize=  2  0  2
(PID.TID 0000.0001) 
(PID.TID 0000.0001) // ===================================
(PID.TID 0000.0001) // GAD parameters :
(PID.TID 0000.0001) // ===================================
(PID.TID 0000.0001) tempAdvScheme =   /* Temp. Horiz.Advection scheme selector */
(PID.TID 0000.0001)                      30
(PID.TID 0000.0001)     ;
(PID.TID 0000.0001) tempVertAdvScheme =   /* Temp. Vert. Advection scheme selector */
(PID.TID 0000.0001)                       3
(PID.TID 0000.0001)     ;
(PID.TID 0000.0001) tempMultiDimAdvec =   /* use Muti-Dim Advec method for Temp */
(PID.TID 0000.0001)                   T
(PID.TID 0000.0001)     ;
(PID.TID 0000.0001) tempSOM_Advection = /* use 2nd Order Moment Advection for Temp */
(PID.TID 0000.0001)                   F
(PID.TID 0000.0001)     ;
(PID.TID 0000.0001) AdamsBashforthGt = /* apply Adams-Bashforth extrapolation on Gt */
(PID.TID 0000.0001)                   F
(PID.TID 0000.0001)     ;
(PID.TID 0000.0001) AdamsBashforth_T = /* apply Adams-Bashforth extrapolation on Temp */
(PID.TID 0000.0001)                   F
(PID.TID 0000.0001)     ;
(PID.TID 0000.0001) saltAdvScheme =   /* Salt. Horiz.advection scheme selector */
(PID.TID 0000.0001)                      30
(PID.TID 0000.0001)     ;
(PID.TID 0000.0001) saltVertAdvScheme =   /* Salt. Vert. Advection scheme selector */
(PID.TID 0000.0001)                       3
(PID.TID 0000.0001)     ;
(PID.TID 0000.0001) saltMultiDimAdvec =   /* use Muti-Dim Advec method for Salt */
(PID.TID 0000.0001)                   T
(PID.TID 0000.0001)     ;
(PID.TID 0000.0001) saltSOM_Advection = /* use 2nd Order Moment Advection for Salt */
(PID.TID 0000.0001)                   F
(PID.TID 0000.0001)     ;
(PID.TID 0000.0001) AdamsBashforthGs = /* apply Adams-Bashforth extrapolation on Gs */
(PID.TID 0000.0001)                   F
(PID.TID 0000.0001)     ;
(PID.TID 0000.0001) AdamsBashforth_S = /* apply Adams-Bashforth extrapolation on Salt */
(PID.TID 0000.0001)                   F
(PID.TID 0000.0001)     ;
(PID.TID 0000.0001) // ===================================
(PID.TID 0000.0001) 
(PID.TID 0000.0001) // =======================================================
(PID.TID 0000.0001) // External forcing (EXF) configuration >>> START <<<
(PID.TID 0000.0001) // =======================================================
(PID.TID 0000.0001) 
(PID.TID 0000.0001)  EXF general parameters:
(PID.TID 0000.0001) 
(PID.TID 0000.0001) exf_iprec = /* exf file precision */
(PID.TID 0000.0001)                      32
(PID.TID 0000.0001)     ;
(PID.TID 0000.0001) useExfYearlyFields = /* add extension _YEAR to input file names */
(PID.TID 0000.0001)                   T
(PID.TID 0000.0001)     ;
(PID.TID 0000.0001) twoDigitYear = /* use 2-digit year extension */
(PID.TID 0000.0001)                   F
(PID.TID 0000.0001)     ;
(PID.TID 0000.0001) useExfCheckRange = /* check for fields range */
(PID.TID 0000.0001)                   F
(PID.TID 0000.0001)     ;
(PID.TID 0000.0001) exf_output_interp = /* output directly interpolation result */
(PID.TID 0000.0001)                   F
(PID.TID 0000.0001)     ;
(PID.TID 0000.0001) exf_debugLev = /* select EXF-debug printing level */
(PID.TID 0000.0001)                       1
(PID.TID 0000.0001)     ;
(PID.TID 0000.0001) exf_monFreq  = /* EXF monitor frequency [ s ] */
(PID.TID 0000.0001)                 6.307200000000000E+06
(PID.TID 0000.0001)     ;
(PID.TID 0000.0001) repeatPeriod = /* period for cycling forcing dataset [ s ] */
(PID.TID 0000.0001)                 0.000000000000000E+00
(PID.TID 0000.0001)     ;
(PID.TID 0000.0001) climTempFreeze= /* Minimum climatological temperature [deg.C] */
(PID.TID 0000.0001)                -1.900000000000000E+00
(PID.TID 0000.0001)     ;
(PID.TID 0000.0001) windStressMax = /* Maximum absolute windstress [ Pa ] */
(PID.TID 0000.0001)                 2.000000000000000E+00
(PID.TID 0000.0001)     ;
(PID.TID 0000.0001) stressIsOnCgrid = /* set u,v_stress on Arakawa C-grid */
(PID.TID 0000.0001)                   F
(PID.TID 0000.0001)     ;
(PID.TID 0000.0001) rotateStressOnAgrid = /* rotate u,v_stress on Arakawa A-grid */
(PID.TID 0000.0001)                   T
(PID.TID 0000.0001)     ;
(PID.TID 0000.0001) cen2kel = /* conversion of deg. Centigrade to Kelvin [K] */
(PID.TID 0000.0001)                 2.731500000000000E+02
(PID.TID 0000.0001)     ;
(PID.TID 0000.0001) gravity_mks= /* gravitational acceleration [m/s^2] */
(PID.TID 0000.0001)                 9.810000000000000E+00
(PID.TID 0000.0001)     ;
(PID.TID 0000.0001) atmrho =  /* mean atmospheric density [kg/m^3] */
(PID.TID 0000.0001)                 1.200000000000000E+00
(PID.TID 0000.0001)     ;
(PID.TID 0000.0001) atmcp =  /* mean atmospheric specific heat [J/kg/K] */
(PID.TID 0000.0001)                 1.005000000000000E+03
(PID.TID 0000.0001)     ;
(PID.TID 0000.0001) flamb =  /* latent heat of evaporation [J/kg] */
(PID.TID 0000.0001)                 2.500000000000000E+06
(PID.TID 0000.0001)     ;
(PID.TID 0000.0001) flami =  /* latent heat of pure-ice melting [J/kg] */
(PID.TID 0000.0001)                 3.340000000000000E+05
(PID.TID 0000.0001)     ;
(PID.TID 0000.0001) cvapor_fac = /* const. for Saturation calculation [?] */
(PID.TID 0000.0001)                 6.403800000000000E+05
(PID.TID 0000.0001)     ;
(PID.TID 0000.0001) cvapor_exp = /* const. for Saturation calculation [?] */
(PID.TID 0000.0001)                 5.107400000000000E+03
(PID.TID 0000.0001)     ;
(PID.TID 0000.0001) cvapor_fac_ice= /* const. for Saturation calculation [?] */
(PID.TID 0000.0001)                 1.163780000000000E+07
(PID.TID 0000.0001)     ;
(PID.TID 0000.0001) cvapor_exp_ice= /* const. for Saturation calculation [?] */
(PID.TID 0000.0001)                 5.897800000000000E+03
(PID.TID 0000.0001)     ;
(PID.TID 0000.0001) humid_fac = /* humidity coef. in virtual temp. [(kg/kg)^-1] */
(PID.TID 0000.0001)                 6.060000000000000E-01
(PID.TID 0000.0001)     ;
(PID.TID 0000.0001) gamma_blk = /* adiabatic lapse rate [?] */
(PID.TID 0000.0001)                 1.000000000000000E-02
(PID.TID 0000.0001)     ;
(PID.TID 0000.0001) saltsat = /* reduction of Qsat over salty water [-] */
(PID.TID 0000.0001)                 9.800000000000000E-01
(PID.TID 0000.0001)     ;
(PID.TID 0000.0001) noNegativeEvap = /* prevent negative Evaporation */
(PID.TID 0000.0001)                   F
(PID.TID 0000.0001)     ;
(PID.TID 0000.0001) sstExtrapol = /* extrapolation coeff from lev. 1 & 2 to surf [-] */
(PID.TID 0000.0001)                 0.000000000000000E+00
(PID.TID 0000.0001)     ;
(PID.TID 0000.0001) cDrag_1 = /* coef used in drag calculation [?] */
(PID.TID 0000.0001)                 2.700000000000000E-03
(PID.TID 0000.0001)     ;
(PID.TID 0000.0001) cDrag_2 = /* coef used in drag calculation [?] */
(PID.TID 0000.0001)                 1.420000000000000E-04
(PID.TID 0000.0001)     ;
(PID.TID 0000.0001) cDrag_3 = /* coef used in drag calculation [?] */
(PID.TID 0000.0001)                 7.640000000000000E-05
(PID.TID 0000.0001)     ;
(PID.TID 0000.0001) cStanton_1 = /* coef used in Stanton number calculation [?] */
(PID.TID 0000.0001)                 3.270000000000000E-02
(PID.TID 0000.0001)     ;
(PID.TID 0000.0001) cStanton_2 = /* coef used in Stanton number calculation [?] */
(PID.TID 0000.0001)                 1.800000000000000E-02
(PID.TID 0000.0001)     ;
(PID.TID 0000.0001) cDalton = /* coef used in Dalton number calculation [?] */
(PID.TID 0000.0001)                 3.460000000000000E-02
(PID.TID 0000.0001)     ;
(PID.TID 0000.0001) exf_scal_BulkCdn= /* Drag coefficient scaling factor [-] */
(PID.TID 0000.0001)                 1.000000000000000E+00
(PID.TID 0000.0001)     ;
(PID.TID 0000.0001) zolmin = /* minimum stability parameter [?] */
(PID.TID 0000.0001)                -1.000000000000000E+02
(PID.TID 0000.0001)     ;
(PID.TID 0000.0001) psim_fac = /* coef used in turbulent fluxes calculation [-] */
(PID.TID 0000.0001)                 5.000000000000000E+00
(PID.TID 0000.0001)     ;
(PID.TID 0000.0001) zref =  /* reference height [ m ] */
(PID.TID 0000.0001)                 1.000000000000000E+01
(PID.TID 0000.0001)     ;
(PID.TID 0000.0001) hu =  /* height of mean wind [ m ] */
(PID.TID 0000.0001)                 1.000000000000000E+01
(PID.TID 0000.0001)     ;
(PID.TID 0000.0001) ht =  /* height of mean temperature [ m ] */
(PID.TID 0000.0001)                 2.000000000000000E+00
(PID.TID 0000.0001)     ;
(PID.TID 0000.0001) hq =  /* height of mean spec.humidity [ m ] */
(PID.TID 0000.0001)                 2.000000000000000E+00
(PID.TID 0000.0001)     ;
(PID.TID 0000.0001) uMin = /* minimum wind speed [m/s] */
(PID.TID 0000.0001)                 5.000000000000000E-01
(PID.TID 0000.0001)     ;
(PID.TID 0000.0001) useStabilityFct_overIce= /* transfert Coeffs over sea-ice depend on stability */
(PID.TID 0000.0001)                   F
(PID.TID 0000.0001)     ;
(PID.TID 0000.0001) exf_iceCd = /* drag coefficient over sea-ice (fixed) [-] */
(PID.TID 0000.0001)                 1.630000000000000E-03
(PID.TID 0000.0001)     ;
(PID.TID 0000.0001) exf_iceCe = /* transfert coeff. over sea-ice, for Evap (fixed) [-] */
(PID.TID 0000.0001)                 1.630000000000000E-03
(PID.TID 0000.0001)     ;
(PID.TID 0000.0001) exf_iceCh = /* transfert coeff. over sea-ice, Sens.Heat.(fixed)[-] */
(PID.TID 0000.0001)                 1.630000000000000E-03
(PID.TID 0000.0001)     ;
(PID.TID 0000.0001) exf_albedo =  /* Sea-water albedo [-] */
(PID.TID 0000.0001)                 1.000000000000000E-01
(PID.TID 0000.0001)     ;
(PID.TID 0000.0001) useExfZenAlbedo = /* Sea-water albedo varies with zenith angle */
(PID.TID 0000.0001)                   T
(PID.TID 0000.0001)     ;
(PID.TID 0000.0001) select_ZenAlbedo = /* Sea-water albedo computation method */
(PID.TID 0000.0001)                       1
(PID.TID 0000.0001)     ;
(PID.TID 0000.0001) useExfZenIncoming = /* compute incoming solar radiation */
(PID.TID 0000.0001)                   T
(PID.TID 0000.0001)     ;
(PID.TID 0000.0001) ocean_emissivity = /* longwave ocean-surface emissivity [-] */
(PID.TID 0000.0001)                 9.700000000000000E-01
(PID.TID 0000.0001)     ;
(PID.TID 0000.0001) ice_emissivity = /* longwave seaice emissivity [-] */
(PID.TID 0000.0001)                 9.500000000000000E-01
(PID.TID 0000.0001)     ;
(PID.TID 0000.0001) snow_emissivity = /* longwave snow  emissivity [-] */
(PID.TID 0000.0001)                 9.500000000000000E-01
(PID.TID 0000.0001)     ;
(PID.TID 0000.0001) 
(PID.TID 0000.0001)  EXF main CPP flags:
(PID.TID 0000.0001) 
(PID.TID 0000.0001) // USE_EXF_INTERPOLATION:              defined
(PID.TID 0000.0001) // ALLOW_ATM_TEMP:                     defined
(PID.TID 0000.0001) // ALLOW_ATM_WIND (useAtmWind):    NOT defined
(PID.TID 0000.0001) // ALLOW_DOWNWARD_RADIATION:           defined
(PID.TID 0000.0001) // ALLOW_BULKFORMULAE:                 defined
(PID.TID 0000.0001) 
(PID.TID 0000.0001)    Zonal wind stress forcing starts at               10800.
(PID.TID 0000.0001)    Zonal wind stress forcing period is               21600.
(PID.TID 0000.0001)    Zonal wind stress forcing repeat-cycle is             0.
(PID.TID 0000.0001)    Zonal wind stress forcing is read from file:
(PID.TID 0000.0001)    >> eccov4r4_ustr <<
(PID.TID 0000.0001)    assume "ustress" on model-grid (no interpolation)
(PID.TID 0000.0001) 
(PID.TID 0000.0001)    Meridional wind stress forcing starts at          10800.
(PID.TID 0000.0001)    Meridional wind stress forcing period is          21600.
(PID.TID 0000.0001)    Meridional wind stress forcing rep-cycle is           0.
(PID.TID 0000.0001)    Meridional wind stress forcing is read from file:
(PID.TID 0000.0001)    >> eccov4r4_vstr <<
(PID.TID 0000.0001)    assume "vstress" on model-grid (no interpolation)
(PID.TID 0000.0001)     Interp. U & V comp. together: uvInterp_stress =    F
(PID.TID 0000.0001) 
(PID.TID 0000.0001)    Atmospheric temperature starts at                 10800.
(PID.TID 0000.0001)    Atmospheric temperature period is                 21600.
(PID.TID 0000.0001)    Atmospheric temperature repeat-cycle is               0.
(PID.TID 0000.0001)    Atmospheric temperature is read from file:
(PID.TID 0000.0001)    >> eccov4r4_tmp2m_degC <<
(PID.TID 0000.0001)    assume "atemp" on model-grid (no interpolation)
(PID.TID 0000.0001) 
(PID.TID 0000.0001)    Atmospheric specific humidity starts at           10800.
(PID.TID 0000.0001)    Atmospheric specific humidity period is           21600.
(PID.TID 0000.0001)    Atmospheric specific humidity rep-cycle is            0.
(PID.TID 0000.0001)    Atmospheric specific humidity is read from file:
(PID.TID 0000.0001)    >> eccov4r4_spfh2m <<
(PID.TID 0000.0001)    assume "aqh" on model-grid (no interpolation)
(PID.TID 0000.0001) 
(PID.TID 0000.0001) // ALLOW_READ_TURBFLUXES:          NOT defined
(PID.TID 0000.0001) // EXF_READ_EVAP:                  NOT defined
(PID.TID 0000.0001) 
(PID.TID 0000.0001)    Precipitation data starts at                      10800.
(PID.TID 0000.0001)    Precipitation data period is                      21600.
(PID.TID 0000.0001)    Precipitation data repeat-cycle is                    0.
(PID.TID 0000.0001)    Precipitation data is read from file:
(PID.TID 0000.0001)    >> eccov4r4_rain <<
(PID.TID 0000.0001)    assume "precip" on model-grid (no interpolation)
(PID.TID 0000.0001) 
(PID.TID 0000.0001) // ALLOW_RUNOFF:                       defined
(PID.TID 0000.0001)    Runoff data period is                               -12.
(PID.TID 0000.0001)    Runoff data is read from file:
(PID.TID 0000.0001)    >> runoff-2d-Fekete-1deg-mon-V4-SMOOTH.bin <<
(PID.TID 0000.0001)    assume "runoff" on model-grid (no interpolation)
(PID.TID 0000.0001) 
(PID.TID 0000.0001) // ALLOW_RUNOFTEMP:                NOT defined
(PID.TID 0000.0001) // ALLOW_SALTFLX:                      defined
(PID.TID 0000.0001) 
(PID.TID 0000.0001)    Downward shortwave flux starts at                 10800.
(PID.TID 0000.0001)    Downward shortwave flux period is                 21600.
(PID.TID 0000.0001)    Downward shortwave flux repeat-cycle is               0.
(PID.TID 0000.0001)    Downward shortwave flux is read from file:
(PID.TID 0000.0001)    >> eccov4r4_dsw <<
(PID.TID 0000.0001)    assume "swdown" on model-grid (no interpolation)
(PID.TID 0000.0001) 
(PID.TID 0000.0001)    Downward longwave flux starts at                  10800.
(PID.TID 0000.0001)    Downward longwave flux period is                  21600.
(PID.TID 0000.0001)    Downward longwave flux repeat-cycle is                0.
(PID.TID 0000.0001)    Downward longwave flux is read from file:
(PID.TID 0000.0001)    >> eccov4r4_dlw <<
(PID.TID 0000.0001)    assume "lwdown" on model-grid (no interpolation)
(PID.TID 0000.0001) 
(PID.TID 0000.0001)    Atmospheric pressure forcing starts at            10800.
(PID.TID 0000.0001)    Atmospheric pressure forcing period is            21600.
(PID.TID 0000.0001)    Atmospheric pressure forcing rep-cycle is             0.
(PID.TID 0000.0001)    Atmospheric pressure forcing is read from file:
(PID.TID 0000.0001)    >> eccov4r4_pres <<
(PID.TID 0000.0001)    assume "apressure" on model-grid (no interpolation)
(PID.TID 0000.0001) 
(PID.TID 0000.0001) // =======================================================
(PID.TID 0000.0001) // External forcing (EXF) climatology configuration :
(PID.TID 0000.0001) // =======================================================
(PID.TID 0000.0001) 
(PID.TID 0000.0001) // ALLOW_CLIMSST_RELAXATION:           defined
(PID.TID 0000.0001)    climsst relaxation is NOT used
(PID.TID 0000.0001) 
(PID.TID 0000.0001) // ALLOW_CLIMSSS_RELAXATION:           defined
(PID.TID 0000.0001)    climsss relaxation is NOT used
(PID.TID 0000.0001) 
(PID.TID 0000.0001) // =======================================================
(PID.TID 0000.0001) // External forcing (EXF) configuration  >>> END <<<
(PID.TID 0000.0001) // =======================================================
(PID.TID 0000.0001) 
(PID.TID 0000.0001)  OPEN_COPY_DATA_FILE: opening file GRACE_jpl_rl05m_20180122_SpatialMean.asc
(PID.TID 0000.0001) // =======================================================
(PID.TID 0000.0001) // Parameter file "GRACE_jpl_rl05m_20180122_SpatialMean.asc"
(PID.TID 0000.0001) // =======================================================
(PID.TID 0000.0001) >  -999.0000
(PID.TID 0000.0001) >  -999.0000
(PID.TID 0000.0001) >  -999.0000
(PID.TID 0000.0001) >  -999.0000
(PID.TID 0000.0001) >  -999.0000
(PID.TID 0000.0001) >  -999.0000
(PID.TID 0000.0001) >  -999.0000
(PID.TID 0000.0001) >  -999.0000
(PID.TID 0000.0001) >  -999.0000
(PID.TID 0000.0001) >  -999.0000
(PID.TID 0000.0001) >  -999.0000
(PID.TID 0000.0001) >  -999.0000
(PID.TID 0000.0001) >  -999.0000
(PID.TID 0000.0001) >  -999.0000
(PID.TID 0000.0001) >  -999.0000
(PID.TID 0000.0001) >  -999.0000
(PID.TID 0000.0001) >  -999.0000
(PID.TID 0000.0001) >  -999.0000
(PID.TID 0000.0001) >  -999.0000
(PID.TID 0000.0001) >  -999.0000
(PID.TID 0000.0001) >  -999.0000
(PID.TID 0000.0001) >  -999.0000
(PID.TID 0000.0001) >  -999.0000
(PID.TID 0000.0001) >  -999.0000
(PID.TID 0000.0001) >  -999.0000
(PID.TID 0000.0001) >  -999.0000
(PID.TID 0000.0001) >  -999.0000
(PID.TID 0000.0001) >  -999.0000
(PID.TID 0000.0001) >  -999.0000
(PID.TID 0000.0001) >  -999.0000
(PID.TID 0000.0001) >  -999.0000
(PID.TID 0000.0001) >  -999.0000
(PID.TID 0000.0001) >  -999.0000
(PID.TID 0000.0001) >  -999.0000
(PID.TID 0000.0001) >  -999.0000
(PID.TID 0000.0001) >  -999.0000
(PID.TID 0000.0001) >  -999.0000
(PID.TID 0000.0001) >  -999.0000
(PID.TID 0000.0001) >  -999.0000
(PID.TID 0000.0001) >  -999.0000
(PID.TID 0000.0001) >  -999.0000
(PID.TID 0000.0001) >  -999.0000
(PID.TID 0000.0001) >  -999.0000
(PID.TID 0000.0001) >  -999.0000
(PID.TID 0000.0001) >  -999.0000
(PID.TID 0000.0001) >  -999.0000
(PID.TID 0000.0001) >  -999.0000
(PID.TID 0000.0001) >  -999.0000
(PID.TID 0000.0001) >  -999.0000
(PID.TID 0000.0001) >  -999.0000
(PID.TID 0000.0001) >  -999.0000
(PID.TID 0000.0001) >  -999.0000
(PID.TID 0000.0001) >  -999.0000
(PID.TID 0000.0001) >  -999.0000
(PID.TID 0000.0001) >  -999.0000
(PID.TID 0000.0001) >  -999.0000
(PID.TID 0000.0001) >  -999.0000
(PID.TID 0000.0001) >  -999.0000
(PID.TID 0000.0001) >  -999.0000
(PID.TID 0000.0001) >  -999.0000
(PID.TID 0000.0001) >  -999.0000
(PID.TID 0000.0001) >  -999.0000
(PID.TID 0000.0001) >  -999.0000
(PID.TID 0000.0001) >  -999.0000
(PID.TID 0000.0001) >  -999.0000
(PID.TID 0000.0001) >  -999.0000
(PID.TID 0000.0001) >  -999.0000
(PID.TID 0000.0001) >  -999.0000
(PID.TID 0000.0001) >  -999.0000
(PID.TID 0000.0001) >  -999.0000
(PID.TID 0000.0001) >  -999.0000
(PID.TID 0000.0001) >  -999.0000
(PID.TID 0000.0001) >  -999.0000
(PID.TID 0000.0001) >  -999.0000
(PID.TID 0000.0001) >  -999.0000
(PID.TID 0000.0001) >  -999.0000
(PID.TID 0000.0001) >  -999.0000
(PID.TID 0000.0001) >  -999.0000
(PID.TID 0000.0001) >  -999.0000
(PID.TID 0000.0001) >  -999.0000
(PID.TID 0000.0001) >  -999.0000
(PID.TID 0000.0001) >  -999.0000
(PID.TID 0000.0001) >  -999.0000
(PID.TID 0000.0001) >  -999.0000
(PID.TID 0000.0001) >  -999.0000
(PID.TID 0000.0001) >  -999.0000
(PID.TID 0000.0001) >  -999.0000
(PID.TID 0000.0001) >  -999.0000
(PID.TID 0000.0001) >  -999.0000
(PID.TID 0000.0001) >  -999.0000
(PID.TID 0000.0001) >  -999.0000
(PID.TID 0000.0001) >  -999.0000
(PID.TID 0000.0001) >  -999.0000
(PID.TID 0000.0001) >  -999.0000
(PID.TID 0000.0001) >  -999.0000
(PID.TID 0000.0001) >  -999.0000
(PID.TID 0000.0001) >  -999.0000
(PID.TID 0000.0001) >  -999.0000
(PID.TID 0000.0001) >  -999.0000
(PID.TID 0000.0001) >  -999.0000
(PID.TID 0000.0001) >  -999.0000
(PID.TID 0000.0001) >  -999.0000
(PID.TID 0000.0001) >  -999.0000
(PID.TID 0000.0001) >  -999.0000
(PID.TID 0000.0001) >  -999.0000
(PID.TID 0000.0001) >  -999.0000
(PID.TID 0000.0001) >  -999.0000
(PID.TID 0000.0001) >  -999.0000
(PID.TID 0000.0001) >  -999.0000
(PID.TID 0000.0001) >  -999.0000
(PID.TID 0000.0001) >  -999.0000
(PID.TID 0000.0001) >  -999.0000
(PID.TID 0000.0001) >  -999.0000
(PID.TID 0000.0001) >  -999.0000
(PID.TID 0000.0001) >  -999.0000
(PID.TID 0000.0001) >  -999.0000
(PID.TID 0000.0001) >  -999.0000
(PID.TID 0000.0001) >  -999.0000
(PID.TID 0000.0001) >  -999.0000
(PID.TID 0000.0001) >  -999.0000
(PID.TID 0000.0001) >  -999.0000
(PID.TID 0000.0001) >  -999.0000
(PID.TID 0000.0001) >  -999.0000
(PID.TID 0000.0001) >    -1.5388
(PID.TID 0000.0001) >  -999.0000
(PID.TID 0000.0001) >  -999.0000
(PID.TID 0000.0001) >  -999.0000
(PID.TID 0000.0001) >    -0.0248
(PID.TID 0000.0001) >     0.2932
(PID.TID 0000.0001) >     0.3102
(PID.TID 0000.0001) >     0.0922
(PID.TID 0000.0001) >    -0.0298
(PID.TID 0000.0001) >    -0.4188
(PID.TID 0000.0001) >    -0.6158
(PID.TID 0000.0001) >    -0.9188
(PID.TID 0000.0001) >    -0.9888
(PID.TID 0000.0001) >  -999.0000
(PID.TID 0000.0001) >  -999.0000
(PID.TID 0000.0001) >    -0.3688
(PID.TID 0000.0001) >     0.1912
(PID.TID 0000.0001) >     0.2652
(PID.TID 0000.0001) >     0.4822
(PID.TID 0000.0001) >     0.2602
(PID.TID 0000.0001) >    -0.0588
(PID.TID 0000.0001) >  -999.0000
(PID.TID 0000.0001) >    -0.7528
(PID.TID 0000.0001) >    -0.8628
(PID.TID 0000.0001) >    -1.3578
(PID.TID 0000.0001) >    -1.2408
(PID.TID 0000.0001) >    -0.6928
(PID.TID 0000.0001) >    -0.3358
(PID.TID 0000.0001) >     0.0592
(PID.TID 0000.0001) >     0.2422
(PID.TID 0000.0001) >     0.4852
(PID.TID 0000.0001) >     0.2622
(PID.TID 0000.0001) >    -0.0378
(PID.TID 0000.0001) >    -0.2518
(PID.TID 0000.0001) >    -0.6918
(PID.TID 0000.0001) >    -1.0148
(PID.TID 0000.0001) >    -1.1048
(PID.TID 0000.0001) >    -0.9988
(PID.TID 0000.0001) >    -0.4218
(PID.TID 0000.0001) >    -0.0018
(PID.TID 0000.0001) >     0.2812
(PID.TID 0000.0001) >     0.4302
(PID.TID 0000.0001) >     0.6062
(PID.TID 0000.0001) >     0.6752
(PID.TID 0000.0001) >     0.1732
(PID.TID 0000.0001) >    -0.1758
(PID.TID 0000.0001) >    -0.6118
(PID.TID 0000.0001) >    -1.0758
(PID.TID 0000.0001) >    -1.2518
(PID.TID 0000.0001) >    -0.9708
(PID.TID 0000.0001) >    -0.7618
(PID.TID 0000.0001) >     0.0952
(PID.TID 0000.0001) >     0.3142
(PID.TID 0000.0001) >     0.7172
(PID.TID 0000.0001) >     1.0472
(PID.TID 0000.0001) >     0.5252
(PID.TID 0000.0001) >     0.0522
(PID.TID 0000.0001) >    -0.3888
(PID.TID 0000.0001) >    -0.5848
(PID.TID 0000.0001) >    -0.8598
(PID.TID 0000.0001) >    -0.9228
(PID.TID 0000.0001) >    -0.8378
(PID.TID 0000.0001) >    -0.4348
(PID.TID 0000.0001) >     0.0402
(PID.TID 0000.0001) >     0.4342
(PID.TID 0000.0001) >     0.7352
(PID.TID 0000.0001) >     0.9632
(PID.TID 0000.0001) >     0.8602
(PID.TID 0000.0001) >     0.5092
(PID.TID 0000.0001) >     0.2892
(PID.TID 0000.0001) >    -0.2408
(PID.TID 0000.0001) >    -0.7448
(PID.TID 0000.0001) >    -0.8738
(PID.TID 0000.0001) >    -0.6528
(PID.TID 0000.0001) >    -0.2038
(PID.TID 0000.0001) >     0.3092
(PID.TID 0000.0001) >     0.5212
(PID.TID 0000.0001) >     0.7532
(PID.TID 0000.0001) >     1.0612
(PID.TID 0000.0001) >     0.9722
(PID.TID 0000.0001) >     0.6242
(PID.TID 0000.0001) >     0.1832
(PID.TID 0000.0001) >    -0.1248
(PID.TID 0000.0001) >    -0.5758
(PID.TID 0000.0001) >    -0.7968
(PID.TID 0000.0001) >    -0.5058
(PID.TID 0000.0001) >    -0.0158
(PID.TID 0000.0001) >     0.3082
(PID.TID 0000.0001) >     0.7482
(PID.TID 0000.0001) >     1.0622
(PID.TID 0000.0001) >     1.3502
(PID.TID 0000.0001) >     1.2482
(PID.TID 0000.0001) >     0.8732
(PID.TID 0000.0001) >     0.2372
(PID.TID 0000.0001) >     0.0282
(PID.TID 0000.0001) >    -0.1598
(PID.TID 0000.0001) >    -0.2458
(PID.TID 0000.0001) >    -0.2478
(PID.TID 0000.0001) >     0.2942
(PID.TID 0000.0001) >     0.7142
(PID.TID 0000.0001) >     1.0932
(PID.TID 0000.0001) >     1.4212
(PID.TID 0000.0001) >     1.4302
(PID.TID 0000.0001) >     1.3282
(PID.TID 0000.0001) >     0.7382
(PID.TID 0000.0001) >  -999.0000
(PID.TID 0000.0001) >    -0.0198
(PID.TID 0000.0001) >    -0.3278
(PID.TID 0000.0001) >    -0.6478
(PID.TID 0000.0001) >    -0.3818
(PID.TID 0000.0001) >  -999.0000
(PID.TID 0000.0001) >     0.7452
(PID.TID 0000.0001) >     1.1822
(PID.TID 0000.0001) >     1.4902
(PID.TID 0000.0001) >     1.5122
(PID.TID 0000.0001) >  -999.0000
(PID.TID 0000.0001) >  -999.0000
(PID.TID 0000.0001) >     0.8362
(PID.TID 0000.0001) >     0.5392
(PID.TID 0000.0001) >     0.0162
(PID.TID 0000.0001) >  -999.0000
(PID.TID 0000.0001) >  -999.0000
(PID.TID 0000.0001) >     0.8882
(PID.TID 0000.0001) >     1.3982
(PID.TID 0000.0001) >     1.7702
(PID.TID 0000.0001) >     1.8042
(PID.TID 0000.0001) >  -999.0000
(PID.TID 0000.0001) >     1.8312
(PID.TID 0000.0001) >     1.7052
(PID.TID 0000.0001) >     1.3232
(PID.TID 0000.0001) >     1.0082
(PID.TID 0000.0001) >  -999.0000
(PID.TID 0000.0001) >  -999.0000
(PID.TID 0000.0001) >     0.5862
(PID.TID 0000.0001) >     0.9022
(PID.TID 0000.0001) >     1.4452
(PID.TID 0000.0001) >  -999.0000
(PID.TID 0000.0001) >  -999.0000
(PID.TID 0000.0001) >     2.0492
(PID.TID 0000.0001) >     1.7562
(PID.TID 0000.0001) >     1.4922
(PID.TID 0000.0001) >  -999.0000
(PID.TID 0000.0001) >  -999.0000
(PID.TID 0000.0001) >     0.4932
(PID.TID 0000.0001) >     0.4712
(PID.TID 0000.0001) >     0.4242
(PID.TID 0000.0001) >     0.7852
(PID.TID 0000.0001) >  -999.0000
(PID.TID 0000.0001) >     1.8622
(PID.TID 0000.0001) >     2.1782
(PID.TID 0000.0001) >     2.2842
(PID.TID 0000.0001) >     1.9402
(PID.TID 0000.0001) >  -999.0000
(PID.TID 0000.0001) >  -999.0000
(PID.TID 0000.0001) >     1.2932
(PID.TID 0000.0001) >     1.1872
(PID.TID 0000.0001) >     0.8952
(PID.TID 0000.0001) >  -999.0000
(PID.TID 0000.0001) >  -999.0000
(PID.TID 0000.0001) >     1.8022
(PID.TID 0000.0001) >     2.5012
(PID.TID 0000.0001) >     2.8002
(PID.TID 0000.0001) >  -999.0000
(PID.TID 0000.0001) >  -999.0000
(PID.TID 0000.0001) >  -999.0000
(PID.TID 0000.0001) >     2.2922
(PID.TID 0000.0001) >     1.7692
(PID.TID 0000.0001) >     1.3192
(PID.TID 0000.0001) >  -999.0000
(PID.TID 0000.0001) >  -999.0000
(PID.TID 0000.0001) >     1.7062
(PID.TID 0000.0001) >     2.0142
(PID.TID 0000.0001) >  -999.0000
(PID.TID 0000.0001) >  -999.0000
(PID.TID 0000.0001) >  -999.0000
(PID.TID 0000.0001) >  -999.0000
(PID.TID 0000.0001) >  -999.0000
(PID.TID 0000.0001) >  -999.0000
(PID.TID 0000.0001) >  -999.0000
(PID.TID 0000.0001) >  -999.0000
(PID.TID 0000.0001) >  -999.0000
(PID.TID 0000.0001) >  -999.0000
(PID.TID 0000.0001) >  -999.0000
(PID.TID 0000.0001) >  -999.0000
(PID.TID 0000.0001) >  -999.0000
(PID.TID 0000.0001) >  -999.0000
(PID.TID 0000.0001) >  -999.0000
(PID.TID 0000.0001) >  -999.0000
(PID.TID 0000.0001) >  -999.0000
(PID.TID 0000.0001) 
(PID.TID 0000.0001)  OPEN_COPY_DATA_FILE: opening file 20180228_ensemble_average_gmsl_ref.asc
(PID.TID 0000.0001) // =======================================================
(PID.TID 0000.0001) // Parameter file "20180228_ensemble_average_gmsl_ref.asc"
(PID.TID 0000.0001) // =======================================================
(PID.TID 0000.0001) >     -999.00000000
(PID.TID 0000.0001) >     -999.00000000
(PID.TID 0000.0001) >     -999.00000000
(PID.TID 0000.0001) >     -999.00000000
(PID.TID 0000.0001) >     -999.00000000
(PID.TID 0000.0001) >     -999.00000000
(PID.TID 0000.0001) >     -999.00000000
(PID.TID 0000.0001) >     -999.00000000
(PID.TID 0000.0001) >     -999.00000000
(PID.TID 0000.0001) >     -999.00000000
(PID.TID 0000.0001) >     -999.00000000
(PID.TID 0000.0001) >     -999.00000000
(PID.TID 0000.0001) >       -0.04147270
(PID.TID 0000.0001) >       -0.04237865
(PID.TID 0000.0001) >       -0.04097288
(PID.TID 0000.0001) >       -0.04090154
(PID.TID 0000.0001) >       -0.04112925
(PID.TID 0000.0001) >       -0.04106228
(PID.TID 0000.0001) >       -0.03907203
(PID.TID 0000.0001) >       -0.03618315
(PID.TID 0000.0001) >       -0.03250311
(PID.TID 0000.0001) >       -0.02982531
(PID.TID 0000.0001) >       -0.03084511
(PID.TID 0000.0001) >       -0.03170664
(PID.TID 0000.0001) >       -0.03477146
(PID.TID 0000.0001) >       -0.03727155
(PID.TID 0000.0001) >       -0.03671943
(PID.TID 0000.0001) >       -0.03633736
(PID.TID 0000.0001) >       -0.03893056
(PID.TID 0000.0001) >       -0.03990498
(PID.TID 0000.0001) >       -0.03901100
(PID.TID 0000.0001) >       -0.03510541
(PID.TID 0000.0001) >       -0.03136623
(PID.TID 0000.0001) >       -0.02858639
(PID.TID 0000.0001) >       -0.02847964
(PID.TID 0000.0001) >       -0.03107087
(PID.TID 0000.0001) >       -0.03199374
(PID.TID 0000.0001) >       -0.03270754
(PID.TID 0000.0001) >       -0.03356637
(PID.TID 0000.0001) >       -0.03534618
(PID.TID 0000.0001) >       -0.03607659
(PID.TID 0000.0001) >       -0.03615414
(PID.TID 0000.0001) >       -0.03647404
(PID.TID 0000.0001) >       -0.03376810
(PID.TID 0000.0001) >       -0.02786484
(PID.TID 0000.0001) >       -0.02478499
(PID.TID 0000.0001) >       -0.02488398
(PID.TID 0000.0001) >       -0.02710032
(PID.TID 0000.0001) >       -0.03092830
(PID.TID 0000.0001) >       -0.03130595
(PID.TID 0000.0001) >       -0.03171272
(PID.TID 0000.0001) >       -0.03196083
(PID.TID 0000.0001) >       -0.03180755
(PID.TID 0000.0001) >       -0.03187516
(PID.TID 0000.0001) >       -0.02950634
(PID.TID 0000.0001) >       -0.02781836
(PID.TID 0000.0001) >       -0.02399761
(PID.TID 0000.0001) >       -0.01780496
(PID.TID 0000.0001) >       -0.01720086
(PID.TID 0000.0001) >       -0.02412198
(PID.TID 0000.0001) >       -0.02897271
(PID.TID 0000.0001) >       -0.03068367
(PID.TID 0000.0001) >       -0.03020304
(PID.TID 0000.0001) >       -0.03016213
(PID.TID 0000.0001) >       -0.02944090
(PID.TID 0000.0001) >       -0.02861399
(PID.TID 0000.0001) >       -0.02572239
(PID.TID 0000.0001) >       -0.02144631
(PID.TID 0000.0001) >       -0.01591145
(PID.TID 0000.0001) >       -0.01305523
(PID.TID 0000.0001) >       -0.01522997
(PID.TID 0000.0001) >       -0.01967341
(PID.TID 0000.0001) >       -0.02261823
(PID.TID 0000.0001) >       -0.02340964
(PID.TID 0000.0001) >       -0.02382727
(PID.TID 0000.0001) >       -0.02408131
(PID.TID 0000.0001) >       -0.02546367
(PID.TID 0000.0001) >       -0.02656347
(PID.TID 0000.0001) >       -0.02483889
(PID.TID 0000.0001) >       -0.02215362
(PID.TID 0000.0001) >       -0.01922804
(PID.TID 0000.0001) >       -0.01714474
(PID.TID 0000.0001) >       -0.01734868
(PID.TID 0000.0001) >       -0.01971341
(PID.TID 0000.0001) >       -0.02252271
(PID.TID 0000.0001) >       -0.02418757
(PID.TID 0000.0001) >       -0.02435222
(PID.TID 0000.0001) >       -0.02415182
(PID.TID 0000.0001) >       -0.02626419
(PID.TID 0000.0001) >       -0.02637114
(PID.TID 0000.0001) >       -0.02377816
(PID.TID 0000.0001) >       -0.02027127
(PID.TID 0000.0001) >       -0.01640096
(PID.TID 0000.0001) >       -0.01271858
(PID.TID 0000.0001) >       -0.01329467
(PID.TID 0000.0001) >       -0.01365981
(PID.TID 0000.0001) >       -0.01571355
(PID.TID 0000.0001) >       -0.01793811
(PID.TID 0000.0001) >       -0.01976830
(PID.TID 0000.0001) >       -0.02152092
(PID.TID 0000.0001) >       -0.02392259
(PID.TID 0000.0001) >       -0.02386643
(PID.TID 0000.0001) >       -0.02168764
(PID.TID 0000.0001) >       -0.01918088
(PID.TID 0000.0001) >       -0.01430814
(PID.TID 0000.0001) >       -0.00882649
(PID.TID 0000.0001) >       -0.00901079
(PID.TID 0000.0001) >       -0.01193851
(PID.TID 0000.0001) >       -0.01312020
(PID.TID 0000.0001) >       -0.01614753
(PID.TID 0000.0001) >       -0.01635597
(PID.TID 0000.0001) >       -0.01723824
(PID.TID 0000.0001) >       -0.01849779
(PID.TID 0000.0001) >       -0.01771708
(PID.TID 0000.0001) >       -0.01381826
(PID.TID 0000.0001) >       -0.01138890
(PID.TID 0000.0001) >       -0.00656355
(PID.TID 0000.0001) >       -0.00462256
(PID.TID 0000.0001) >       -0.00466037
(PID.TID 0000.0001) >       -0.00768062
(PID.TID 0000.0001) >       -0.00979272
(PID.TID 0000.0001) >       -0.01125056
(PID.TID 0000.0001) >       -0.01299094
(PID.TID 0000.0001) >       -0.01538250
(PID.TID 0000.0001) >       -0.01580836
(PID.TID 0000.0001) >       -0.01490598
(PID.TID 0000.0001) >       -0.01094319
(PID.TID 0000.0001) >       -0.00688015
(PID.TID 0000.0001) >       -0.00454752
(PID.TID 0000.0001) >       -0.00163842
(PID.TID 0000.0001) >       -0.00120365
(PID.TID 0000.0001) >       -0.00330943
(PID.TID 0000.0001) >       -0.00578805
(PID.TID 0000.0001) >       -0.00737440
(PID.TID 0000.0001) >       -0.00914734
(PID.TID 0000.0001) >       -0.01022173
(PID.TID 0000.0001) >       -0.01066046
(PID.TID 0000.0001) >       -0.01151595
(PID.TID 0000.0001) >       -0.01057154
(PID.TID 0000.0001) >       -0.00683359
(PID.TID 0000.0001) >       -0.00140351
(PID.TID 0000.0001) >        0.00162164
(PID.TID 0000.0001) >        0.00082399
(PID.TID 0000.0001) >       -0.00158270
(PID.TID 0000.0001) >       -0.00384391
(PID.TID 0000.0001) >       -0.00644552
(PID.TID 0000.0001) >       -0.00665305
(PID.TID 0000.0001) >       -0.00722688
(PID.TID 0000.0001) >       -0.00877996
(PID.TID 0000.0001) >       -0.00827943
(PID.TID 0000.0001) >       -0.00662335
(PID.TID 0000.0001) >       -0.00434757
(PID.TID 0000.0001) >        0.00020843
(PID.TID 0000.0001) >        0.00271393
(PID.TID 0000.0001) >        0.00216869
(PID.TID 0000.0001) >        0.00091488
(PID.TID 0000.0001) >       -0.00119615
(PID.TID 0000.0001) >       -0.00197838
(PID.TID 0000.0001) >       -0.00326923
(PID.TID 0000.0001) >       -0.00493475
(PID.TID 0000.0001) >       -0.00516213
(PID.TID 0000.0001) >       -0.00463033
(PID.TID 0000.0001) >       -0.00342823
(PID.TID 0000.0001) >       -0.00036215
(PID.TID 0000.0001) >        0.00391399
(PID.TID 0000.0001) >        0.00727962
(PID.TID 0000.0001) >        0.00883675
(PID.TID 0000.0001) >        0.00708760
(PID.TID 0000.0001) >        0.00283303
(PID.TID 0000.0001) >       -0.00005775
(PID.TID 0000.0001) >       -0.00201734
(PID.TID 0000.0001) >       -0.00310832
(PID.TID 0000.0001) >       -0.00310899
(PID.TID 0000.0001) >       -0.00178046
(PID.TID 0000.0001) >       -0.00008680
(PID.TID 0000.0001) >        0.00243197
(PID.TID 0000.0001) >        0.00773053
(PID.TID 0000.0001) >        0.01033648
(PID.TID 0000.0001) >        0.00946383
(PID.TID 0000.0001) >        0.00660276
(PID.TID 0000.0001) >        0.00310204
(PID.TID 0000.0001) >        0.00066316
(PID.TID 0000.0001) >        0.00007108
(PID.TID 0000.0001) >        0.00011690
(PID.TID 0000.0001) >       -0.00081483
(PID.TID 0000.0001) >       -0.00162525
(PID.TID 0000.0001) >       -0.00148614
(PID.TID 0000.0001) >        0.00107289
(PID.TID 0000.0001) >        0.00538297
(PID.TID 0000.0001) >        0.00895235
(PID.TID 0000.0001) >        0.01047932
(PID.TID 0000.0001) >        0.00847417
(PID.TID 0000.0001) >        0.00539799
(PID.TID 0000.0001) >        0.00282624
(PID.TID 0000.0001) >        0.00163986
(PID.TID 0000.0001) >        0.00115355
(PID.TID 0000.0001) >        0.00275862
(PID.TID 0000.0001) >        0.00403121
(PID.TID 0000.0001) >        0.00519214
(PID.TID 0000.0001) >        0.00672258
(PID.TID 0000.0001) >        0.01032091
(PID.TID 0000.0001) >        0.01359020
(PID.TID 0000.0001) >        0.01467404
(PID.TID 0000.0001) >        0.01329685
(PID.TID 0000.0001) >        0.01009228
(PID.TID 0000.0001) >        0.00700790
(PID.TID 0000.0001) >        0.00642086
(PID.TID 0000.0001) >        0.00654674
(PID.TID 0000.0001) >        0.00602162
(PID.TID 0000.0001) >        0.00576382
(PID.TID 0000.0001) >        0.00719312
(PID.TID 0000.0001) >        0.01090523
(PID.TID 0000.0001) >        0.01579733
(PID.TID 0000.0001) >        0.01968412
(PID.TID 0000.0001) >        0.02046005
(PID.TID 0000.0001) >        0.01851100
(PID.TID 0000.0001) >        0.01409794
(PID.TID 0000.0001) >        0.01097860
(PID.TID 0000.0001) >        0.01031540
(PID.TID 0000.0001) >        0.00939064
(PID.TID 0000.0001) >        0.00911685
(PID.TID 0000.0001) >        0.01082404
(PID.TID 0000.0001) >        0.01224243
(PID.TID 0000.0001) >        0.01307233
(PID.TID 0000.0001) >        0.01448105
(PID.TID 0000.0001) >        0.01717605
(PID.TID 0000.0001) >        0.01748673
(PID.TID 0000.0001) >        0.01507983
(PID.TID 0000.0001) >        0.01184131
(PID.TID 0000.0001) >        0.00883508
(PID.TID 0000.0001) >        0.00667820
(PID.TID 0000.0001) >        0.00504999
(PID.TID 0000.0001) >        0.00470485
(PID.TID 0000.0001) >        0.00680446
(PID.TID 0000.0001) >        0.00886402
(PID.TID 0000.0001) >        0.01262384
(PID.TID 0000.0001) >        0.01677563
(PID.TID 0000.0001) >        0.02019074
(PID.TID 0000.0001) >        0.02063724
(PID.TID 0000.0001) >        0.02072811
(PID.TID 0000.0001) >        0.01962652
(PID.TID 0000.0001) >        0.01794813
(PID.TID 0000.0001) >        0.01633759
(PID.TID 0000.0001) >        0.01537694
(PID.TID 0000.0001) >        0.01567859
(PID.TID 0000.0001) >        0.01708372
(PID.TID 0000.0001) >        0.02037311
(PID.TID 0000.0001) >        0.02358307
(PID.TID 0000.0001) >        0.02751593
(PID.TID 0000.0001) >        0.03070397
(PID.TID 0000.0001) >        0.03126814
(PID.TID 0000.0001) >        0.03010550
(PID.TID 0000.0001) >        0.02798674
(PID.TID 0000.0001) >        0.02573000
(PID.TID 0000.0001) >        0.02398622
(PID.TID 0000.0001) >        0.02249828
(PID.TID 0000.0001) >        0.02141529
(PID.TID 0000.0001) >        0.02050706
(PID.TID 0000.0001) >        0.02144277
(PID.TID 0000.0001) >        0.02360970
(PID.TID 0000.0001) >        0.02668396
(PID.TID 0000.0001) >        0.03046590
(PID.TID 0000.0001) >        0.03212708
(PID.TID 0000.0001) >        0.03004662
(PID.TID 0000.0001) >        0.02712121
(PID.TID 0000.0001) >        0.02558150
(PID.TID 0000.0001) >        0.02507455
(PID.TID 0000.0001) >        0.02376230
(PID.TID 0000.0001) >        0.02194285
(PID.TID 0000.0001) >        0.02281129
(PID.TID 0000.0001) >        0.02530421
(PID.TID 0000.0001) >        0.02879413
(PID.TID 0000.0001) >        0.03253911
(PID.TID 0000.0001) >        0.03567068
(PID.TID 0000.0001) >        0.03528119
(PID.TID 0000.0001) >        0.03429798
(PID.TID 0000.0001) >        0.03285426
(PID.TID 0000.0001) >        0.03319703
(PID.TID 0000.0001) >        0.03280700
(PID.TID 0000.0001) >        0.03246718
(PID.TID 0000.0001) >        0.03151321
(PID.TID 0000.0001) >        0.03237005
(PID.TID 0000.0001) >        0.03467840
(PID.TID 0000.0001) >        0.03887486
(PID.TID 0000.0001) >        0.04425615
(PID.TID 0000.0001) >        0.04831862
(PID.TID 0000.0001) >        0.04858530
(PID.TID 0000.0001) >        0.04574655
(PID.TID 0000.0001) >        0.04201343
(PID.TID 0000.0001) >        0.04048565
(PID.TID 0000.0001) >        0.03938458
(PID.TID 0000.0001) >        0.03799471
(PID.TID 0000.0001) >        0.03686806
(PID.TID 0000.0001) >        0.03792774
(PID.TID 0000.0001) >        0.03851224
(PID.TID 0000.0001) >        0.04011639
(PID.TID 0000.0001) >        0.04388373
(PID.TID 0000.0001) >        0.04632144
(PID.TID 0000.0001) >        0.04848074
(PID.TID 0000.0001) >        0.04656891
(PID.TID 0000.0001) >        0.04165369
(PID.TID 0000.0001) >        0.03791665
(PID.TID 0000.0001) >        0.03815636
(PID.TID 0000.0001) >        0.03871958
(PID.TID 0000.0001) >        0.03753415
(PID.TID 0000.0001) >        0.03729899
(PID.TID 0000.0001) >        0.04003057
(PID.TID 0000.0001) >        0.04457429
(PID.TID 0000.0001) >        0.04814349
(PID.TID 0000.0001) >        0.05030210
(PID.TID 0000.0001) >        0.05236099
(PID.TID 0000.0001) >        0.05185569
(PID.TID 0000.0001) 
(PID.TID 0000.0001) etaday defined by gencost  28
(PID.TID 0000.0001) 
(PID.TID 0000.0001) // =======================================================
(PID.TID 0000.0001) // ECCO configuration >>> START <<<
(PID.TID 0000.0001) // =======================================================
(PID.TID 0000.0001) 
(PID.TID 0000.0001) gencost( 1) = siv4-conc
(PID.TID 0000.0001) -------------
(PID.TID 0000.0001)  data file = NOAA_NSIDC_DAILY_v3b_MAPPED_TO_LLC90
(PID.TID 0000.0001)   starts and ends at :
(PID.TID 0000.0001)   19920101  130000  2   6
(PID.TID 0000.0001)   19930630  190000  1   6
(PID.TID 0000.0001)   number of records =   547
(PID.TID 0000.0001)  model file = m_gbar_area
(PID.TID 0000.0001)  error file = sigma_iceconc_eccollc_coastalmask_areascaled.bin
(PID.TID 0000.0001)  gencost_flag =  2
(PID.TID 0000.0001)  gencost_outputlevel =  1
(PID.TID 0000.0001) 
(PID.TID 0000.0001) gencost( 2) = siv4-deconc
(PID.TID 0000.0001) -------------
(PID.TID 0000.0001)  data file = NOAA_NSIDC_DAILY_v3b_MAPPED_TO_LLC90
(PID.TID 0000.0001)   starts and ends at :
(PID.TID 0000.0001)   19920101  130000  2   6
(PID.TID 0000.0001)   19930630  190000  1   6
(PID.TID 0000.0001)   number of records =   547
(PID.TID 0000.0001)  model file = m_gbar_deconc
(PID.TID 0000.0001)  error file = seaiceproxy_sigma_coastalmask_areascaled.bin
(PID.TID 0000.0001)  gencost_flag =  2
(PID.TID 0000.0001)  gencost_outputlevel =  1
(PID.TID 0000.0001) 
(PID.TID 0000.0001) gencost( 3) = siv4-exconc
(PID.TID 0000.0001) -------------
(PID.TID 0000.0001)  data file = NOAA_NSIDC_DAILY_v3b_MAPPED_TO_LLC90
(PID.TID 0000.0001)   starts and ends at :
(PID.TID 0000.0001)   19920101  130000  2   6
(PID.TID 0000.0001)   19930630  190000  1   6
(PID.TID 0000.0001)   number of records =   547
(PID.TID 0000.0001)  model file = m_gbar_exconc
(PID.TID 0000.0001)  error file = seaiceproxy_sigma_coastalmask_areascaled.bin
(PID.TID 0000.0001)  gencost_flag =  2
(PID.TID 0000.0001)  gencost_outputlevel =  1
(PID.TID 0000.0001) 
(PID.TID 0000.0001) gencost( 4) = sst-reynoldsmean
(PID.TID 0000.0001) -------------
(PID.TID 0000.0001)  data file = reynolds_oiv2_r1_mar2018_simasked
(PID.TID 0000.0001)   starts and ends at :
(PID.TID 0000.0001)   19920101  130000  2   6
(PID.TID 0000.0001)   19930630  190000  1   6
(PID.TID 0000.0001)   number of records =    18
(PID.TID 0000.0001)  model file = m_sstmon
(PID.TID 0000.0001)  error file = sigma_half_areascaled.bin
(PID.TID 0000.0001)  preprocess = mean
(PID.TID 0000.0001)  gencost_flag =  1
(PID.TID 0000.0001)  gencost_outputlevel =  1
(PID.TID 0000.0001) 
(PID.TID 0000.0001) gencost( 5) = sst-reynoldsanom
(PID.TID 0000.0001) -------------
(PID.TID 0000.0001)  data file = reynolds_oiv2_r1_mar2018_simasked
(PID.TID 0000.0001)   starts and ends at :
(PID.TID 0000.0001)   19920101  130000  2   6
(PID.TID 0000.0001)   19930630  190000  1   6
(PID.TID 0000.0001)   number of records =    18
(PID.TID 0000.0001)  model file = m_sstmon
(PID.TID 0000.0001)  error file = sigma_half_areascaled.bin
(PID.TID 0000.0001)  preprocess = anom
(PID.TID 0000.0001)  gencost_flag =  1
(PID.TID 0000.0001)  gencost_outputlevel =  1
(PID.TID 0000.0001)  skip barfile write =  T
(PID.TID 0000.0001) 
(PID.TID 0000.0001) gencost( 6) = bpv4-grace
(PID.TID 0000.0001) -------------
(PID.TID 0000.0001)  data file = GRACE_jpl_rl05m_20180122
(PID.TID 0000.0001)   starts and ends at :
(PID.TID 0000.0001)   19920101  130000  2   6
(PID.TID 0000.0001)   19930630  190000  1   6
(PID.TID 0000.0001)   number of records =    18
(PID.TID 0000.0001)  model file = m_bp_nopabarmon
(PID.TID 0000.0001)  error file = GRACE_jpl_rl05m_20180122_err_areascaled
(PID.TID 0000.0001)  gencost_flag = -1
(PID.TID 0000.0001)  gencost_outputlevel =  1
(PID.TID 0000.0001) 
(PID.TID 0000.0001) gencost( 7) = thetamean
(PID.TID 0000.0001) -------------
(PID.TID 0000.0001)  data file = T_monthly_woa09_highlatnearsurface_masked
(PID.TID 0000.0001)   starts and ends at :
(PID.TID 0000.0001)   19920101  130000  2   6
(PID.TID 0000.0001)   19930630  190000  1   6
(PID.TID 0000.0001)   number of records =    18
(PID.TID 0000.0001)  model file = m_thetamon
(PID.TID 0000.0001)  error file = Theta_sigma_smoothed_method_02_masked_merged_capped_areascaled.bin
(PID.TID 0000.0001)  preprocess = mean
(PID.TID 0000.0001)  gencost_flag =  1
(PID.TID 0000.0001)  gencost_outputlevel =  1
(PID.TID 0000.0001)  gencost_pointer3d =  1
(PID.TID 0000.0001) 
(PID.TID 0000.0001) gencost( 8) = saltmean
(PID.TID 0000.0001) -------------
(PID.TID 0000.0001)  data file = S_monthly_woa09_highlatnearsurface_masked
(PID.TID 0000.0001)   starts and ends at :
(PID.TID 0000.0001)   19920101  130000  2   6
(PID.TID 0000.0001)   19930630  190000  1   6
(PID.TID 0000.0001)   number of records =    18
(PID.TID 0000.0001)  model file = m_saltmon
(PID.TID 0000.0001)  error file = Salt_sigma_smoothed_method_02_masked_merged_capped_areascaled.bin
(PID.TID 0000.0001)  preprocess = mean
(PID.TID 0000.0001)  gencost_flag =  1
(PID.TID 0000.0001)  gencost_outputlevel =  1
(PID.TID 0000.0001)  gencost_pointer3d =  2
(PID.TID 0000.0001) 
(PID.TID 0000.0001) gencost(11) = sshv4-mdt
(PID.TID 0000.0001) -------------
(PID.TID 0000.0001)  data file = mdt2_dtu17.bin
(PID.TID 0000.0001)  model file =
(PID.TID 0000.0001)  error file = mdt_dtu13_error_m_areascaled.bin
(PID.TID 0000.0001)  posprocess = smooth
(PID.TID 0000.0001)  gencost_flag = -1
(PID.TID 0000.0001)  gencost_outputlevel =  1
(PID.TID 0000.0001)  skip barfile write =  T
(PID.TID 0000.0001) 
(PID.TID 0000.0001) gencost(12) = sshv4-tp
(PID.TID 0000.0001) -------------
(PID.TID 0000.0001)  data file = RADS_TJ_mar2018
(PID.TID 0000.0001)   starts and ends at :
(PID.TID 0000.0001)   19920101       0  2   6
(PID.TID 0000.0001)   19930630  190000  1   6
(PID.TID 0000.0001)   number of records =   547
(PID.TID 0000.0001)  model file = m_eta_dynday
(PID.TID 0000.0001)  error file = slaerr_gridscale_r5_areascaled.err
(PID.TID 0000.0001)  gencost_flag = -1
(PID.TID 0000.0001)  gencost_outputlevel =  1
(PID.TID 0000.0001) 
(PID.TID 0000.0001) gencost(13) = sshv4-ers
(PID.TID 0000.0001) -------------
(PID.TID 0000.0001)  data file = RADS_ERS_ENV_SA_mar2018
(PID.TID 0000.0001)   starts and ends at :
(PID.TID 0000.0001)   19920101       0  2   6
(PID.TID 0000.0001)   19930630  190000  1   6
(PID.TID 0000.0001)   number of records =   547
(PID.TID 0000.0001)  model file =
(PID.TID 0000.0001)  error file = slaerr_gridscale_r5_areascaled.err
(PID.TID 0000.0001)  gencost_flag = -1
(PID.TID 0000.0001)  gencost_outputlevel =  1
(PID.TID 0000.0001)  skip barfile write =  T
(PID.TID 0000.0001) 
(PID.TID 0000.0001) gencost(14) = sshv4-gfo
(PID.TID 0000.0001) -------------
(PID.TID 0000.0001)  data file = RADS_GFO_C2_mar2018
(PID.TID 0000.0001)   starts and ends at :
(PID.TID 0000.0001)   19920101       0  2   6
(PID.TID 0000.0001)   19930630  190000  1   6
(PID.TID 0000.0001)   number of records =   547
(PID.TID 0000.0001)  model file =
(PID.TID 0000.0001)  error file = slaerr_gridscale_r5_areascaled.err
(PID.TID 0000.0001)  gencost_flag = -1
(PID.TID 0000.0001)  gencost_outputlevel =  1
(PID.TID 0000.0001)  skip barfile write =  T
(PID.TID 0000.0001) 
(PID.TID 0000.0001) gencost(15) = sshv4-lsc
(PID.TID 0000.0001) -------------
(PID.TID 0000.0001)  model file =
(PID.TID 0000.0001)  error file = slaerr_largescale_r5_areascaled.err
(PID.TID 0000.0001)  posprocess = smooth
(PID.TID 0000.0001)  gencost_flag = -1
(PID.TID 0000.0001)  gencost_outputlevel =  1
(PID.TID 0000.0001)  skip barfile write =  T
(PID.TID 0000.0001) 
(PID.TID 0000.0001) gencost(17) = thetaanom
(PID.TID 0000.0001) -------------
(PID.TID 0000.0001)  data file = T_monthly_woa09_highlatnearsurface_masked
(PID.TID 0000.0001)   starts and ends at :
(PID.TID 0000.0001)   19920101  130000  2   6
(PID.TID 0000.0001)   19930630  190000  1   6
(PID.TID 0000.0001)   number of records =    18
(PID.TID 0000.0001)  model file = m_thetamon
(PID.TID 0000.0001)  error file = Theta_sigma_smoothed_method_02_masked_merged_capped_areascaled.bin
(PID.TID 0000.0001)  preprocess = clim
(PID.TID 0000.0001)  preprocess = anom
(PID.TID 0000.0001)  gencost_flag =  1
(PID.TID 0000.0001)  gencost_outputlevel =  1
(PID.TID 0000.0001)  gencost_pointer3d =  3
(PID.TID 0000.0001)  skip barfile write =  T
(PID.TID 0000.0001) 
(PID.TID 0000.0001) gencost(18) = saltanom
(PID.TID 0000.0001) -------------
(PID.TID 0000.0001)  data file = S_monthly_woa09_highlatnearsurface_masked
(PID.TID 0000.0001)   starts and ends at :
(PID.TID 0000.0001)   19920101  130000  2   6
(PID.TID 0000.0001)   19930630  190000  1   6
(PID.TID 0000.0001)   number of records =    18
(PID.TID 0000.0001)  model file = m_saltmon
(PID.TID 0000.0001)  error file = Salt_sigma_smoothed_method_02_masked_merged_capped_areascaled.bin
(PID.TID 0000.0001)  preprocess = clim
(PID.TID 0000.0001)  preprocess = anom
(PID.TID 0000.0001)  gencost_flag =  1
(PID.TID 0000.0001)  gencost_outputlevel =  1
(PID.TID 0000.0001)  gencost_pointer3d =  4
(PID.TID 0000.0001)  skip barfile write =  T
(PID.TID 0000.0001) 
(PID.TID 0000.0001) gencost(19) = sss_AQanom
(PID.TID 0000.0001) -------------
(PID.TID 0000.0001)  data file = monthlyL3v5_20180129
(PID.TID 0000.0001)   starts and ends at :
(PID.TID 0000.0001)   19920101  130000  2   6
(PID.TID 0000.0001)   19930630  190000  1   6
(PID.TID 0000.0001)   number of records =    18
(PID.TID 0000.0001)  model file = m_sssmon
(PID.TID 0000.0001)  error file = errStdAQ_v3_llc_090_floored_areascaled
(PID.TID 0000.0001)  preprocess = anom
(PID.TID 0000.0001)  gencost_flag =  1
(PID.TID 0000.0001)  gencost_outputlevel =  1
(PID.TID 0000.0001) 
(PID.TID 0000.0001) gencost(20) = sss_AQmean
(PID.TID 0000.0001) -------------
(PID.TID 0000.0001)  data file = monthlyL3v5_20180129
(PID.TID 0000.0001)   starts and ends at :
(PID.TID 0000.0001)   19920101  130000  2   6
(PID.TID 0000.0001)   19930630  190000  1   6
(PID.TID 0000.0001)   number of records =    18
(PID.TID 0000.0001)  model file = m_sssmon
(PID.TID 0000.0001)  error file = biasStdAQ_v3_llc_090_floored_areascaled
(PID.TID 0000.0001)  preprocess = mean
(PID.TID 0000.0001)  gencost_flag =  1
(PID.TID 0000.0001)  gencost_outputlevel =  1
(PID.TID 0000.0001)  skip barfile write =  T
(PID.TID 0000.0001) 
(PID.TID 0000.0001) gencost(21) = gmbp
(PID.TID 0000.0001) -------------
(PID.TID 0000.0001)  data file = GRACE_jpl_rl05m_20180122_SpatialMean.asc
(PID.TID 0000.0001)   starts and ends at :
(PID.TID 0000.0001)   19920101  130000  2   6
(PID.TID 0000.0001)   19930630  190000  1   6
(PID.TID 0000.0001)   number of records =    18
(PID.TID 0000.0001)  model file = m_bp_nopabarmon
(PID.TID 0000.0001)  error file =
(PID.TID 0000.0001)  gencost_flag =  1
(PID.TID 0000.0001)  gencost_outputlevel =  1
(PID.TID 0000.0001)  skip barfile write =  T
(PID.TID 0000.0001) 
(PID.TID 0000.0001) gencost(22) = gmsl
(PID.TID 0000.0001) -------------
(PID.TID 0000.0001)  data file = 20180228_ensemble_average_gmsl_ref.asc
(PID.TID 0000.0001)   starts and ends at :
(PID.TID 0000.0001)   19920101  130000  2   6
(PID.TID 0000.0001)   19930630  190000  1   6
(PID.TID 0000.0001)   number of records =    18
(PID.TID 0000.0001)  model file = m_eta_dynmon
(PID.TID 0000.0001)  error file =
(PID.TID 0000.0001)  gencost_flag =  1
(PID.TID 0000.0001)  gencost_outputlevel =  1
(PID.TID 0000.0001) 
(PID.TID 0000.0001) gencost(27) = RADS_TJ_mar2018
(PID.TID 0000.0001) -------------
(PID.TID 0000.0001)  data file = RADS_TJ_mar2018
(PID.TID 0000.0001)   starts and ends at :
(PID.TID 0000.0001)   19920101       0  2   6
(PID.TID 0000.0001)   19930630  190000  1   6
(PID.TID 0000.0001)   number of records =   547
(PID.TID 0000.0001)  model file = m_etaday
(PID.TID 0000.0001)  error file = slaerr_gridscale_r5_areascaled.err
(PID.TID 0000.0001)  gencost_flag =  1
(PID.TID 0000.0001)  gencost_outputlevel =  1
(PID.TID 0000.0001) 
(PID.TID 0000.0001) gencost(28) = 20180228_ensemble_average_gmsl_ref.asc
(PID.TID 0000.0001) -------------
(PID.TID 0000.0001)  data file = 20180228_ensemble_average_gmsl_ref.asc
(PID.TID 0000.0001)   starts and ends at :
(PID.TID 0000.0001)   19920101  130000  2   6
(PID.TID 0000.0001)   19930630  190000  1   6
(PID.TID 0000.0001)   number of records =    18
(PID.TID 0000.0001)  model file = m_etamon
(PID.TID 0000.0001)  error file =
(PID.TID 0000.0001)  gencost_flag =  1
(PID.TID 0000.0001)  gencost_outputlevel =  1
(PID.TID 0000.0001) 
(PID.TID 0000.0001) gencost(29) = GRACE_jpl_rl05m_20180122_SpatialMean.asc
(PID.TID 0000.0001) -------------
(PID.TID 0000.0001)  data file = GRACE_jpl_rl05m_20180122_SpatialMean.asc
(PID.TID 0000.0001)   starts and ends at :
(PID.TID 0000.0001)   19920101  130000  2   6
(PID.TID 0000.0001)   19930630  190000  1   6
(PID.TID 0000.0001)   number of records =    18
(PID.TID 0000.0001)  model file = m_bpmon
(PID.TID 0000.0001)  error file =
(PID.TID 0000.0001)  gencost_flag =  1
(PID.TID 0000.0001)  gencost_outputlevel =  1
(PID.TID 0000.0001) 
(PID.TID 0000.0001) gencost(30) = GRACE_fake_daily
(PID.TID 0000.0001) -------------
(PID.TID 0000.0001)  data file = GRACE_fake_daily
(PID.TID 0000.0001)   starts and ends at :
(PID.TID 0000.0001)   19920101  130000  2   6
(PID.TID 0000.0001)   19930630  190000  1   6
(PID.TID 0000.0001)   number of records =   547
(PID.TID 0000.0001)  model file = m_bpday
(PID.TID 0000.0001)  error file = GRACE_jpl_rl05m_20180122_err_areascaled
(PID.TID 0000.0001)  gencost_flag =  1
(PID.TID 0000.0001)  gencost_outputlevel =  1
(PID.TID 0000.0001) 
(PID.TID 0000.0001) gencost(31) = GRACE_fake_daily
(PID.TID 0000.0001) -------------
(PID.TID 0000.0001)  data file = GRACE_fake_daily
(PID.TID 0000.0001)   starts and ends at :
(PID.TID 0000.0001)   19920101  130000  2   6
(PID.TID 0000.0001)   19930630  190000  1   6
(PID.TID 0000.0001)   number of records =   547
(PID.TID 0000.0001)  model file = m_bp_nopabarday
(PID.TID 0000.0001)  error file = GRACE_jpl_rl05m_20180122_err_areascaled
(PID.TID 0000.0001)  gencost_flag =  1
(PID.TID 0000.0001)  gencost_outputlevel =  1
(PID.TID 0000.0001) 
(PID.TID 0000.0001) 
(PID.TID 0000.0001) 
(PID.TID 0000.0001) // =======================================================
(PID.TID 0000.0001) // ECCO configuration  >>> END <<<
(PID.TID 0000.0001) // =======================================================
(PID.TID 0000.0001) 
(PID.TID 0000.0001) 
(PID.TID 0000.0001) // =======================================================
(PID.TID 0000.0001) // insitu profiles model sampling >>> START <<<
(PID.TID 0000.0001) // =======================================================
(PID.TID 0000.0001) 
(PID.TID 0000.0001) 
(PID.TID 0000.0001)   profilesDir profiles/
(PID.TID 0000.0001)   profilesDoGenGrid      T
(PID.TID 0000.0001)   profilesDoNcOutput     F
(PID.TID 0000.0001) 
(PID.TID 0000.0001) 
(PID.TID 0000.0001) profiles file #  1 is ARGO_20190131_95to13
(PID.TID 0000.0001)   current tile is bi,bj                      =   1,   1
(PID.TID 0000.0001)   # of depth levels in file                  =       55
(PID.TID 0000.0001)   # of profiles in file                      =  1069993
(PID.TID 0000.0001)   # of profiles with erroneous HHMMSS values =        0
(PID.TID 0000.0001)   # of profiles within tile and time period  =        0
(PID.TID 0000.0001)   variable #  1 is            prof_T and theta
(PID.TID 0000.0001)   variable #  2 is            prof_S and salt
(PID.TID 0000.0001) 
(PID.TID 0000.0001) profiles file #  2 is ARGO_20190131_14to17
(PID.TID 0000.0001)   current tile is bi,bj                      =   1,   1
(PID.TID 0000.0001)   # of depth levels in file                  =       55
(PID.TID 0000.0001)   # of profiles in file                      =   616384
(PID.TID 0000.0001)   # of profiles with erroneous HHMMSS values =        0
(PID.TID 0000.0001)   # of profiles within tile and time period  =        0
(PID.TID 0000.0001)   variable #  1 is            prof_T and theta
(PID.TID 0000.0001)   variable #  2 is            prof_S and salt
(PID.TID 0000.0001) 
(PID.TID 0000.0001) profiles file #  3 is APB_20190131_97to04
(PID.TID 0000.0001)   current tile is bi,bj                      =   1,   1
(PID.TID 0000.0001)   # of depth levels in file                  =       55
(PID.TID 0000.0001)   # of profiles in file                      =    28422
(PID.TID 0000.0001)   # of profiles with erroneous HHMMSS values =        0
(PID.TID 0000.0001)   # of profiles within tile and time period  =        0
(PID.TID 0000.0001)   variable #  1 is            prof_T and theta
(PID.TID 0000.0001)   variable #  2 is            prof_S and salt
(PID.TID 0000.0001) 
(PID.TID 0000.0001) profiles file #  4 is CTD_20190131_92to05
(PID.TID 0000.0001)   current tile is bi,bj                      =   1,   1
(PID.TID 0000.0001)   # of depth levels in file                  =      102
(PID.TID 0000.0001)   # of profiles in file                      =   321615
(PID.TID 0000.0001)   # of profiles with erroneous HHMMSS values =        0
(PID.TID 0000.0001)   # of profiles within tile and time period  =        0
(PID.TID 0000.0001)   variable #  1 is            prof_T and theta
(PID.TID 0000.0001)   variable #  2 is            prof_S and salt
(PID.TID 0000.0001) 
(PID.TID 0000.0001) profiles file #  5 is GLD_20190131_02to11
(PID.TID 0000.0001)   current tile is bi,bj                      =   1,   1
(PID.TID 0000.0001)   # of depth levels in file                  =       98
(PID.TID 0000.0001)   # of profiles in file                      =    18190
(PID.TID 0000.0001)   # of profiles with erroneous HHMMSS values =        0
(PID.TID 0000.0001)   # of profiles within tile and time period  =        0
(PID.TID 0000.0001)   variable #  1 is            prof_T and theta
(PID.TID 0000.0001)   variable #  2 is            prof_S and salt
(PID.TID 0000.0001) 
(PID.TID 0000.0001) profiles file #  6 is GLD_20190131_12to13
(PID.TID 0000.0001)   current tile is bi,bj                      =   1,   1
(PID.TID 0000.0001)   # of depth levels in file                  =       98
(PID.TID 0000.0001)   # of profiles in file                      =     5507
(PID.TID 0000.0001)   # of profiles with erroneous HHMMSS values =        0
(PID.TID 0000.0001)   # of profiles within tile and time period  =        0
(PID.TID 0000.0001)   variable #  1 is            prof_T and theta
(PID.TID 0000.0001)   variable #  2 is            prof_S and salt
(PID.TID 0000.0001) 
(PID.TID 0000.0001) profiles file #  7 is GLD_20190131_14to15
(PID.TID 0000.0001)   current tile is bi,bj                      =   1,   1
(PID.TID 0000.0001)   # of depth levels in file                  =       98
(PID.TID 0000.0001)   # of profiles in file                      =    14876
(PID.TID 0000.0001)   # of profiles with erroneous HHMMSS values =        0
(PID.TID 0000.0001)   # of profiles within tile and time period  =        0
(PID.TID 0000.0001)   variable #  1 is            prof_T and theta
(PID.TID 0000.0001)   variable #  2 is            prof_S and salt
(PID.TID 0000.0001) 
(PID.TID 0000.0001) profiles file #  8 is MRB_20190131_92to03
(PID.TID 0000.0001)   current tile is bi,bj                      =   1,   1
(PID.TID 0000.0001)   # of depth levels in file                  =       42
(PID.TID 0000.0001)   # of profiles in file                      =   118013
(PID.TID 0000.0001)   # of profiles with erroneous HHMMSS values =        0
(PID.TID 0000.0001)   # of profiles within tile and time period  =        0
(PID.TID 0000.0001)   variable #  1 is            prof_T and theta
(PID.TID 0000.0001)   variable #  2 is            prof_S and salt
(PID.TID 0000.0001) 
(PID.TID 0000.0001) profiles file #  9 is MRB_20190131_04to04
(PID.TID 0000.0001)   current tile is bi,bj                      =   1,   1
(PID.TID 0000.0001)   # of depth levels in file                  =       42
(PID.TID 0000.0001)   # of profiles in file                      =    20634
(PID.TID 0000.0001)   # of profiles with erroneous HHMMSS values =        0
(PID.TID 0000.0001)   # of profiles within tile and time period  =        0
(PID.TID 0000.0001)   variable #  1 is            prof_T and theta
(PID.TID 0000.0001)   variable #  2 is            prof_S and salt
(PID.TID 0000.0001) 
(PID.TID 0000.0001) profiles file # 10 is XBT_20190131_92to05
(PID.TID 0000.0001)   current tile is bi,bj                      =   1,   1
(PID.TID 0000.0001)   # of depth levels in file                  =       77
(PID.TID 0000.0001)   # of profiles in file                      =   631537
(PID.TID 0000.0001)   # of profiles with erroneous HHMMSS values =        0
(PID.TID 0000.0001)   # of profiles within tile and time period  =        0
(PID.TID 0000.0001)   variable #  1 is            prof_T and theta
(PID.TID 0000.0001)   variable #  2 is            prof_S and salt
(PID.TID 0000.0001) 
(PID.TID 0000.0001) profiles file # 11 is XBT_20190131_06to17
(PID.TID 0000.0001)   current tile is bi,bj                      =   1,   1
(PID.TID 0000.0001)   # of depth levels in file                  =       77
(PID.TID 0000.0001)   # of profiles in file                      =   219966
(PID.TID 0000.0001)   # of profiles with erroneous HHMMSS values =        0
(PID.TID 0000.0001)   # of profiles within tile and time period  =        0
(PID.TID 0000.0001)   variable #  1 is            prof_T and theta
(PID.TID 0000.0001)   variable #  2 is            prof_S and salt
(PID.TID 0000.0001) 
(PID.TID 0000.0001) profiles file # 12 is ITP_20190131_04to13
(PID.TID 0000.0001)   current tile is bi,bj                      =   1,   1
(PID.TID 0000.0001)   # of depth levels in file                  =       61
(PID.TID 0000.0001)   # of profiles in file                      =    15843
(PID.TID 0000.0001)   # of profiles with erroneous HHMMSS values =        0
(PID.TID 0000.0001)   # of profiles within tile and time period  =        0
(PID.TID 0000.0001)   variable #  1 is            prof_T and theta
(PID.TID 0000.0001)   variable #  2 is            prof_S and salt
(PID.TID 0000.0001) 
(PID.TID 0000.0001) profiles file # 18 is GLD_20190131_16to17
(PID.TID 0000.0001)   current tile is bi,bj                      =   1,   1
(PID.TID 0000.0001)   # of depth levels in file                  =       98
(PID.TID 0000.0001)   # of profiles in file                      =    13165
(PID.TID 0000.0001)   # of profiles with erroneous HHMMSS values =        0
(PID.TID 0000.0001)   # of profiles within tile and time period  =        0
(PID.TID 0000.0001)   variable #  1 is            prof_T and theta
(PID.TID 0000.0001)   variable #  2 is            prof_S and salt
(PID.TID 0000.0001) 
(PID.TID 0000.0001) profiles file # 19 is GOSHIP_20190131_92to17
(PID.TID 0000.0001)   current tile is bi,bj                      =   1,   1
(PID.TID 0000.0001)   # of depth levels in file                  =       94
(PID.TID 0000.0001)   # of profiles in file                      =    26976
(PID.TID 0000.0001)   # of profiles with erroneous HHMMSS values =        0
(PID.TID 0000.0001)   # of profiles within tile and time period  =        0
(PID.TID 0000.0001)   variable #  1 is            prof_T and theta
(PID.TID 0000.0001)   variable #  2 is            prof_S and salt
(PID.TID 0000.0001) 
(PID.TID 0000.0001) profiles file # 20 is MRB_20190131_05to05
(PID.TID 0000.0001)   current tile is bi,bj                      =   1,   1
(PID.TID 0000.0001)   # of depth levels in file                  =       42
(PID.TID 0000.0001)   # of profiles in file                      =    22143
(PID.TID 0000.0001)   # of profiles with erroneous HHMMSS values =        0
(PID.TID 0000.0001)   # of profiles within tile and time period  =        0
(PID.TID 0000.0001)   variable #  1 is            prof_T and theta
(PID.TID 0000.0001)   variable #  2 is            prof_S and salt
(PID.TID 0000.0001) 
(PID.TID 0000.0001) profiles file # 21 is MRB_20190131_06to17
(PID.TID 0000.0001)   current tile is bi,bj                      =   1,   1
(PID.TID 0000.0001)   # of depth levels in file                  =       42
(PID.TID 0000.0001)   # of profiles in file                      =   332880
(PID.TID 0000.0001)   # of profiles with erroneous HHMMSS values =        0
(PID.TID 0000.0001)   # of profiles within tile and time period  =        0
(PID.TID 0000.0001)   variable #  1 is            prof_T and theta
(PID.TID 0000.0001)   variable #  2 is            prof_S and salt
(PID.TID 0000.0001) 
(PID.TID 0000.0001) profiles file # 22 is CTD_20190131_06to17
(PID.TID 0000.0001)   current tile is bi,bj                      =   1,   1
(PID.TID 0000.0001)   # of depth levels in file                  =      102
(PID.TID 0000.0001)   # of profiles in file                      =   239089
(PID.TID 0000.0001)   # of profiles with erroneous HHMMSS values =        0
(PID.TID 0000.0001)   # of profiles within tile and time period  =        0
(PID.TID 0000.0001)   variable #  1 is            prof_T and theta
(PID.TID 0000.0001)   variable #  2 is            prof_S and salt
(PID.TID 0000.0001) 
(PID.TID 0000.0001) profiles file # 23 is ITP_20190131_14to17
(PID.TID 0000.0001)   current tile is bi,bj                      =   1,   1
(PID.TID 0000.0001)   # of depth levels in file                  =       61
(PID.TID 0000.0001)   # of profiles in file                      =     6421
(PID.TID 0000.0001)   # of profiles with erroneous HHMMSS values =        0
(PID.TID 0000.0001)   # of profiles within tile and time period  =        0
(PID.TID 0000.0001)   variable #  1 is            prof_T and theta
(PID.TID 0000.0001)   variable #  2 is            prof_S and salt
(PID.TID 0000.0001) 
(PID.TID 0000.0001) profiles file # 24 is APB_20190131_05to05
(PID.TID 0000.0001)   current tile is bi,bj                      =   1,   1
(PID.TID 0000.0001)   # of depth levels in file                  =       55
(PID.TID 0000.0001)   # of profiles in file                      =    23163
(PID.TID 0000.0001)   # of profiles with erroneous HHMMSS values =        0
(PID.TID 0000.0001)   # of profiles within tile and time period  =        0
(PID.TID 0000.0001)   variable #  1 is            prof_T and theta
(PID.TID 0000.0001)   variable #  2 is            prof_S and salt
(PID.TID 0000.0001) 
(PID.TID 0000.0001) profiles file # 25 is APB_20190131_06to06
(PID.TID 0000.0001)   current tile is bi,bj                      =   1,   1
(PID.TID 0000.0001)   # of depth levels in file                  =       55
(PID.TID 0000.0001)   # of profiles in file                      =     8594
(PID.TID 0000.0001)   # of profiles with erroneous HHMMSS values =        0
(PID.TID 0000.0001)   # of profiles within tile and time period  =        0
(PID.TID 0000.0001)   variable #  1 is            prof_T and theta
(PID.TID 0000.0001)   variable #  2 is            prof_S and salt
(PID.TID 0000.0001) 
(PID.TID 0000.0001) profiles file # 26 is APB_20190131_07to07
(PID.TID 0000.0001)   current tile is bi,bj                      =   1,   1
(PID.TID 0000.0001)   # of depth levels in file                  =       55
(PID.TID 0000.0001)   # of profiles in file                      =    24983
(PID.TID 0000.0001)   # of profiles with erroneous HHMMSS values =        0
(PID.TID 0000.0001)   # of profiles within tile and time period  =        0
(PID.TID 0000.0001)   variable #  1 is            prof_T and theta
(PID.TID 0000.0001)   variable #  2 is            prof_S and salt
(PID.TID 0000.0001) 
(PID.TID 0000.0001) profiles file # 27 is APB_20190131_08to09
(PID.TID 0000.0001)   current tile is bi,bj                      =   1,   1
(PID.TID 0000.0001)   # of depth levels in file                  =       55
(PID.TID 0000.0001)   # of profiles in file                      =    81905
(PID.TID 0000.0001)   # of profiles with erroneous HHMMSS values =        0
(PID.TID 0000.0001)   # of profiles within tile and time period  =        0
(PID.TID 0000.0001)   variable #  1 is            prof_T and theta
(PID.TID 0000.0001)   variable #  2 is            prof_S and salt
(PID.TID 0000.0001) 
(PID.TID 0000.0001) profiles file # 28 is APB_20190131_10to17
(PID.TID 0000.0001)   current tile is bi,bj                      =   1,   1
(PID.TID 0000.0001)   # of depth levels in file                  =       55
(PID.TID 0000.0001)   # of profiles in file                      =   202245
(PID.TID 0000.0001)   # of profiles with erroneous HHMMSS values =        0
(PID.TID 0000.0001)   # of profiles within tile and time period  =        0
(PID.TID 0000.0001)   variable #  1 is            prof_T and theta
(PID.TID 0000.0001)   variable #  2 is            prof_S and salt
(PID.TID 0000.0001) 
(PID.TID 0000.0001) profiles file # 29 is CCHDO_20190131_92to17
(PID.TID 0000.0001)   current tile is bi,bj                      =   1,   1
(PID.TID 0000.0001)   # of depth levels in file                  =       94
(PID.TID 0000.0001)   # of profiles in file                      =    26976
(PID.TID 0000.0001)   # of profiles with erroneous HHMMSS values =        0
(PID.TID 0000.0001)   # of profiles within tile and time period  =        0
(PID.TID 0000.0001)   variable #  1 is            prof_T and theta
(PID.TID 0000.0001)   variable #  2 is            prof_S and salt
(PID.TID 0000.0001) NLEVELCOMB =    139
(PID.TID 0000.0001) 
(PID.TID 0000.0001) // =======================================================
(PID.TID 0000.0001) // insitu profiles model sampling >>> END <<<
(PID.TID 0000.0001) // =======================================================
(PID.TID 0000.0001) 
(PID.TID 0000.0001) // =======================================================
(PID.TID 0000.0001) // Seaice configuration (SEAICE_PARM01) >>> START <<<
(PID.TID 0000.0001) // =======================================================
(PID.TID 0000.0001) 
(PID.TID 0000.0001)    Seaice time stepping configuration   > START <
(PID.TID 0000.0001)    ----------------------------------------------
(PID.TID 0000.0001) SEAICE_deltaTtherm= /* thermodynamic timestep */
(PID.TID 0000.0001)                 3.600000000000000E+03
(PID.TID 0000.0001)     ;
(PID.TID 0000.0001) SEAICE_deltaTdyn  = /* dynamic timestep */
(PID.TID 0000.0001)                 3.600000000000000E+03
(PID.TID 0000.0001)     ;
(PID.TID 0000.0001) SEAICE_deltaTevp  = /* EVP timestep */
(PID.TID 0000.0001)                 1.234567000000000E+05
(PID.TID 0000.0001)     ;
(PID.TID 0000.0001) SEAICEuseBDF2  = /* use backw. differencing for mom. eq. */
(PID.TID 0000.0001)                   F
(PID.TID 0000.0001)     ;
(PID.TID 0000.0001) SEAICErestoreUnderIce  = /* restore T and S under ice */
(PID.TID 0000.0001)                   T
(PID.TID 0000.0001)     ;
(PID.TID 0000.0001) 
(PID.TID 0000.0001)    Seaice dynamics configuration   > START <
(PID.TID 0000.0001)    ------------------------------------------
(PID.TID 0000.0001) SEAICEuseDYNAMICS = /* use dynamics */
(PID.TID 0000.0001)                   T
(PID.TID 0000.0001)     ;
(PID.TID 0000.0001) model grid type   = /* type of sea ice model grid */
(PID.TID 0000.0001)               'C-GRID'
(PID.TID 0000.0001)     ;
(PID.TID 0000.0001) SEAICEuseStrImpCpl = /* use strongly implicit coupling */
(PID.TID 0000.0001)                   F
(PID.TID 0000.0001)     ;
(PID.TID 0000.0001) SEAICEusePicardAsPrecon = /* Picard as preconditioner */
(PID.TID 0000.0001)                   F
(PID.TID 0000.0001)     ;
(PID.TID 0000.0001) SEAICEuseLSR      = /* use default Picard-LSR solver */
(PID.TID 0000.0001)                   T
(PID.TID 0000.0001)     ;
(PID.TID 0000.0001) SEAICEuseKrylov   = /* use Picard-Krylov solver */
(PID.TID 0000.0001)                   F
(PID.TID 0000.0001)     ;
(PID.TID 0000.0001) SEAICEuseEVP      = /* use EVP solver rather than LSR */
(PID.TID 0000.0001)                   F
(PID.TID 0000.0001)     ;
(PID.TID 0000.0001) SEAICEuseJFNK     = /* use JFNK solver */
(PID.TID 0000.0001)                   F
(PID.TID 0000.0001)     ;
(PID.TID 0000.0001) SEAICEuseFREEDRIFT = /* use free drift solution */
(PID.TID 0000.0001)                   F
(PID.TID 0000.0001)     ;
(PID.TID 0000.0001) OCEAN_drag        = /* air-ocean drag coefficient */
(PID.TID 0000.0001)                 1.000000000000000E-03
(PID.TID 0000.0001)     ;
(PID.TID 0000.0001) SEAICE_drag       = /* air-ice drag coefficient */
(PID.TID 0000.0001)                 1.000000000000000E-03
(PID.TID 0000.0001)     ;
(PID.TID 0000.0001) SEAICE_drag_south      = /* Southern Ocean SEAICE_drag */
(PID.TID 0000.0001)                 1.000000000000000E-03
(PID.TID 0000.0001)     ;
(PID.TID 0000.0001) SEAICE_waterDrag  = /* water-ice drag * density */
(PID.TID 0000.0001)                 5.500000000000000E+00
(PID.TID 0000.0001)     ;
(PID.TID 0000.0001) SEAICE_waterDrag_south = /* Southern Ocean waterDrag */
(PID.TID 0000.0001)                 5.500000000000000E+00
(PID.TID 0000.0001)     ;
(PID.TID 0000.0001) SEAICEuseTilt     = /* include surface tilt in dyna. */
(PID.TID 0000.0001)                   F
(PID.TID 0000.0001)     ;
(PID.TID 0000.0001) SEAICEuseTEM      = /* use truncated ellipse rheology */
(PID.TID 0000.0001)                   F
(PID.TID 0000.0001)     ;
(PID.TID 0000.0001) SEAICE_strength   = /* sea-ice strength Pstar */
(PID.TID 0000.0001)                 2.250000000000000E+04
(PID.TID 0000.0001)     ;
(PID.TID 0000.0001) SEAICE_cStar      = /* sea-ice strength parameter cStar */
(PID.TID 0000.0001)                 2.000000000000000E+01
(PID.TID 0000.0001)     ;
(PID.TID 0000.0001) SEAICEpressReplFac= /* press. replacement method factor */
(PID.TID 0000.0001)                 1.000000000000000E+00
(PID.TID 0000.0001)     ;
(PID.TID 0000.0001) SEAICE_tensilFac  = /* sea-ice tensile strength factor */
(PID.TID 0000.0001)                 0.000000000000000E+00
(PID.TID 0000.0001)     ;
(PID.TID 0000.0001) SEAICE_tensilDepth= /* crit. depth for tensile strength */
(PID.TID 0000.0001)                 0.000000000000000E+00
(PID.TID 0000.0001)     ;
(PID.TID 0000.0001) SEAICEpresH0   = /* sea-ice strength Heff threshold */
(PID.TID 0000.0001)                 2.000000000000000E+00
(PID.TID 0000.0001)     ;
(PID.TID 0000.0001) SEAICEpresPow0 = /* exponent for Heff<SEAICEpresH0 */
(PID.TID 0000.0001)                       1
(PID.TID 0000.0001)     ;
(PID.TID 0000.0001) SEAICEpresPow1 = /* exponent for Heff>SEAICEpresH0 */
(PID.TID 0000.0001)                       1
(PID.TID 0000.0001)     ;
(PID.TID 0000.0001) SEAICEetaZmethod = /* method computing eta at Z-point */
(PID.TID 0000.0001)                       0
(PID.TID 0000.0001)     ;
(PID.TID 0000.0001) SEAICE_zetaMin    = /* lower bound for viscosity */
(PID.TID 0000.0001)                 0.000000000000000E+00
(PID.TID 0000.0001)     ;
(PID.TID 0000.0001) SEAICE_eccen    = /* elliptical yield curve eccent */
(PID.TID 0000.0001)                 2.000000000000000E+00
(PID.TID 0000.0001)     ;
(PID.TID 0000.0001) SEAICEstressFactor    = /* wind stress scaling factor */
(PID.TID 0000.0001)                 1.000000000000000E+00
(PID.TID 0000.0001)     ;
(PID.TID 0000.0001) SEAICE_airTurnAngle    = /* air-ice turning angle */
(PID.TID 0000.0001)                 0.000000000000000E+00
(PID.TID 0000.0001)     ;
(PID.TID 0000.0001) SEAICE_waterTurnAngle  = /* ice-water turning angle */
(PID.TID 0000.0001)                 0.000000000000000E+00
(PID.TID 0000.0001)     ;
(PID.TID 0000.0001) SEAICEuseMetricTerms = /* use metric terms */
(PID.TID 0000.0001)                   T
(PID.TID 0000.0001)     ;
(PID.TID 0000.0001) SEAICE_no_slip    = /* no slip boundary conditions */
(PID.TID 0000.0001)                   T
(PID.TID 0000.0001)     ;
(PID.TID 0000.0001) SEAICE_clipVeloctities = /* impose max. vels. */
(PID.TID 0000.0001)                   T
(PID.TID 0000.0001)     ;
(PID.TID 0000.0001) useHB87stressCoupling  = /* altern. ice-ocean stress */
(PID.TID 0000.0001)                   F
(PID.TID 0000.0001)     ;
(PID.TID 0000.0001) SEAICEscaleSurfStress  = /* scale atm. and ocean-surface stress with AREA */
(PID.TID 0000.0001)                   F
(PID.TID 0000.0001)     ;
(PID.TID 0000.0001) SEAICE_maskRHS    = /* mask RHS of solver */
(PID.TID 0000.0001)                   F
(PID.TID 0000.0001)     ;
(PID.TID 0000.0001) SEAICEaddSnowMass = /* add snow mass to seaiceMassC/U/V */
(PID.TID 0000.0001)                   F
(PID.TID 0000.0001)     ;
(PID.TID 0000.0001) LSR_mixIniGuess = /* mix free-drift sol. into LSR initial Guess */
(PID.TID 0000.0001)                       0
(PID.TID 0000.0001)     ;
(PID.TID 0000.0001) SEAICE_LSRrelaxU  = /* LSR solver: relaxation parameter */
(PID.TID 0000.0001)                 9.500000000000000E-01
(PID.TID 0000.0001)     ;
(PID.TID 0000.0001) SEAICE_LSRrelaxV  = /* LSR solver: relaxation parameter */
(PID.TID 0000.0001)                 9.500000000000000E-01
(PID.TID 0000.0001)     ;
(PID.TID 0000.0001) LSR_ERROR         = /* sets accuracy of LSR solver */
(PID.TID 0000.0001)                 2.000000000000000E-04
(PID.TID 0000.0001)     ;
(PID.TID 0000.0001) SOLV_NCHECK       = /* test interval for LSR solver */
(PID.TID 0000.0001)                       2
(PID.TID 0000.0001)     ;
(PID.TID 0000.0001) SEAICEuseMultiTileSolver = /* use full domain tri-diag solver */
(PID.TID 0000.0001)                   F
(PID.TID 0000.0001)     ;
(PID.TID 0000.0001) SEAICE_OLx = /* overlap for LSR/preconditioner */
(PID.TID 0000.0001)                       0
(PID.TID 0000.0001)     ;
(PID.TID 0000.0001) SEAICE_OLy = /* overlap for LSR/preconditioner */
(PID.TID 0000.0001)                       0
(PID.TID 0000.0001)     ;
(PID.TID 0000.0001) SEAICEnonLinIterMax = /* max. number of nonlinear solver steps */
(PID.TID 0000.0001)                       2
(PID.TID 0000.0001)     ;
(PID.TID 0000.0001) SEAICElinearIterMax = /* max. number of linear solver steps */
(PID.TID 0000.0001)                    1500
(PID.TID 0000.0001)     ;
(PID.TID 0000.0001) SEAICEnonLinTol     = /* non-linear solver tolerance */
(PID.TID 0000.0001)                 0.000000000000000E+00
(PID.TID 0000.0001)     ;
(PID.TID 0000.0001) 
(PID.TID 0000.0001)    Seaice advection diffusion config,   > START <
(PID.TID 0000.0001)    -----------------------------------------------
(PID.TID 0000.0001) SEAICEadvHeff = /* advect effective ice thickness */
(PID.TID 0000.0001)                   T
(PID.TID 0000.0001)     ;
(PID.TID 0000.0001) SEAICEadvArea = /* advect fractional ice area */
(PID.TID 0000.0001)                   T
(PID.TID 0000.0001)     ;
(PID.TID 0000.0001) SEAICEadvSnow = /* advect snow layer together with ice */
(PID.TID 0000.0001)                   T
(PID.TID 0000.0001)     ;
(PID.TID 0000.0001) SEAICEadvScheme   = /* advection scheme for ice */
(PID.TID 0000.0001)                      33
(PID.TID 0000.0001)     ;
(PID.TID 0000.0001) SEAICEadvSchArea   = /* advection scheme for area */
(PID.TID 0000.0001)                      33
(PID.TID 0000.0001)     ;
(PID.TID 0000.0001) SEAICEadvSchHeff   = /* advection scheme for thickness */
(PID.TID 0000.0001)                      33
(PID.TID 0000.0001)     ;
(PID.TID 0000.0001) SEAICEadvSchSnow   = /* advection scheme for snow */
(PID.TID 0000.0001)                      33
(PID.TID 0000.0001)     ;
(PID.TID 0000.0001) SEAICEdiffKhArea   = /* diffusivity (m^2/s) for area */
(PID.TID 0000.0001)                 4.000000000000000E+02
(PID.TID 0000.0001)     ;
(PID.TID 0000.0001) SEAICEdiffKhHeff   = /* diffusivity (m^2/s) for heff */
(PID.TID 0000.0001)                 4.000000000000000E+02
(PID.TID 0000.0001)     ;
(PID.TID 0000.0001) SEAICEdiffKhSnow   = /* diffusivity (m^2/s) for snow */
(PID.TID 0000.0001)                 4.000000000000000E+02
(PID.TID 0000.0001)     ;
(PID.TID 0000.0001) DIFF1             = /* parameter used in advect.F [m/s] */
(PID.TID 0000.0001)                 0.000000000000000E+00
(PID.TID 0000.0001)     ;
(PID.TID 0000.0001) 
(PID.TID 0000.0001)    Seaice thermodynamics configuration   > START <
(PID.TID 0000.0001)    -----------------------------------------------
(PID.TID 0000.0001) SEAICE_rhoIce     = /* density of sea ice (kg/m3) */
(PID.TID 0000.0001)                 9.100000000000000E+02
(PID.TID 0000.0001)     ;
(PID.TID 0000.0001) SEAICE_rhoSnow    = /* density of snow (kg/m3) */
(PID.TID 0000.0001)                 3.300000000000000E+02
(PID.TID 0000.0001)     ;
(PID.TID 0000.0001) SEAICE_rhoAir     = /* density of air (kg/m3) */
(PID.TID 0000.0001)                 1.200000000000000E+00
(PID.TID 0000.0001)     ;
(PID.TID 0000.0001) usePW79thermodynamics  = /* default 0-layer TD */
(PID.TID 0000.0001)                   T
(PID.TID 0000.0001)     ;
(PID.TID 0000.0001) SEAICE_lhEvap     = /* latent heat of evaporation */
(PID.TID 0000.0001)                 2.500000000000000E+06
(PID.TID 0000.0001)     ;
(PID.TID 0000.0001) SEAICE_lhFusion   = /* latent heat of fusion */
(PID.TID 0000.0001)                 3.340000000000000E+05
(PID.TID 0000.0001)     ;
(PID.TID 0000.0001) SEAICE_mcPheePiston = /* turbulent flux "piston velocity" a la McPhee (m/s) */
(PID.TID 0000.0001)                 3.858024691358025E-05
(PID.TID 0000.0001)     ;
(PID.TID 0000.0001) SEAICE_mcPheeTaper = /* tapering of turbulent flux (0.< <1.) for AREA=1. */
(PID.TID 0000.0001)                 0.000000000000000E+00
(PID.TID 0000.0001)     ;
(PID.TID 0000.0001) SEAICE_mcPheeStepFunc = /* replace linear tapering with step funct. */
(PID.TID 0000.0001)                   F
(PID.TID 0000.0001)     ;
(PID.TID 0000.0001) SEAICE_frazilFrac = /* frazil (T<tempFrz) to seaice conversion rate (0.< <1.) */
(PID.TID 0000.0001)                 1.000000000000000E+00
(PID.TID 0000.0001)     ;
(PID.TID 0000.0001) SEAICE_tempFrz0   = /* freezing temp. of sea water (intercept) */
(PID.TID 0000.0001)                -1.960000000000000E+00
(PID.TID 0000.0001)     ;
(PID.TID 0000.0001) SEAICE_dTempFrz_dS= /* freezing temp. of sea water (slope) */
(PID.TID 0000.0001)                 0.000000000000000E+00
(PID.TID 0000.0001)     ;
(PID.TID 0000.0001) SEAICE_growMeltByConv  = /* grow,melt by vert. conv. */
(PID.TID 0000.0001)                   F
(PID.TID 0000.0001)     ;
(PID.TID 0000.0001) SEAICE_doOpenWaterGrowth = /* grow by open water */
(PID.TID 0000.0001)                   T
(PID.TID 0000.0001)     ;
(PID.TID 0000.0001) SEAICE_doOpenWaterMelt = /* melt by open water */
(PID.TID 0000.0001)                   F
(PID.TID 0000.0001)     ;
(PID.TID 0000.0001) SEAICE_areaGainFormula = /* ice cover gain formula (1,2)*/
(PID.TID 0000.0001)                       1
(PID.TID 0000.0001)     1=from growth by ATM
(PID.TID 0000.0001)     2=from predicted growth by ATM
(PID.TID 0000.0001)     ;
(PID.TID 0000.0001) SEAICE_areaLossFormula = /* ice cover loss formula (1,2)*/
(PID.TID 0000.0001)                       2
(PID.TID 0000.0001)     1=from all but only melt conributions by ATM and OCN
(PID.TID 0000.0001)     2=from net melt-grow>0 by ATM and OCN
(PID.TID 0000.0001)     3=from predicted melt by ATM
(PID.TID 0000.0001)     ;
(PID.TID 0000.0001) HO                = /* nominal thickness of new ice */
(PID.TID 0000.0001)                 5.000000000000000E-01
(PID.TID 0000.0001)     ;
(PID.TID 0000.0001) HO_south               = /* Southern Ocean HO */
(PID.TID 0000.0001)                 5.000000000000000E-01
(PID.TID 0000.0001)     ;
(PID.TID 0000.0001) SEAICE_area_max        = /* set to les than 1. to mimic open leads */
(PID.TID 0000.0001)                 9.700000000000000E-01
(PID.TID 0000.0001)     ;
(PID.TID 0000.0001) SEAICE_salt0   = /* constant sea ice salinity */
(PID.TID 0000.0001)                 4.000000000000000E+00
(PID.TID 0000.0001)     ;
(PID.TID 0000.0001) SEAICE_salinityTracer = /* test SITR varia. salinity */
(PID.TID 0000.0001)                   F
(PID.TID 0000.0001)     ;
(PID.TID 0000.0001) SEAICEuseFlooding = /* turn submerged snow into ice */
(PID.TID 0000.0001)                   T
(PID.TID 0000.0001)     ;
(PID.TID 0000.0001) 
(PID.TID 0000.0001)    Seaice air-sea fluxes configuration,   > START <
(PID.TID 0000.0001)    -----------------------------------------------
(PID.TID 0000.0001) SEAICEheatConsFix  = /* accound for ocn<->seaice advect. heat flux */
(PID.TID 0000.0001)                   T
(PID.TID 0000.0001)     ;
(PID.TID 0000.0001) SEAICE_multDim    = /* number of ice categories (1 or 7) */
(PID.TID 0000.0001)                       1
(PID.TID 0000.0001)     ;
(PID.TID 0000.0001) SEAICE_PDF        = /* sea-ice distribution (-) */
(PID.TID 0000.0001)                 1.000000000000000E+00,      /* K =  1 */
(PID.TID 0000.0001)     6 @  0.000000000000000E+00              /* K =  2:  7 */
(PID.TID 0000.0001)     ;
(PID.TID 0000.0001) IMAX_TICE         = /* iterations for ice surface temp */
(PID.TID 0000.0001)                      10
(PID.TID 0000.0001)     ;
(PID.TID 0000.0001) postSolvTempIter= /* flux calculation after surf. temp iter */
(PID.TID 0000.0001)                       2
(PID.TID 0000.0001)     ;
(PID.TID 0000.0001) SEAICE_dryIceAlb  = /* winter albedo */
(PID.TID 0000.0001)                 8.400000000000000E-01
(PID.TID 0000.0001)     ;
(PID.TID 0000.0001) SEAICE_wetIceAlb  = /* summer albedo */
(PID.TID 0000.0001)                 7.800000000000000E-01
(PID.TID 0000.0001)     ;
(PID.TID 0000.0001) SEAICE_drySnowAlb = /* dry snow albedo */
(PID.TID 0000.0001)                 9.000000000000000E-01
(PID.TID 0000.0001)     ;
(PID.TID 0000.0001) SEAICE_wetSnowAlb = /* wet snow albedo */
(PID.TID 0000.0001)                 8.000000000000000E-01
(PID.TID 0000.0001)     ;
(PID.TID 0000.0001) SEAICE_dryIceAlb_south = /* Southern Ocean dryIceAlb */
(PID.TID 0000.0001)                 7.500000000000000E-01
(PID.TID 0000.0001)     ;
(PID.TID 0000.0001) SEAICE_wetIceAlb_south = /* Southern Ocean wetIceAlb */
(PID.TID 0000.0001)                 6.600000000000000E-01
(PID.TID 0000.0001)     ;
(PID.TID 0000.0001) SEAICE_drySnowAlb_south= /* Southern Ocean drySnowAlb */
(PID.TID 0000.0001)                 8.400000000000000E-01
(PID.TID 0000.0001)     ;
(PID.TID 0000.0001) SEAICE_wetSnowAlb_south= /* Southern Ocean wetSnowAlb */
(PID.TID 0000.0001)                 7.000000000000000E-01
(PID.TID 0000.0001)     ;
(PID.TID 0000.0001) SEAICE_wetAlbTemp= /* Temp (o.C) threshold for wet-albedo */
(PID.TID 0000.0001)                -1.000000000000000E-03
(PID.TID 0000.0001)     ;
(PID.TID 0000.0001) SEAICE_snow_emiss = /* snow emissivity */
(PID.TID 0000.0001)                 9.500000000000000E-01
(PID.TID 0000.0001)     ;
(PID.TID 0000.0001) SEAICE_ice_emiss = /* seaice emissivity */
(PID.TID 0000.0001)                 9.500000000000000E-01
(PID.TID 0000.0001)     ;
(PID.TID 0000.0001) SEAICE_cpAir      = /* heat capacity of air */
(PID.TID 0000.0001)                 1.005000000000000E+03
(PID.TID 0000.0001)     ;
(PID.TID 0000.0001) SEAICE_dalton     = /* constant dalton number */
(PID.TID 0000.0001)                 1.750000000000000E-03
(PID.TID 0000.0001)     ;
(PID.TID 0000.0001) SEAICE_iceConduct = /* sea-ice conductivity */
(PID.TID 0000.0001)                 2.165600000000000E+00
(PID.TID 0000.0001)     ;
(PID.TID 0000.0001) SEAICE_snowConduct= /* snow conductivity */
(PID.TID 0000.0001)                 3.100000000000000E-01
(PID.TID 0000.0001)     ;
(PID.TID 0000.0001) SEAICE_snowThick  = /* cutoff snow thickness (for albedo) */
(PID.TID 0000.0001)                 1.500000000000000E-01
(PID.TID 0000.0001)     ;
(PID.TID 0000.0001) SEAICE_shortwave  = /* penetration shortwave radiation */
(PID.TID 0000.0001)                 3.000000000000000E-01
(PID.TID 0000.0001)     ;
(PID.TID 0000.0001) useMaykutSatVapPoly = /* use Maykut Polynomial for Sat.Vap.Pr */
(PID.TID 0000.0001)                   F
(PID.TID 0000.0001)     ;
(PID.TID 0000.0001) MIN_ATEMP         = /* minimum air temperature */
(PID.TID 0000.0001)                -4.000000000000000E+01
(PID.TID 0000.0001)     ;
(PID.TID 0000.0001) MIN_LWDOWN        = /* minimum downward longwave */
(PID.TID 0000.0001)                 6.000000000000000E+01
(PID.TID 0000.0001)     ;
(PID.TID 0000.0001) MIN_TICE          = /* minimum ice temperature */
(PID.TID 0000.0001)                -4.000000000000000E+01
(PID.TID 0000.0001)     ;
(PID.TID 0000.0001) 
(PID.TID 0000.0001)    Seaice initialization and IO config.,   > START <
(PID.TID 0000.0001)    -------------------------------------------------
(PID.TID 0000.0001) SEAICE_initialHEFF= /* initial sea-ice thickness */
(PID.TID 0000.0001)                 0.000000000000000E+00
(PID.TID 0000.0001)     ;
(PID.TID 0000.0001) AreaFile = /* Initial ice concentration File */
(PID.TID 0000.0001)               ''
(PID.TID 0000.0001)     ;
(PID.TID 0000.0001) HeffFile = /* Initial effective ice thickness File */
(PID.TID 0000.0001)               ''
(PID.TID 0000.0001)     ;
(PID.TID 0000.0001) HsnowFile = /* Initial snow thickness File */
(PID.TID 0000.0001)               ''
(PID.TID 0000.0001)     ;
(PID.TID 0000.0001) uIceFile = /* Initial U-ice velocity File */
(PID.TID 0000.0001)               ''
(PID.TID 0000.0001)     ;
(PID.TID 0000.0001) vIceFile = /* Initial V-ice velocity File */
(PID.TID 0000.0001)               ''
(PID.TID 0000.0001)     ;
(PID.TID 0000.0001) SEAICEwriteState  = /* write sea ice state to file */
(PID.TID 0000.0001)                   F
(PID.TID 0000.0001)     ;
(PID.TID 0000.0001) SEAICE_monFreq  = /* monitor frequency */
(PID.TID 0000.0001)                 6.307200000000000E+06
(PID.TID 0000.0001)     ;
(PID.TID 0000.0001) SEAICE_dumpFreq   = /* dump frequency */
(PID.TID 0000.0001)                 0.000000000000000E+00
(PID.TID 0000.0001)     ;
(PID.TID 0000.0001) SEAICE_taveFreq   = /* time-averaging frequency */
(PID.TID 0000.0001)                 0.000000000000000E+00
(PID.TID 0000.0001)     ;
(PID.TID 0000.0001) SEAICE_mon_stdio  = /* write monitor to std-outp */
(PID.TID 0000.0001)                   T
(PID.TID 0000.0001)     ;
(PID.TID 0000.0001) SEAICE_dump_mdsio = /* write snap-shot   using MDSIO */
(PID.TID 0000.0001)                   T
(PID.TID 0000.0001)     ;
(PID.TID 0000.0001) SEAICE_tave_mdsio = /* write TimeAverage using MDSIO */
(PID.TID 0000.0001)                   T
(PID.TID 0000.0001)     ;
(PID.TID 0000.0001) 
(PID.TID 0000.0001)    Seaice regularization numbers,   > START <
(PID.TID 0000.0001)    -----------------------------------------------
(PID.TID 0000.0001) SEAICE_deltaMin   = /* reduce singularities in Delta */
(PID.TID 0000.0001)                 1.000000000000000E-10
(PID.TID 0000.0001)     ;
(PID.TID 0000.0001) SEAICE_EPS        = /* small number */
(PID.TID 0000.0001)                 1.000000000000000E-10
(PID.TID 0000.0001)     ;
(PID.TID 0000.0001) SEAICE_EPS_SQ     = /* small number squared */
(PID.TID 0000.0001)                 1.000000000000000E-20
(PID.TID 0000.0001)     ;
(PID.TID 0000.0001) SEAICE_area_reg   = /* reduce derivative singularities */
(PID.TID 0000.0001)                 1.000000000000000E-05
(PID.TID 0000.0001)     ;
(PID.TID 0000.0001) SEAICE_hice_reg   = /* reduce derivative singularities */
(PID.TID 0000.0001)                 5.000000000000000E-02
(PID.TID 0000.0001)     ;
(PID.TID 0000.0001) SEAICE_area_floor = /* reduce derivative singularities */
(PID.TID 0000.0001)                 1.000000000000000E-05
(PID.TID 0000.0001)     ;
(PID.TID 0000.0001) 
(PID.TID 0000.0001) // =======================================================
(PID.TID 0000.0001) // Seaice configuration (SEAICE_PARM01) >>> END <<<
(PID.TID 0000.0001) // =======================================================
(PID.TID 0000.0001) 
(PID.TID 0000.0001) ctrl-wet 1:    nvarlength =         5061
(PID.TID 0000.0001) ctrl-wet 2: surface wet C =           28
(PID.TID 0000.0001) ctrl-wet 3: surface wet W =           28
(PID.TID 0000.0001) ctrl-wet 4: surface wet S =           19
(PID.TID 0000.0001) ctrl-wet 4a:surface wet V =            0
(PID.TID 0000.0001) ctrl-wet 5: 3D wet points =          719
(PID.TID 0000.0001) ctrl-wet 6: no recs for i =     1           0
(PID.TID 0000.0001) ctrl-wet 6: no recs for i =     2           0
(PID.TID 0000.0001) ctrl-wet 6: no recs for i =     3           0
(PID.TID 0000.0001) ctrl-wet 6: no recs for i =     4           0
(PID.TID 0000.0001) ctrl-wet 6: no recs for i =     5           0
(PID.TID 0000.0001) ctrl-wet 6: no recs for i =     6           0
(PID.TID 0000.0001) ctrl-wet 6: no recs for i =     7           0
(PID.TID 0000.0001) ctrl-wet 6: no recs for i =     8           0
(PID.TID 0000.0001) ctrl-wet 6: no recs for i =     9           0
(PID.TID 0000.0001) ctrl-wet 6: no recs for i =    10           0
(PID.TID 0000.0001) ctrl-wet 6: no recs for i =    11           0
(PID.TID 0000.0001) ctrl-wet 6: no recs for i =    12           0
(PID.TID 0000.0001) ctrl-wet 6: no recs for i =    13           0
(PID.TID 0000.0001) ctrl-wet 6: no recs for i =    14           0
(PID.TID 0000.0001) ctrl-wet 6: no recs for i =    15           0
(PID.TID 0000.0001) ctrl-wet 6: no recs for i =    16           0
(PID.TID 0000.0001) ctrl-wet 6: no recs for i =    17           0
(PID.TID 0000.0001) ctrl-wet 6: no recs for i =    18           0
(PID.TID 0000.0001) ctrl-wet 6: no recs for i =    19           0
(PID.TID 0000.0001) ctrl-wet 6: no recs for i =    20           0
(PID.TID 0000.0001) ctrl-wet 6: no recs for i =    21           0
(PID.TID 0000.0001) ctrl-wet 6: no recs for i =    22           0
(PID.TID 0000.0001) ctrl-wet 6: no recs for i =    23           0
(PID.TID 0000.0001) ctrl-wet 6: no recs for i =    24           0
(PID.TID 0000.0001) ctrl-wet 6: no recs for i =    25           0
(PID.TID 0000.0001) ctrl-wet 6: no recs for i =    26           0
(PID.TID 0000.0001) ctrl-wet 6: no recs for i =    27           0
(PID.TID 0000.0001) ctrl-wet 6: no recs for i =    28           0
(PID.TID 0000.0001) ctrl-wet 6: no recs for i =    29           0
(PID.TID 0000.0001) ctrl-wet 6: no recs for i =    30           0
(PID.TID 0000.0001) ctrl-wet 6: no recs for i =    31           0
(PID.TID 0000.0001) ctrl-wet 6: no recs for i =    32           0
(PID.TID 0000.0001) ctrl-wet 6: no recs for i =    33           0
(PID.TID 0000.0001) ctrl-wet 6: no recs for i =    34           0
(PID.TID 0000.0001) ctrl-wet 6: no recs for i =    35           0
(PID.TID 0000.0001) ctrl-wet 6: no recs for i =    36           0
(PID.TID 0000.0001) ctrl-wet 6: no recs for i =    37           0
(PID.TID 0000.0001) ctrl-wet 6: no recs for i =    38           0
(PID.TID 0000.0001) ctrl-wet 6: no recs for i =    39           0
(PID.TID 0000.0001) ctrl-wet 6: no recs for i =    40           0
(PID.TID 0000.0001) ctrl-wet 6: no recs for i =    41           0
(PID.TID 0000.0001) ctrl-wet 6: no recs for i =    42           0
(PID.TID 0000.0001) ctrl-wet 6: no recs for i =    43           0
(PID.TID 0000.0001) ctrl-wet 6: no recs for i =    44           0
(PID.TID 0000.0001) ctrl-wet 6: no recs for i =    45           0
(PID.TID 0000.0001) ctrl-wet 6: no recs for i =    46           0
(PID.TID 0000.0001) ctrl-wet 6: no recs for i =    47           0
(PID.TID 0000.0001) ctrl-wet 6: no recs for i =    48           0
(PID.TID 0000.0001) ctrl-wet 6: no recs for i =    49           0
(PID.TID 0000.0001) ctrl-wet 6: no recs for i =    50           0
(PID.TID 0000.0001) ctrl-wet 6: no recs for i =    51           0
(PID.TID 0000.0001) ctrl-wet 6: no recs for i =    52           0
(PID.TID 0000.0001) ctrl-wet 6: no recs for i =    53           0
(PID.TID 0000.0001) ctrl-wet 6: no recs for i =    54           0
(PID.TID 0000.0001) ctrl-wet 6: no recs for i =    55           0
(PID.TID 0000.0001) ctrl-wet 6: no recs for i =    56           0
(PID.TID 0000.0001) ctrl-wet 6: no recs for i =    57           0
(PID.TID 0000.0001) ctrl-wet 6: no recs for i =    58           0
(PID.TID 0000.0001) ctrl-wet 6: no recs for i =    59           0
(PID.TID 0000.0001) ctrl-wet 6: no recs for i =    60           0
(PID.TID 0000.0001) ctrl-wet 6: no recs for i =    61           0
(PID.TID 0000.0001) ctrl-wet 6: no recs for i =    62           0
(PID.TID 0000.0001) ctrl-wet 6: no recs for i =    63           0
(PID.TID 0000.0001) ctrl-wet 6: no recs for i =    64           0
(PID.TID 0000.0001) ctrl-wet 6: no recs for i =    65           0
(PID.TID 0000.0001) ctrl-wet 6: no recs for i =    66           0
(PID.TID 0000.0001) ctrl-wet 6: no recs for i =    67           0
(PID.TID 0000.0001) ctrl-wet 6: no recs for i =    68           0
(PID.TID 0000.0001) ctrl-wet 6: no recs for i =    69           0
(PID.TID 0000.0001) ctrl-wet 6: no recs for i =    70           0
(PID.TID 0000.0001) ctrl-wet 6: no recs for i =    71           0
(PID.TID 0000.0001) ctrl-wet 6: no recs for i =    72           0
(PID.TID 0000.0001) ctrl-wet 6: no recs for i =    73           0
(PID.TID 0000.0001) ctrl-wet 6: no recs for i =    74           0
(PID.TID 0000.0001) ctrl-wet 6: no recs for i =    75           0
(PID.TID 0000.0001) ctrl-wet 6: no recs for i =    76           0
(PID.TID 0000.0001) ctrl-wet 6: no recs for i =    77           0
(PID.TID 0000.0001) ctrl-wet 6: no recs for i =    78           0
(PID.TID 0000.0001) ctrl-wet 6: no recs for i =    79           0
(PID.TID 0000.0001) ctrl-wet 6: no recs for i =    80           0
(PID.TID 0000.0001) ctrl-wet 6: no recs for i =    81           0
(PID.TID 0000.0001) ctrl-wet 6: no recs for i =    82           0
(PID.TID 0000.0001) ctrl-wet 6: no recs for i =    83           0
(PID.TID 0000.0001) ctrl-wet 6: no recs for i =    84           0
(PID.TID 0000.0001) ctrl-wet 6: no recs for i =    85           0
(PID.TID 0000.0001) ctrl-wet 6: no recs for i =    86           0
(PID.TID 0000.0001) ctrl-wet 6: no recs for i =    87           0
(PID.TID 0000.0001) ctrl-wet 6: no recs for i =    88           0
(PID.TID 0000.0001) ctrl-wet 6: no recs for i =    89           0
(PID.TID 0000.0001) ctrl-wet 6: no recs for i =    90           0
(PID.TID 0000.0001) ctrl-wet 6: no recs for i =    91           0
(PID.TID 0000.0001) ctrl-wet 6: no recs for i =    92           0
(PID.TID 0000.0001) ctrl-wet 6: no recs for i =    93           0
(PID.TID 0000.0001) ctrl-wet 6: no recs for i =    94           0
(PID.TID 0000.0001) ctrl-wet 6: no recs for i =    95           0
(PID.TID 0000.0001) ctrl-wet 6: no recs for i =    96           0
(PID.TID 0000.0001) ctrl-wet 6: no recs for i =    97           0
(PID.TID 0000.0001) ctrl-wet 6: no recs for i =    98           0
(PID.TID 0000.0001) ctrl-wet 6: no recs for i =    99           0
(PID.TID 0000.0001) ctrl-wet 6: no recs for i =   100           0
(PID.TID 0000.0001) ctrl-wet 6: no recs for i =   101           1
(PID.TID 0000.0001) ctrl-wet 6: no recs for i =   102           0
(PID.TID 0000.0001) ctrl-wet 6: no recs for i =   103           0
(PID.TID 0000.0001) ctrl-wet 6: no recs for i =   104           0
(PID.TID 0000.0001) ctrl-wet 6: no recs for i =   105           0
(PID.TID 0000.0001) ctrl-wet 6: no recs for i =   106           0
(PID.TID 0000.0001) ctrl-wet 6: no recs for i =   107           0
(PID.TID 0000.0001) ctrl-wet 6: no recs for i =   108           0
(PID.TID 0000.0001) ctrl-wet 6: no recs for i =   109           0
(PID.TID 0000.0001) ctrl-wet 6: no recs for i =   110           0
(PID.TID 0000.0001) ctrl-wet 6: no recs for i =   111           0
(PID.TID 0000.0001) ctrl-wet 6: no recs for i =   112           0
(PID.TID 0000.0001) ctrl-wet 6: no recs for i =   113           0
(PID.TID 0000.0001) ctrl-wet 6: no recs for i =   114           0
(PID.TID 0000.0001) ctrl-wet 6: no recs for i =   115           0
(PID.TID 0000.0001) ctrl-wet 6: no recs for i =   116           0
(PID.TID 0000.0001) ctrl-wet 6: no recs for i =   117           0
(PID.TID 0000.0001) ctrl-wet 6: no recs for i =   118           0
(PID.TID 0000.0001) ctrl-wet 6: no recs for i =   119           0
(PID.TID 0000.0001) ctrl-wet 6: no recs for i =   120           0
(PID.TID 0000.0001) ctrl-wet 6: no recs for i =   121           0
(PID.TID 0000.0001) ctrl-wet 6: no recs for i =   122           0
(PID.TID 0000.0001) ctrl-wet 6: no recs for i =   123           0
(PID.TID 0000.0001) ctrl-wet 6: no recs for i =   124           0
(PID.TID 0000.0001) ctrl-wet 6: no recs for i =   125           0
(PID.TID 0000.0001) ctrl-wet 6: no recs for i =   126           0
(PID.TID 0000.0001) ctrl-wet 6: no recs for i =   127           0
(PID.TID 0000.0001) ctrl-wet 6: no recs for i =   128           0
(PID.TID 0000.0001) ctrl-wet 6: no recs for i =   129           0
(PID.TID 0000.0001) ctrl-wet 6: no recs for i =   130           0
(PID.TID 0000.0001) ctrl-wet 6: no recs for i =   131           0
(PID.TID 0000.0001) ctrl-wet 6: no recs for i =   132           0
(PID.TID 0000.0001) ctrl-wet 6: no recs for i =   133           0
(PID.TID 0000.0001) ctrl-wet 6: no recs for i =   134           0
(PID.TID 0000.0001) ctrl-wet 6: no recs for i =   135           0
(PID.TID 0000.0001) ctrl-wet 6: no recs for i =   136           0
(PID.TID 0000.0001) ctrl-wet 6: no recs for i =   137           0
(PID.TID 0000.0001) ctrl-wet 6: no recs for i =   138           0
(PID.TID 0000.0001) ctrl-wet 6: no recs for i =   139           0
(PID.TID 0000.0001) ctrl-wet 6: no recs for i =   140           0
(PID.TID 0000.0001) ctrl-wet 6: no recs for i =   141           0
(PID.TID 0000.0001) ctrl-wet 6: no recs for i =   142           0
(PID.TID 0000.0001) ctrl-wet 6: no recs for i =   143           0
(PID.TID 0000.0001) ctrl-wet 6: no recs for i =   144           0
(PID.TID 0000.0001) ctrl-wet 6: no recs for i =   145           0
(PID.TID 0000.0001) ctrl-wet 6: no recs for i =   146           0
(PID.TID 0000.0001) ctrl-wet 6: no recs for i =   147           0
(PID.TID 0000.0001) ctrl-wet 6: no recs for i =   148           0
(PID.TID 0000.0001) ctrl-wet 6: no recs for i =   149           0
(PID.TID 0000.0001) ctrl-wet 6: no recs for i =   150           0
(PID.TID 0000.0001) ctrl-wet 6: no recs for i =   151           0
(PID.TID 0000.0001) ctrl-wet 6: no recs for i =   152           0
(PID.TID 0000.0001) ctrl-wet 6: no recs for i =   153           0
(PID.TID 0000.0001) ctrl-wet 6: no recs for i =   154           0
(PID.TID 0000.0001) ctrl-wet 6: no recs for i =   155           0
(PID.TID 0000.0001) ctrl-wet 6: no recs for i =   156           0
(PID.TID 0000.0001) ctrl-wet 6: no recs for i =   157           0
(PID.TID 0000.0001) ctrl-wet 6: no recs for i =   158           0
(PID.TID 0000.0001) ctrl-wet 6: no recs for i =   159           0
(PID.TID 0000.0001) ctrl-wet 6: no recs for i =   160           0
(PID.TID 0000.0001) ctrl-wet 6: no recs for i =   161           0
(PID.TID 0000.0001) ctrl-wet 6: no recs for i =   162           0
(PID.TID 0000.0001) ctrl-wet 6: no recs for i =   163           0
(PID.TID 0000.0001) ctrl-wet 6: no recs for i =   164           0
(PID.TID 0000.0001) ctrl-wet 6: no recs for i =   165           0
(PID.TID 0000.0001) ctrl-wet 6: no recs for i =   166           0
(PID.TID 0000.0001) ctrl-wet 6: no recs for i =   167           0
(PID.TID 0000.0001) ctrl-wet 6: no recs for i =   168           0
(PID.TID 0000.0001) ctrl-wet 6: no recs for i =   169           0
(PID.TID 0000.0001) ctrl-wet 6: no recs for i =   170           0
(PID.TID 0000.0001) ctrl-wet 6: no recs for i =   171           0
(PID.TID 0000.0001) ctrl-wet 6: no recs for i =   172           0
(PID.TID 0000.0001) ctrl-wet 6: no recs for i =   173           0
(PID.TID 0000.0001) ctrl-wet 6: no recs for i =   174           0
(PID.TID 0000.0001) ctrl-wet 6: no recs for i =   175           0
(PID.TID 0000.0001) ctrl-wet 6: no recs for i =   176           0
(PID.TID 0000.0001) ctrl-wet 6: no recs for i =   177           0
(PID.TID 0000.0001) ctrl-wet 6: no recs for i =   178           0
(PID.TID 0000.0001) ctrl-wet 6: no recs for i =   179           0
(PID.TID 0000.0001) ctrl-wet 6: no recs for i =   180           0
(PID.TID 0000.0001) ctrl-wet 6: no recs for i =   181           0
(PID.TID 0000.0001) ctrl-wet 6: no recs for i =   182           0
(PID.TID 0000.0001) ctrl-wet 6: no recs for i =   183           0
(PID.TID 0000.0001) ctrl-wet 6: no recs for i =   184           0
(PID.TID 0000.0001) ctrl-wet 6: no recs for i =   185           0
(PID.TID 0000.0001) ctrl-wet 6: no recs for i =   186           0
(PID.TID 0000.0001) ctrl-wet 6: no recs for i =   187           0
(PID.TID 0000.0001) ctrl-wet 6: no recs for i =   188           0
(PID.TID 0000.0001) ctrl-wet 6: no recs for i =   189           0
(PID.TID 0000.0001) ctrl-wet 6: no recs for i =   190           0
(PID.TID 0000.0001) ctrl-wet 6: no recs for i =   191           0
(PID.TID 0000.0001) ctrl-wet 6: no recs for i =   192           0
(PID.TID 0000.0001) ctrl-wet 6: no recs for i =   193           0
(PID.TID 0000.0001) ctrl-wet 6: no recs for i =   194           0
(PID.TID 0000.0001) ctrl-wet 6: no recs for i =   195           0
(PID.TID 0000.0001) ctrl-wet 6: no recs for i =   196           0
(PID.TID 0000.0001) ctrl-wet 6: no recs for i =   197           0
(PID.TID 0000.0001) ctrl-wet 6: no recs for i =   198           0
(PID.TID 0000.0001) ctrl-wet 6: no recs for i =   199           0
(PID.TID 0000.0001) ctrl-wet 6: no recs for i =   200           0
(PID.TID 0000.0001) ctrl-wet 6: no recs for i =   201           1
(PID.TID 0000.0001) ctrl-wet 6: no recs for i =   202           1
(PID.TID 0000.0001) ctrl-wet 6: no recs for i =   203           1
(PID.TID 0000.0001) ctrl-wet 6: no recs for i =   204           1
(PID.TID 0000.0001) ctrl-wet 6: no recs for i =   205           1
(PID.TID 0000.0001) ctrl-wet 6: no recs for i =   206           1
(PID.TID 0000.0001) ctrl-wet 6: no recs for i =   207           1
(PID.TID 0000.0001) ctrl-wet 6: no recs for i =   208           0
(PID.TID 0000.0001) ctrl-wet 6: no recs for i =   209           0
(PID.TID 0000.0001) ctrl-wet 6: no recs for i =   210           0
(PID.TID 0000.0001) ctrl-wet 6: no recs for i =   211           0
(PID.TID 0000.0001) ctrl-wet 6: no recs for i =   212           0
(PID.TID 0000.0001) ctrl-wet 6: no recs for i =   213           0
(PID.TID 0000.0001) ctrl-wet 6: no recs for i =   214           0
(PID.TID 0000.0001) ctrl-wet 6: no recs for i =   215           0
(PID.TID 0000.0001) ctrl-wet 6: no recs for i =   216           0
(PID.TID 0000.0001) ctrl-wet 6: no recs for i =   217           0
(PID.TID 0000.0001) ctrl-wet 6: no recs for i =   218           0
(PID.TID 0000.0001) ctrl-wet 6: no recs for i =   219           0
(PID.TID 0000.0001) ctrl-wet 6: no recs for i =   220           0
(PID.TID 0000.0001) ctrl-wet 6: no recs for i =   221           0
(PID.TID 0000.0001) ctrl-wet 6: no recs for i =   222           0
(PID.TID 0000.0001) ctrl-wet 6: no recs for i =   223           0
(PID.TID 0000.0001) ctrl-wet 6: no recs for i =   224           0
(PID.TID 0000.0001) ctrl-wet 6: no recs for i =   225           0
(PID.TID 0000.0001) ctrl-wet 6: no recs for i =   226           0
(PID.TID 0000.0001) ctrl-wet 6: no recs for i =   227           0
(PID.TID 0000.0001) ctrl-wet 6: no recs for i =   228           0
(PID.TID 0000.0001) ctrl-wet 6: no recs for i =   229           0
(PID.TID 0000.0001) ctrl-wet 6: no recs for i =   230           0
(PID.TID 0000.0001) ctrl-wet 6: no recs for i =   231           0
(PID.TID 0000.0001) ctrl-wet 6: no recs for i =   232           0
(PID.TID 0000.0001) ctrl-wet 6: no recs for i =   233           0
(PID.TID 0000.0001) ctrl-wet 6: no recs for i =   234           0
(PID.TID 0000.0001) ctrl-wet 6: no recs for i =   235           0
(PID.TID 0000.0001) ctrl-wet 6: no recs for i =   236           0
(PID.TID 0000.0001) ctrl-wet 6: no recs for i =   237           0
(PID.TID 0000.0001) ctrl-wet 6: no recs for i =   238           0
(PID.TID 0000.0001) ctrl-wet 6: no recs for i =   239           0
(PID.TID 0000.0001) ctrl-wet 6: no recs for i =   240           0
(PID.TID 0000.0001) ctrl-wet 6: no recs for i =   241           0
(PID.TID 0000.0001) ctrl-wet 6: no recs for i =   242           0
(PID.TID 0000.0001) ctrl-wet 6: no recs for i =   243           0
(PID.TID 0000.0001) ctrl-wet 6: no recs for i =   244           0
(PID.TID 0000.0001) ctrl-wet 6: no recs for i =   245           0
(PID.TID 0000.0001) ctrl-wet 6: no recs for i =   246           0
(PID.TID 0000.0001) ctrl-wet 6: no recs for i =   247           0
(PID.TID 0000.0001) ctrl-wet 6: no recs for i =   248           0
(PID.TID 0000.0001) ctrl-wet 6: no recs for i =   249           0
(PID.TID 0000.0001) ctrl-wet 6: no recs for i =   250           0
(PID.TID 0000.0001) ctrl-wet 6: no recs for i =   251           0
(PID.TID 0000.0001) ctrl-wet 6: no recs for i =   252           0
(PID.TID 0000.0001) ctrl-wet 6: no recs for i =   253           0
(PID.TID 0000.0001) ctrl-wet 6: no recs for i =   254           0
(PID.TID 0000.0001) ctrl-wet 6: no recs for i =   255           0
(PID.TID 0000.0001) ctrl-wet 6: no recs for i =   256           0
(PID.TID 0000.0001) ctrl-wet 6: no recs for i =   257           0
(PID.TID 0000.0001) ctrl-wet 6: no recs for i =   258           0
(PID.TID 0000.0001) ctrl-wet 6: no recs for i =   259           0
(PID.TID 0000.0001) ctrl-wet 6: no recs for i =   260           0
(PID.TID 0000.0001) ctrl-wet 6: no recs for i =   261           0
(PID.TID 0000.0001) ctrl-wet 6: no recs for i =   262           0
(PID.TID 0000.0001) ctrl-wet 6: no recs for i =   263           0
(PID.TID 0000.0001) ctrl-wet 6: no recs for i =   264           0
(PID.TID 0000.0001) ctrl-wet 6: no recs for i =   265           0
(PID.TID 0000.0001) ctrl-wet 6: no recs for i =   266           0
(PID.TID 0000.0001) ctrl-wet 6: no recs for i =   267           0
(PID.TID 0000.0001) ctrl-wet 6: no recs for i =   268           0
(PID.TID 0000.0001) ctrl-wet 6: no recs for i =   269           0
(PID.TID 0000.0001) ctrl-wet 6: no recs for i =   270           0
(PID.TID 0000.0001) ctrl-wet 6: no recs for i =   271           0
(PID.TID 0000.0001) ctrl-wet 6: no recs for i =   272           0
(PID.TID 0000.0001) ctrl-wet 6: no recs for i =   273           0
(PID.TID 0000.0001) ctrl-wet 6: no recs for i =   274           0
(PID.TID 0000.0001) ctrl-wet 6: no recs for i =   275           0
(PID.TID 0000.0001) ctrl-wet 6: no recs for i =   276           0
(PID.TID 0000.0001) ctrl-wet 6: no recs for i =   277           0
(PID.TID 0000.0001) ctrl-wet 6: no recs for i =   278           0
(PID.TID 0000.0001) ctrl-wet 6: no recs for i =   279           0
(PID.TID 0000.0001) ctrl-wet 6: no recs for i =   280           0
(PID.TID 0000.0001) ctrl-wet 6: no recs for i =   281           0
(PID.TID 0000.0001) ctrl-wet 6: no recs for i =   282           0
(PID.TID 0000.0001) ctrl-wet 6: no recs for i =   283           0
(PID.TID 0000.0001) ctrl-wet 6: no recs for i =   284           0
(PID.TID 0000.0001) ctrl-wet 6: no recs for i =   285           0
(PID.TID 0000.0001) ctrl-wet 6: no recs for i =   286           0
(PID.TID 0000.0001) ctrl-wet 6: no recs for i =   287           0
(PID.TID 0000.0001) ctrl-wet 6: no recs for i =   288           0
(PID.TID 0000.0001) ctrl-wet 6: no recs for i =   289           0
(PID.TID 0000.0001) ctrl-wet 6: no recs for i =   290           0
(PID.TID 0000.0001) ctrl-wet 6: no recs for i =   291           0
(PID.TID 0000.0001) ctrl-wet 6: no recs for i =   292           0
(PID.TID 0000.0001) ctrl-wet 6: no recs for i =   293           0
(PID.TID 0000.0001) ctrl-wet 6: no recs for i =   294           0
(PID.TID 0000.0001) ctrl-wet 6: no recs for i =   295           0
(PID.TID 0000.0001) ctrl-wet 6: no recs for i =   296           0
(PID.TID 0000.0001) ctrl-wet 6: no recs for i =   297           0
(PID.TID 0000.0001) ctrl-wet 6: no recs for i =   298           0
(PID.TID 0000.0001) ctrl-wet 6: no recs for i =   299           0
(PID.TID 0000.0001) ctrl-wet 6: no recs for i =   300           0
(PID.TID 0000.0001) ctrl-wet 6: no recs for i =   301           0
(PID.TID 0000.0001) ctrl-wet 6: no recs for i =   302           0
(PID.TID 0000.0001) ctrl-wet 6: no recs for i =   303           0
(PID.TID 0000.0001) ctrl-wet 6: no recs for i =   304           0
(PID.TID 0000.0001) ctrl-wet 6: no recs for i =   305           0
(PID.TID 0000.0001) ctrl-wet 6: no recs for i =   306           0
(PID.TID 0000.0001) ctrl-wet 6: no recs for i =   307           0
(PID.TID 0000.0001) ctrl-wet 6: no recs for i =   308           0
(PID.TID 0000.0001) ctrl-wet 6: no recs for i =   309           0
(PID.TID 0000.0001) ctrl-wet 6: no recs for i =   310           0
(PID.TID 0000.0001) ctrl-wet 6: no recs for i =   311           0
(PID.TID 0000.0001) ctrl-wet 6: no recs for i =   312           0
(PID.TID 0000.0001) ctrl-wet 6: no recs for i =   313           0
(PID.TID 0000.0001) ctrl-wet 6: no recs for i =   314           0
(PID.TID 0000.0001) ctrl-wet 6: no recs for i =   315           0
(PID.TID 0000.0001) ctrl-wet 6: no recs for i =   316           0
(PID.TID 0000.0001) ctrl-wet 6: no recs for i =   317           0
(PID.TID 0000.0001) ctrl-wet 6: no recs for i =   318           0
(PID.TID 0000.0001) ctrl-wet 6: no recs for i =   319           0
(PID.TID 0000.0001) ctrl-wet 6: no recs for i =   320           0
(PID.TID 0000.0001) ctrl-wet 6: no recs for i =   321           0
(PID.TID 0000.0001) ctrl-wet 6: no recs for i =   322           0
(PID.TID 0000.0001) ctrl-wet 6: no recs for i =   323           0
(PID.TID 0000.0001) ctrl-wet 6: no recs for i =   324           0
(PID.TID 0000.0001) ctrl-wet 6: no recs for i =   325           0
(PID.TID 0000.0001) ctrl-wet 6: no recs for i =   326           0
(PID.TID 0000.0001) ctrl-wet 6: no recs for i =   327           0
(PID.TID 0000.0001) ctrl-wet 6: no recs for i =   328           0
(PID.TID 0000.0001) ctrl-wet 6: no recs for i =   329           0
(PID.TID 0000.0001) ctrl-wet 6: no recs for i =   330           0
(PID.TID 0000.0001) ctrl-wet 6: no recs for i =   331           0
(PID.TID 0000.0001) ctrl-wet 6: no recs for i =   332           0
(PID.TID 0000.0001) ctrl-wet 6: no recs for i =   333           0
(PID.TID 0000.0001) ctrl-wet 6: no recs for i =   334           0
(PID.TID 0000.0001) ctrl-wet 6: no recs for i =   335           0
(PID.TID 0000.0001) ctrl-wet 6: no recs for i =   336           0
(PID.TID 0000.0001) ctrl-wet 6: no recs for i =   337           0
(PID.TID 0000.0001) ctrl-wet 6: no recs for i =   338           0
(PID.TID 0000.0001) ctrl-wet 6: no recs for i =   339           0
(PID.TID 0000.0001) ctrl-wet 6: no recs for i =   340           0
(PID.TID 0000.0001) ctrl-wet 6: no recs for i =   341           0
(PID.TID 0000.0001) ctrl-wet 6: no recs for i =   342           0
(PID.TID 0000.0001) ctrl-wet 6: no recs for i =   343           0
(PID.TID 0000.0001) ctrl-wet 6: no recs for i =   344           0
(PID.TID 0000.0001) ctrl-wet 6: no recs for i =   345           0
(PID.TID 0000.0001) ctrl-wet 6: no recs for i =   346           0
(PID.TID 0000.0001) ctrl-wet 6: no recs for i =   347           0
(PID.TID 0000.0001) ctrl-wet 6: no recs for i =   348           0
(PID.TID 0000.0001) ctrl-wet 6: no recs for i =   349           0
(PID.TID 0000.0001) ctrl-wet 6: no recs for i =   350           0
(PID.TID 0000.0001) ctrl-wet 6: no recs for i =   351           0
(PID.TID 0000.0001) ctrl-wet 6: no recs for i =   352           0
(PID.TID 0000.0001) ctrl-wet 6: no recs for i =   353           0
(PID.TID 0000.0001) ctrl-wet 6: no recs for i =   354           0
(PID.TID 0000.0001) ctrl-wet 6: no recs for i =   355           0
(PID.TID 0000.0001) ctrl-wet 6: no recs for i =   356           0
(PID.TID 0000.0001) ctrl-wet 6: no recs for i =   357           0
(PID.TID 0000.0001) ctrl-wet 6: no recs for i =   358           0
(PID.TID 0000.0001) ctrl-wet 6: no recs for i =   359           0
(PID.TID 0000.0001) ctrl-wet 6: no recs for i =   360           0
(PID.TID 0000.0001) ctrl-wet 6: no recs for i =   361           0
(PID.TID 0000.0001) ctrl-wet 6: no recs for i =   362           0
(PID.TID 0000.0001) ctrl-wet 6: no recs for i =   363           0
(PID.TID 0000.0001) ctrl-wet 6: no recs for i =   364           0
(PID.TID 0000.0001) ctrl-wet 6: no recs for i =   365           0
(PID.TID 0000.0001) ctrl-wet 6: no recs for i =   366           0
(PID.TID 0000.0001) ctrl-wet 6: no recs for i =   367           0
(PID.TID 0000.0001) ctrl-wet 6: no recs for i =   368           0
(PID.TID 0000.0001) ctrl-wet 6: no recs for i =   369           0
(PID.TID 0000.0001) ctrl-wet 6: no recs for i =   370           0
(PID.TID 0000.0001) ctrl-wet 6: no recs for i =   371           0
(PID.TID 0000.0001) ctrl-wet 6: no recs for i =   372           0
(PID.TID 0000.0001) ctrl-wet 6: no recs for i =   373           0
(PID.TID 0000.0001) ctrl-wet 6: no recs for i =   374           0
(PID.TID 0000.0001) ctrl-wet 6: no recs for i =   375           0
(PID.TID 0000.0001) ctrl-wet 6: no recs for i =   376           0
(PID.TID 0000.0001) ctrl-wet 6: no recs for i =   377           0
(PID.TID 0000.0001) ctrl-wet 6: no recs for i =   378           0
(PID.TID 0000.0001) ctrl-wet 6: no recs for i =   379           0
(PID.TID 0000.0001) ctrl-wet 6: no recs for i =   380           0
(PID.TID 0000.0001) ctrl-wet 6: no recs for i =   381           0
(PID.TID 0000.0001) ctrl-wet 6: no recs for i =   382           0
(PID.TID 0000.0001) ctrl-wet 6: no recs for i =   383           0
(PID.TID 0000.0001) ctrl-wet 6: no recs for i =   384           0
(PID.TID 0000.0001) ctrl-wet 6: no recs for i =   385           0
(PID.TID 0000.0001) ctrl-wet 6: no recs for i =   386           0
(PID.TID 0000.0001) ctrl-wet 6: no recs for i =   387           0
(PID.TID 0000.0001) ctrl-wet 6: no recs for i =   388           0
(PID.TID 0000.0001) ctrl-wet 6: no recs for i =   389           0
(PID.TID 0000.0001) ctrl-wet 6: no recs for i =   390           0
(PID.TID 0000.0001) ctrl-wet 6: no recs for i =   391           0
(PID.TID 0000.0001) ctrl-wet 6: no recs for i =   392           0
(PID.TID 0000.0001) ctrl-wet 6: no recs for i =   393           0
(PID.TID 0000.0001) ctrl-wet 6: no recs for i =   394           0
(PID.TID 0000.0001) ctrl-wet 6: no recs for i =   395           0
(PID.TID 0000.0001) ctrl-wet 6: no recs for i =   396           0
(PID.TID 0000.0001) ctrl-wet 6: no recs for i =   397           0
(PID.TID 0000.0001) ctrl-wet 6: no recs for i =   398           0
(PID.TID 0000.0001) ctrl-wet 6: no recs for i =   399           0
(PID.TID 0000.0001) ctrl-wet 6: no recs for i =   400           0
(PID.TID 0000.0001) ctrl-wet 7: flux          1438
(PID.TID 0000.0001) ctrl-wet 8: atmos         1438
(PID.TID 0000.0001) ctrl-wet -------------------------------------------------
(PID.TID 0000.0001) ctrl-wet 13: global nvarlength for Nr =   50    16909590
(PID.TID 0000.0001) ctrl-wet -------------------------------------------------
(PID.TID 0000.0001) ctrl-wet 14: global nWet C/S/W/V k=    1       60646       59295       59493           0
(PID.TID 0000.0001) ctrl-wet 14: global nWet C/S/W/V k=    2       60646       59295       59493           0
(PID.TID 0000.0001) ctrl-wet 14: global nWet C/S/W/V k=    3       59874       58517       58725           0
(PID.TID 0000.0001) ctrl-wet 14: global nWet C/S/W/V k=    4       59387       58040       58258           0
(PID.TID 0000.0001) ctrl-wet 14: global nWet C/S/W/V k=    5       58882       57536       57754           0
(PID.TID 0000.0001) ctrl-wet 14: global nWet C/S/W/V k=    6       58399       57057       57276           0
(PID.TID 0000.0001) ctrl-wet 14: global nWet C/S/W/V k=    7       58052       56735       56936           0
(PID.TID 0000.0001) ctrl-wet 14: global nWet C/S/W/V k=    8       57781       56461       56669           0
(PID.TID 0000.0001) ctrl-wet 14: global nWet C/S/W/V k=    9       57530       56212       56416           0
(PID.TID 0000.0001) ctrl-wet 14: global nWet C/S/W/V k=   10       57283       55964       56154           0
(PID.TID 0000.0001) ctrl-wet 14: global nWet C/S/W/V k=   11       57022       55702       55883           0
(PID.TID 0000.0001) ctrl-wet 14: global nWet C/S/W/V k=   12       56818       55497       55681           0
(PID.TID 0000.0001) ctrl-wet 14: global nWet C/S/W/V k=   13       56634       55322       55509           0
(PID.TID 0000.0001) ctrl-wet 14: global nWet C/S/W/V k=   14       56430       55125       55312           0
(PID.TID 0000.0001) ctrl-wet 14: global nWet C/S/W/V k=   15       56238       54935       55117           0
(PID.TID 0000.0001) ctrl-wet 14: global nWet C/S/W/V k=   16       55975       54689       54858           0
(PID.TID 0000.0001) ctrl-wet 14: global nWet C/S/W/V k=   17       55703       54421       54600           0
(PID.TID 0000.0001) ctrl-wet 14: global nWet C/S/W/V k=   18       55358       54075       54251           0
(PID.TID 0000.0001) ctrl-wet 14: global nWet C/S/W/V k=   19       54964       53666       53853           0
(PID.TID 0000.0001) ctrl-wet 14: global nWet C/S/W/V k=   20       54471       53205       53372           0
(PID.TID 0000.0001) ctrl-wet 14: global nWet C/S/W/V k=   21       53952       52716       52877           0
(PID.TID 0000.0001) ctrl-wet 14: global nWet C/S/W/V k=   22       53489       52249       52409           0
(PID.TID 0000.0001) ctrl-wet 14: global nWet C/S/W/V k=   23       52892       51633       51797           0
(PID.TID 0000.0001) ctrl-wet 14: global nWet C/S/W/V k=   24       52223       50961       51129           0
(PID.TID 0000.0001) ctrl-wet 14: global nWet C/S/W/V k=   25       51696       50480       50635           0
(PID.TID 0000.0001) ctrl-wet 14: global nWet C/S/W/V k=   26       51259       50075       50241           0
(PID.TID 0000.0001) ctrl-wet 14: global nWet C/S/W/V k=   27       50929       49774       49935           0
(PID.TID 0000.0001) ctrl-wet 14: global nWet C/S/W/V k=   28       50664       49532       49678           0
(PID.TID 0000.0001) ctrl-wet 14: global nWet C/S/W/V k=   29       50438       49306       49450           0
(PID.TID 0000.0001) ctrl-wet 14: global nWet C/S/W/V k=   30       50187       49035       49179           0
(PID.TID 0000.0001) ctrl-wet 14: global nWet C/S/W/V k=   31       49964       48805       48937           0
(PID.TID 0000.0001) ctrl-wet 14: global nWet C/S/W/V k=   32       49700       48530       48662           0
(PID.TID 0000.0001) ctrl-wet 14: global nWet C/S/W/V k=   33       49431       48260       48383           0
(PID.TID 0000.0001) ctrl-wet 14: global nWet C/S/W/V k=   34       49176       47993       48108           0
(PID.TID 0000.0001) ctrl-wet 14: global nWet C/S/W/V k=   35       48854       47652       47764           0
(PID.TID 0000.0001) ctrl-wet 14: global nWet C/S/W/V k=   36       48501       47264       47375           0
(PID.TID 0000.0001) ctrl-wet 14: global nWet C/S/W/V k=   37       48098       46846       46951           0
(PID.TID 0000.0001) ctrl-wet 14: global nWet C/S/W/V k=   38       47523       46253       46362           0
(PID.TID 0000.0001) ctrl-wet 14: global nWet C/S/W/V k=   39       46849       45558       45657           0
(PID.TID 0000.0001) ctrl-wet 14: global nWet C/S/W/V k=   40       45984       44670       44751           0
(PID.TID 0000.0001) ctrl-wet 14: global nWet C/S/W/V k=   41       44793       43419       43459           0
(PID.TID 0000.0001) ctrl-wet 14: global nWet C/S/W/V k=   42       42984       41497       41533           0
(PID.TID 0000.0001) ctrl-wet 14: global nWet C/S/W/V k=   43       40302       38691       38718           0
(PID.TID 0000.0001) ctrl-wet 14: global nWet C/S/W/V k=   44       36689       35007       35032           0
(PID.TID 0000.0001) ctrl-wet 14: global nWet C/S/W/V k=   45       31681       30069       29999           0
(PID.TID 0000.0001) ctrl-wet 14: global nWet C/S/W/V k=   46       25595       24028       24031           0
(PID.TID 0000.0001) ctrl-wet 14: global nWet C/S/W/V k=   47       18224       16890       16872           0
(PID.TID 0000.0001) ctrl-wet 14: global nWet C/S/W/V k=   48       11407       10397       10351           0
(PID.TID 0000.0001) ctrl-wet 14: global nWet C/S/W/V k=   49        4597        3913        3912           0
(PID.TID 0000.0001) ctrl-wet 14: global nWet C/S/W/V k=   50         818         624         622           0
(PID.TID 0000.0001) ctrl-wet -------------------------------------------------
(PID.TID 0000.0001) ctrl-wet -------------------------------------------------
(PID.TID 0000.0001) ctrl-wet -------------------------------------------------
(PID.TID 0000.0001) ctrl_init: no. of control variables:            8
(PID.TID 0000.0001) ctrl_init: control vector length:        16909590
(PID.TID 0000.0001) 
(PID.TID 0000.0001) // =======================================================
(PID.TID 0000.0001) // control vector configuration  >>> START <<<
(PID.TID 0000.0001) // =======================================================
(PID.TID 0000.0001) 
(PID.TID 0000.0001)  Total number of ocean points per tile:
(PID.TID 0000.0001)  --------------------------------------
(PID.TID 0000.0001)  snx*sny*nr =    11250
(PID.TID 0000.0001) 
(PID.TID 0000.0001)  Number of ocean points per tile:
(PID.TID 0000.0001)  --------------------------------
(PID.TID 0000.0001)  bi,bj,#(c/s/w): 0001 0001 000719 000491 000711
(PID.TID 0000.0001) 
(PID.TID 0000.0001)  Settings of generic controls:
(PID.TID 0000.0001)  -----------------------------
(PID.TID 0000.0001) 
(PID.TID 0000.0001)  ctrlUseGen  =     T /* use generic controls */
(PID.TID 0000.0001)  -> 2D control, genarr2d no.  1 is in use
(PID.TID 0000.0001)       file       = xx_etan
(PID.TID 0000.0001)       weight     = SSH_weights_nonseasonal_rms_areascaled.bin
(PID.TID 0000.0001)  preprocess = WC01
(PID.TID 0000.0001)  -> 3d control, genarr3d no.  1 is in use
(PID.TID 0000.0001)       file       = xx_theta
(PID.TID 0000.0001)       weight     = Theta_weights_nonseasonal_rmsv2_areascaled.bin
(PID.TID 0000.0001)  preprocess = WC01
(PID.TID 0000.0001)  -> 3d control, genarr3d no.  2 is in use
(PID.TID 0000.0001)       file       = xx_salt
(PID.TID 0000.0001)       weight     = Salt_weights_nonseasonal_rmsv2_areascaled.bin
(PID.TID 0000.0001)  preprocess = WC01
(PID.TID 0000.0001)  -> 3d control, genarr3d no.  3 is in use
(PID.TID 0000.0001)       file       = xx_kapgm
(PID.TID 0000.0001)       weight     = r2.wkapgmFldv2.data
(PID.TID 0000.0001)  preprocess = WC01
(PID.TID 0000.0001)  -> 3d control, genarr3d no.  4 is in use
(PID.TID 0000.0001)       file       = xx_kapredi
(PID.TID 0000.0001)       weight     = r2.wkaprediFldv2.data
(PID.TID 0000.0001)  preprocess = WC01
(PID.TID 0000.0001)  -> 3d control, genarr3d no.  5 is in use
(PID.TID 0000.0001)       file       = xx_diffkr
(PID.TID 0000.0001)       weight     = r2.wdiffkrFldv2.data
(PID.TID 0000.0001)  preprocess = WC01
(PID.TID 0000.0001)  -> 3d control, genarr3d no.  6 is in use
(PID.TID 0000.0001)       file       = xx_uvel
(PID.TID 0000.0001)       weight     = Uvel_weights_nonseasonal_rmsv2_areascaled.bin
(PID.TID 0000.0001)  preprocess = WC01
(PID.TID 0000.0001)  -> 3d control, genarr3d no.  7 is in use
(PID.TID 0000.0001)       file       = xx_vvel
(PID.TID 0000.0001)       weight     = Vvel_weights_nonseasonal_rmsv2_areascaled.bin
(PID.TID 0000.0001)  preprocess = WC01
(PID.TID 0000.0001) 
(PID.TID 0000.0001) // =======================================================
(PID.TID 0000.0001) // control vector configuration  >>> END <<<
(PID.TID 0000.0001) // =======================================================
(PID.TID 0000.0001) 
(PID.TID 0000.0001) INI_GLOBAL_DOMAIN: Found   0 CS-corner Pts in the domain
(PID.TID 0000.0001) %MON fCori_max                    =   1.4584096177006E-04
(PID.TID 0000.0001) %MON fCori_min                    =  -1.4576251334415E-04
(PID.TID 0000.0001) %MON fCori_mean                   =  -8.7654439315739E-06
(PID.TID 0000.0001) %MON fCori_sd                     =   1.0383886522938E-04
(PID.TID 0000.0001) %MON fCoriG_max                   =   1.4584247033981E-04
(PID.TID 0000.0001) %MON fCoriG_min                   =  -1.4575575421020E-04
(PID.TID 0000.0001) %MON fCoriG_mean                  =  -8.7205865294813E-06
(PID.TID 0000.0001) %MON fCoriG_sd                    =   1.0386686226587E-04
(PID.TID 0000.0001) %MON fCoriCos_max                 =   1.4584158744890E-04
(PID.TID 0000.0001) %MON fCoriCos_min                 =   6.6334365221135E-07
(PID.TID 0000.0001) %MON fCoriCos_mean                =   9.3676196717296E-05
(PID.TID 0000.0001) %MON fCoriCos_sd                  =   4.0440739161864E-05
(PID.TID 0000.0001) INI_CG2D: CG2D normalisation factor =  7.1522409280111305E-05
(PID.TID 0000.0001) 
(PID.TID 0000.0001) // =======================================================
(PID.TID 0000.0001) // Model configuration
(PID.TID 0000.0001) // =======================================================
(PID.TID 0000.0001) //
(PID.TID 0000.0001) // "Physical" paramters ( PARM01 in namelist )
(PID.TID 0000.0001) //
(PID.TID 0000.0001) buoyancyRelation = /* Type of relation to get Buoyancy */
(PID.TID 0000.0001)               'OCEANIC'
(PID.TID 0000.0001)     ;
(PID.TID 0000.0001) fluidIsAir   =  /* fluid major constituent is Air */
(PID.TID 0000.0001)                   F
(PID.TID 0000.0001)     ;
(PID.TID 0000.0001) fluidIsWater =  /* fluid major constituent is Water */
(PID.TID 0000.0001)                   T
(PID.TID 0000.0001)     ;
(PID.TID 0000.0001) usingPCoords =  /* use p (or p*) vertical coordinate */
(PID.TID 0000.0001)                   F
(PID.TID 0000.0001)     ;
(PID.TID 0000.0001) usingZCoords =  /* use z (or z*) vertical coordinate */
(PID.TID 0000.0001)                   T
(PID.TID 0000.0001)     ;
(PID.TID 0000.0001) tRef =   /* Reference temperature profile ( oC or K ) */
(PID.TID 0000.0001)     3 @  2.300000000000000E+01,             /* K =  1:  3 */
(PID.TID 0000.0001)     3 @  2.200000000000000E+01,             /* K =  4:  6 */
(PID.TID 0000.0001)                 2.100000000000000E+01,      /* K =  7 */
(PID.TID 0000.0001)     2 @  2.000000000000000E+01,             /* K =  8:  9 */
(PID.TID 0000.0001)                 1.900000000000000E+01,      /* K = 10 */
(PID.TID 0000.0001)     2 @  1.800000000000000E+01,             /* K = 11: 12 */
(PID.TID 0000.0001)                 1.700000000000000E+01,      /* K = 13 */
(PID.TID 0000.0001)     2 @  1.600000000000000E+01,             /* K = 14: 15 */
(PID.TID 0000.0001)                 1.500000000000000E+01,      /* K = 16 */
(PID.TID 0000.0001)                 1.400000000000000E+01,      /* K = 17 */
(PID.TID 0000.0001)                 1.300000000000000E+01,      /* K = 18 */
(PID.TID 0000.0001)                 1.200000000000000E+01,      /* K = 19 */
(PID.TID 0000.0001)                 1.100000000000000E+01,      /* K = 20 */
(PID.TID 0000.0001)     2 @  9.000000000000000E+00,             /* K = 21: 22 */
(PID.TID 0000.0001)                 8.000000000000000E+00,      /* K = 23 */
(PID.TID 0000.0001)                 7.000000000000000E+00,      /* K = 24 */
(PID.TID 0000.0001)     2 @  6.000000000000000E+00,             /* K = 25: 26 */
(PID.TID 0000.0001)     2 @  5.000000000000000E+00,             /* K = 27: 28 */
(PID.TID 0000.0001)     3 @  4.000000000000000E+00,             /* K = 29: 31 */
(PID.TID 0000.0001)     3 @  3.000000000000000E+00,             /* K = 32: 34 */
(PID.TID 0000.0001)     4 @  2.000000000000000E+00,             /* K = 35: 38 */
(PID.TID 0000.0001)    12 @  1.000000000000000E+00              /* K = 39: 50 */
(PID.TID 0000.0001)     ;
(PID.TID 0000.0001) sRef =   /* Reference salinity profile ( psu ) */
(PID.TID 0000.0001)    50 @  3.450000000000000E+01              /* K =  1: 50 */
(PID.TID 0000.0001)     ;
(PID.TID 0000.0001) useStrainTensionVisc= /* Use StrainTension Form of Viscous Operator */
(PID.TID 0000.0001)                   F
(PID.TID 0000.0001)     ;
(PID.TID 0000.0001) useVariableVisc = /* Use variable horizontal viscosity */
(PID.TID 0000.0001)                   T
(PID.TID 0000.0001)     ;
(PID.TID 0000.0001) useHarmonicVisc = /* Use harmonic horizontal viscosity */
(PID.TID 0000.0001)                   T
(PID.TID 0000.0001)     ;
(PID.TID 0000.0001) useBiharmonicVisc= /* Use biharmonic horiz.  viscosity */
(PID.TID 0000.0001)                   T
(PID.TID 0000.0001)     ;
(PID.TID 0000.0001) useSmag3D = /* Use isotropic 3-D Smagorinsky viscosity */
(PID.TID 0000.0001)                   F
(PID.TID 0000.0001)     ;
(PID.TID 0000.0001) viscAh  =   /* Lateral harmonic viscosity ( m^2/s ) */
(PID.TID 0000.0001)                 1.000000000000000E+00
(PID.TID 0000.0001)     ;
(PID.TID 0000.0001) viscAhMax = /* Maximum lateral harmonic viscosity ( m^2/s ) */
(PID.TID 0000.0001)                 1.000000000000000E+21
(PID.TID 0000.0001)     ;
(PID.TID 0000.0001) viscAhGrid = /* Grid dependent lateral harmonic viscosity ( non-dim. ) */
(PID.TID 0000.0001)                 2.000000000000000E-02
(PID.TID 0000.0001)     ;
(PID.TID 0000.0001) useFullLeith = /* Use Full Form of Leith Viscosity on/off flag*/
(PID.TID 0000.0001)                   F
(PID.TID 0000.0001)     ;
(PID.TID 0000.0001) useAreaViscLength = /* Use area for visc length instead of geom. mean*/
(PID.TID 0000.0001)                   F
(PID.TID 0000.0001)     ;
(PID.TID 0000.0001) viscC2leith = /* Leith harmonic visc. factor (on grad(vort),non-dim.) */
(PID.TID 0000.0001)                 0.000000000000000E+00
(PID.TID 0000.0001)     ;
(PID.TID 0000.0001) viscC2leithD = /* Leith harmonic viscosity factor (on grad(div),non-dim.)*/
(PID.TID 0000.0001)                 0.000000000000000E+00
(PID.TID 0000.0001)     ;
(PID.TID 0000.0001) viscC2smag = /* Smagorinsky harmonic viscosity factor (non-dim.) */
(PID.TID 0000.0001)                 0.000000000000000E+00
(PID.TID 0000.0001)     ;
(PID.TID 0000.0001) viscA4  =   /* Lateral biharmonic viscosity ( m^4/s ) */
(PID.TID 0000.0001)                 0.000000000000000E+00
(PID.TID 0000.0001)     ;
(PID.TID 0000.0001) viscA4Max = /* Maximum biharmonic viscosity ( m^2/s ) */
(PID.TID 0000.0001)                 1.000000000000000E+21
(PID.TID 0000.0001)     ;
(PID.TID 0000.0001) viscA4Grid = /* Grid dependent biharmonic viscosity ( non-dim. ) */
(PID.TID 0000.0001)                 0.000000000000000E+00
(PID.TID 0000.0001)     ;
(PID.TID 0000.0001) viscC4leith = /* Leith biharm viscosity factor (on grad(vort), non-dim.)*/
(PID.TID 0000.0001)                 0.000000000000000E+00
(PID.TID 0000.0001)     ;
(PID.TID 0000.0001) viscC4leithD = /* Leith biharm viscosity factor (on grad(div), non-dim.) */
(PID.TID 0000.0001)                 0.000000000000000E+00
(PID.TID 0000.0001)     ;
(PID.TID 0000.0001) viscC4Smag = /* Smagorinsky biharm viscosity factor (non-dim) */
(PID.TID 0000.0001)                 0.000000000000000E+00
(PID.TID 0000.0001)     ;
(PID.TID 0000.0001) no_slip_sides =  /* Viscous BCs: No-slip sides */
(PID.TID 0000.0001)                   T
(PID.TID 0000.0001)     ;
(PID.TID 0000.0001) sideDragFactor = /* side-drag scaling factor (non-dim) */
(PID.TID 0000.0001)                 2.000000000000000E+00
(PID.TID 0000.0001)     ;
(PID.TID 0000.0001) viscArNr = /* vertical profile of vertical viscosity ( m^2/s )*/
(PID.TID 0000.0001)    50 @  5.000000000000000E-05              /* K =  1: 50 */
(PID.TID 0000.0001)     ;
(PID.TID 0000.0001) no_slip_bottom =  /* Viscous BCs: No-slip bottom */
(PID.TID 0000.0001)                   T
(PID.TID 0000.0001)     ;
(PID.TID 0000.0001) bottomVisc_pCell = /* Partial-cell in bottom Visc. BC */
(PID.TID 0000.0001)                   F
(PID.TID 0000.0001)     ;
(PID.TID 0000.0001) bottomDragLinear = /* linear bottom-drag coefficient ( m/s ) */
(PID.TID 0000.0001)                 0.000000000000000E+00
(PID.TID 0000.0001)     ;
(PID.TID 0000.0001) bottomDragQuadratic = /* quadratic bottom-drag coefficient (-) */
(PID.TID 0000.0001)                 1.000000000000000E-03
(PID.TID 0000.0001)     ;
(PID.TID 0000.0001) selectBotDragQuadr = /* select quadratic bottom drag options */
(PID.TID 0000.0001)                       0
(PID.TID 0000.0001)     ;
(PID.TID 0000.0001) diffKhT =   /* Laplacian diffusion of heat laterally ( m^2/s ) */
(PID.TID 0000.0001)                 1.000000000000000E+01
(PID.TID 0000.0001)     ;
(PID.TID 0000.0001) diffK4T =   /* Biharmonic diffusion of heat laterally ( m^4/s ) */
(PID.TID 0000.0001)                 0.000000000000000E+00
(PID.TID 0000.0001)     ;
(PID.TID 0000.0001) diffKhS =   /* Laplacian diffusion of salt laterally ( m^2/s ) */
(PID.TID 0000.0001)                 1.000000000000000E+01
(PID.TID 0000.0001)     ;
(PID.TID 0000.0001) diffK4S =   /* Biharmonic diffusion of salt laterally ( m^4/s ) */
(PID.TID 0000.0001)                 0.000000000000000E+00
(PID.TID 0000.0001)     ;
(PID.TID 0000.0001) diffKrNrT = /* vertical profile of vertical diffusion of Temp ( m^2/s )*/
(PID.TID 0000.0001)    50 @  1.000000000000000E-05              /* K =  1: 50 */
(PID.TID 0000.0001)     ;
(PID.TID 0000.0001) diffKrNrS = /* vertical profile of vertical diffusion of Salt ( m^2/s )*/
(PID.TID 0000.0001)    50 @  1.000000000000000E-05              /* K =  1: 50 */
(PID.TID 0000.0001)     ;
(PID.TID 0000.0001) diffKrBL79surf = /* Surface diffusion for Bryan and Lewis 79 ( m^2/s ) */
(PID.TID 0000.0001)                 0.000000000000000E+00
(PID.TID 0000.0001)     ;
(PID.TID 0000.0001) diffKrBL79deep = /* Deep diffusion for Bryan and Lewis 1979 ( m^2/s ) */
(PID.TID 0000.0001)                 0.000000000000000E+00
(PID.TID 0000.0001)     ;
(PID.TID 0000.0001) diffKrBL79scl = /* Depth scale for Bryan and Lewis 1979 ( m ) */
(PID.TID 0000.0001)                 2.000000000000000E+02
(PID.TID 0000.0001)     ;
(PID.TID 0000.0001) diffKrBL79Ho = /* Turning depth for Bryan and Lewis 1979 ( m ) */
(PID.TID 0000.0001)                -2.000000000000000E+03
(PID.TID 0000.0001)     ;
(PID.TID 0000.0001) ivdc_kappa = /* Implicit Vertical Diffusivity for Convection ( m^2/s) */
(PID.TID 0000.0001)                 1.000000000000000E+01
(PID.TID 0000.0001)     ;
(PID.TID 0000.0001) hMixCriteria=  /* Criteria for mixed-layer diagnostic */
(PID.TID 0000.0001)                -8.000000000000000E-01
(PID.TID 0000.0001)     ;
(PID.TID 0000.0001) dRhoSmall =  /* Parameter for mixed-layer diagnostic */
(PID.TID 0000.0001)                 1.000000000000000E-06
(PID.TID 0000.0001)     ;
(PID.TID 0000.0001) hMixSmooth=  /* Smoothing parameter for mixed-layer diagnostic */
(PID.TID 0000.0001)                 0.000000000000000E+00
(PID.TID 0000.0001)     ;
(PID.TID 0000.0001) eosType =  /* Type of Equation of State */
(PID.TID 0000.0001)               'JMD95Z'
(PID.TID 0000.0001)     ;
(PID.TID 0000.0001) selectP_inEOS_Zc = /* select pressure to use in EOS (0,1,2,3) */
(PID.TID 0000.0001)                       0
(PID.TID 0000.0001)     0= -g*rhoConst*z ; 1= pRef (from tRef,sRef); 2= Hyd P ; 3= Hyd+NH P
(PID.TID 0000.0001)     ;
(PID.TID 0000.0001) HeatCapacity_Cp =  /* Specific heat capacity ( J/kg/K ) */
(PID.TID 0000.0001)                 3.994000000000000E+03
(PID.TID 0000.0001)     ;
(PID.TID 0000.0001) celsius2K = /* 0 degree Celsius converted to Kelvin ( K ) */
(PID.TID 0000.0001)                 2.731500000000000E+02
(PID.TID 0000.0001)     ;
(PID.TID 0000.0001) rhoConst  = /* Reference density (Boussinesq)  ( kg/m^3 ) */
(PID.TID 0000.0001)                 1.029000000000000E+03
(PID.TID 0000.0001)     ;
(PID.TID 0000.0001) rhoFacC = /* normalized Reference density @ cell-Center (-) */
(PID.TID 0000.0001)    50 @  1.000000000000000E+00              /* K =  1: 50 */
(PID.TID 0000.0001)     ;
(PID.TID 0000.0001) rhoFacF = /* normalized Reference density @ W-Interface (-) */
(PID.TID 0000.0001)    51 @  1.000000000000000E+00              /* K =  1: 51 */
(PID.TID 0000.0001)     ;
(PID.TID 0000.0001) rhoConstFresh = /* Fresh-water reference density ( kg/m^3 ) */
(PID.TID 0000.0001)                 1.000000000000000E+03
(PID.TID 0000.0001)     ;
(PID.TID 0000.0001) gravity =   /* Gravitational acceleration ( m/s^2 ) */
(PID.TID 0000.0001)                 9.810000000000000E+00
(PID.TID 0000.0001)     ;
(PID.TID 0000.0001) gBaro =   /* Barotropic gravity ( m/s^2 ) */
(PID.TID 0000.0001)                 9.810000000000000E+00
(PID.TID 0000.0001)     ;
(PID.TID 0000.0001) gravFacC = /* gravity factor (vs surf.) @ cell-Center (-) */
(PID.TID 0000.0001)    50 @  1.000000000000000E+00              /* K =  1: 50 */
(PID.TID 0000.0001)     ;
(PID.TID 0000.0001) gravFacF = /* gravity factor (vs surf.) @ W-Interface (-) */
(PID.TID 0000.0001)    51 @  1.000000000000000E+00              /* K =  1: 51 */
(PID.TID 0000.0001)     ;
(PID.TID 0000.0001) rotationPeriod =   /* Rotation Period ( s ) */
(PID.TID 0000.0001)                 8.616400000000000E+04
(PID.TID 0000.0001)     ;
(PID.TID 0000.0001) omega =   /* Angular velocity ( rad/s ) */
(PID.TID 0000.0001)                 7.292123516990375E-05
(PID.TID 0000.0001)     ;
(PID.TID 0000.0001) f0 =   /* Reference coriolis parameter ( 1/s ) */
(PID.TID 0000.0001)                 1.000000000000000E-04
(PID.TID 0000.0001)     ;
(PID.TID 0000.0001) beta =   /* Beta ( 1/(m.s) ) */
(PID.TID 0000.0001)                 9.999999999999999E-12
(PID.TID 0000.0001)     ;
(PID.TID 0000.0001) fPrime =   /* Second coriolis parameter ( 1/s ) */
(PID.TID 0000.0001)                 0.000000000000000E+00
(PID.TID 0000.0001)     ;
(PID.TID 0000.0001) rigidLid =   /* Rigid lid on/off flag */
(PID.TID 0000.0001)                   F
(PID.TID 0000.0001)     ;
(PID.TID 0000.0001) implicitFreeSurface =   /* Implicit free surface on/off flag */
(PID.TID 0000.0001)                   T
(PID.TID 0000.0001)     ;
(PID.TID 0000.0001) freeSurfFac =   /* Implicit free surface factor */
(PID.TID 0000.0001)                 1.000000000000000E+00
(PID.TID 0000.0001)     ;
(PID.TID 0000.0001) implicSurfPress =  /* Surface Pressure implicit factor (0-1)*/
(PID.TID 0000.0001)                 1.000000000000000E+00
(PID.TID 0000.0001)     ;
(PID.TID 0000.0001) implicDiv2DFlow =  /* Barot. Flow Div. implicit factor (0-1)*/
(PID.TID 0000.0001)                 1.000000000000000E+00
(PID.TID 0000.0001)     ;
(PID.TID 0000.0001) uniformLin_PhiSurf = /* use uniform Bo_surf on/off flag*/
(PID.TID 0000.0001)                   T
(PID.TID 0000.0001)     ;
(PID.TID 0000.0001) uniformFreeSurfLev = /* free-surface level-index is uniform */
(PID.TID 0000.0001)                   T
(PID.TID 0000.0001)     ;
(PID.TID 0000.0001) hFacMin =   /* minimum partial cell factor (hFac) */
(PID.TID 0000.0001)                 2.000000000000000E-01
(PID.TID 0000.0001)     ;
(PID.TID 0000.0001) hFacMinDr = /* minimum partial cell thickness ( m) */
(PID.TID 0000.0001)                 5.000000000000000E+00
(PID.TID 0000.0001)     ;
(PID.TID 0000.0001) exactConserv =  /* Exact Volume Conservation on/off flag*/
(PID.TID 0000.0001)                   T
(PID.TID 0000.0001)     ;
(PID.TID 0000.0001) linFSConserveTr = /* Tracer correction for Lin Free Surface on/off flag*/
(PID.TID 0000.0001)                   F
(PID.TID 0000.0001)     ;
(PID.TID 0000.0001) nonlinFreeSurf = /* Non-linear Free Surf. options (-1,0,1,2,3)*/
(PID.TID 0000.0001)                       4
(PID.TID 0000.0001)      -1,0= Off ; 1,2,3= On, 2=+rescale gU,gV, 3=+update cg2d solv.
(PID.TID 0000.0001)     ;
(PID.TID 0000.0001) hFacInf =   /* lower threshold for hFac (nonlinFreeSurf only)*/
(PID.TID 0000.0001)                 2.000000000000000E-01
(PID.TID 0000.0001)     ;
(PID.TID 0000.0001) hFacSup =   /* upper threshold for hFac (nonlinFreeSurf only)*/
(PID.TID 0000.0001)                 2.000000000000000E+00
(PID.TID 0000.0001)     ;
(PID.TID 0000.0001) select_rStar = /* r* Vertical coord. options (=0 r coord.; >0 uses r*)*/
(PID.TID 0000.0001)                       2
(PID.TID 0000.0001)     ;
(PID.TID 0000.0001) useRealFreshWaterFlux = /* Real Fresh Water Flux on/off flag*/
(PID.TID 0000.0001)                   T
(PID.TID 0000.0001)     ;
(PID.TID 0000.0001) temp_EvPrRn = /* Temp. of Evap/Prec/R (UNSET=use local T)(oC)*/
(PID.TID 0000.0001)                 1.234567000000000E+05
(PID.TID 0000.0001)     ;
(PID.TID 0000.0001) salt_EvPrRn = /* Salin. of Evap/Prec/R (UNSET=use local S)(psu)*/
(PID.TID 0000.0001)                 0.000000000000000E+00
(PID.TID 0000.0001)     ;
(PID.TID 0000.0001) selectAddFluid = /* option for mass source/sink of fluid (=0: off) */
(PID.TID 0000.0001)                       0
(PID.TID 0000.0001)     ;
(PID.TID 0000.0001) temp_addMass = /* Temp. of addMass array (UNSET=use local T)(oC)*/
(PID.TID 0000.0001)                 1.234567000000000E+05
(PID.TID 0000.0001)     ;
(PID.TID 0000.0001) salt_addMass = /* Salin. of addMass array (UNSET=use local S)(psu)*/
(PID.TID 0000.0001)                 0.000000000000000E+00
(PID.TID 0000.0001)     ;
(PID.TID 0000.0001) use3Dsolver = /* use 3-D pressure solver on/off flag */
(PID.TID 0000.0001)                   F
(PID.TID 0000.0001)     ;
(PID.TID 0000.0001) nonHydrostatic =  /* Non-Hydrostatic on/off flag */
(PID.TID 0000.0001)                   F
(PID.TID 0000.0001)     ;
(PID.TID 0000.0001) nh_Am2 = /* Non-Hydrostatic terms scaling factor */
(PID.TID 0000.0001)                 1.000000000000000E+00
(PID.TID 0000.0001)     ;
(PID.TID 0000.0001) implicitNHPress = /* Non-Hyd Pressure implicit factor (0-1)*/
(PID.TID 0000.0001)                 1.000000000000000E+00
(PID.TID 0000.0001)     ;
(PID.TID 0000.0001) selectNHfreeSurf = /* Non-Hyd (free-)Surface option */
(PID.TID 0000.0001)                       0
(PID.TID 0000.0001)     ;
(PID.TID 0000.0001) quasiHydrostatic = /* Quasi-Hydrostatic on/off flag */
(PID.TID 0000.0001)                   F
(PID.TID 0000.0001)     ;
(PID.TID 0000.0001) calc_wVelocity = /* vertical velocity calculation on/off flag */
(PID.TID 0000.0001)                   T
(PID.TID 0000.0001)     ;
(PID.TID 0000.0001) momStepping =  /* Momentum equation on/off flag */
(PID.TID 0000.0001)                   T
(PID.TID 0000.0001)     ;
(PID.TID 0000.0001) vectorInvariantMomentum= /* Vector-Invariant Momentum on/off */
(PID.TID 0000.0001)                   T
(PID.TID 0000.0001)     ;
(PID.TID 0000.0001) momAdvection =  /* Momentum advection on/off flag */
(PID.TID 0000.0001)                   T
(PID.TID 0000.0001)     ;
(PID.TID 0000.0001) momViscosity =  /* Momentum viscosity on/off flag */
(PID.TID 0000.0001)                   T
(PID.TID 0000.0001)     ;
(PID.TID 0000.0001) momImplVertAdv= /* Momentum implicit vert. advection on/off*/
(PID.TID 0000.0001)                   F
(PID.TID 0000.0001)     ;
(PID.TID 0000.0001) implicitViscosity = /* Implicit viscosity on/off flag */
(PID.TID 0000.0001)                   T
(PID.TID 0000.0001)     ;
(PID.TID 0000.0001) selectImplicitDrag= /* Implicit bot Drag options (0,1,2)*/
(PID.TID 0000.0001)                       0
(PID.TID 0000.0001)     0= Expl. ; 1= Impl. on provis. Vel ; 2= Fully Impl (with surf.P)
(PID.TID 0000.0001)     ;
(PID.TID 0000.0001) metricTerms =  /* metric-Terms on/off flag */
(PID.TID 0000.0001)                   F
(PID.TID 0000.0001)     ;
(PID.TID 0000.0001) useNHMTerms = /* Non-Hydrostatic Metric-Terms on/off */
(PID.TID 0000.0001)                   F
(PID.TID 0000.0001)     ;
(PID.TID 0000.0001) selectCoriMap = /* Coriolis Map options (0,1,2,3)*/
(PID.TID 0000.0001)                       2
(PID.TID 0000.0001)     0= f-Plane ; 1= Beta-Plane ; 2= Spherical ; 3= read from file
(PID.TID 0000.0001)     ;
(PID.TID 0000.0001) use3dCoriolis = /* 3-D Coriolis on/off flag */
(PID.TID 0000.0001)                   F
(PID.TID 0000.0001)     ;
(PID.TID 0000.0001) useCoriolis =  /* Coriolis on/off flag */
(PID.TID 0000.0001)                   T
(PID.TID 0000.0001)     ;
(PID.TID 0000.0001) useCDscheme =  /* CD scheme on/off flag */
(PID.TID 0000.0001)                   F
(PID.TID 0000.0001)     ;
(PID.TID 0000.0001) useEnergyConservingCoriolis= /* Flx-Form Coriolis scheme flag */
(PID.TID 0000.0001)                   F
(PID.TID 0000.0001)     ;
(PID.TID 0000.0001) useJamartWetPoints= /* Coriolis WetPoints method flag */
(PID.TID 0000.0001)                   T
(PID.TID 0000.0001)     ;
(PID.TID 0000.0001) useJamartMomAdv= /* V.I Non-linear terms Jamart flag */
(PID.TID 0000.0001)                   F
(PID.TID 0000.0001)     ;
(PID.TID 0000.0001) useAbsVorticity= /* V.I Works with f+zeta in Coriolis */
(PID.TID 0000.0001)                   F
(PID.TID 0000.0001)     ;
(PID.TID 0000.0001) selectVortScheme= /* V.I Scheme selector for Vorticity-Term */
(PID.TID 0000.0001)                       1
(PID.TID 0000.0001)    = 0 : enstrophy (Shallow-Water Eq.) conserving scheme by Sadourny, JAS 75
(PID.TID 0000.0001)    = 1 : same as 0 with modified hFac
(PID.TID 0000.0001)    = 2 : energy conserving scheme (used by Sadourny in JAS 75 paper)
(PID.TID 0000.0001)    = 3 : energy (general) and enstrophy (2D, nonDiv.) conserving scheme
(PID.TID 0000.0001)          from Sadourny (Burridge & Haseler, ECMWF Rep.4, 1977)
(PID.TID 0000.0001)     ;
(PID.TID 0000.0001) upwindVorticity= /* V.I Upwind bias vorticity flag */
(PID.TID 0000.0001)                   F
(PID.TID 0000.0001)     ;
(PID.TID 0000.0001) highOrderVorticity= /* V.I High order vort. advect. flag */
(PID.TID 0000.0001)                   F
(PID.TID 0000.0001)     ;
(PID.TID 0000.0001) upwindShear= /* V.I Upwind vertical Shear advection flag */
(PID.TID 0000.0001)                   F
(PID.TID 0000.0001)     ;
(PID.TID 0000.0001) selectKEscheme= /* V.I Kinetic Energy scheme selector */
(PID.TID 0000.0001)                       0
(PID.TID 0000.0001)     ;
(PID.TID 0000.0001) momForcing =  /* Momentum forcing on/off flag */
(PID.TID 0000.0001)                   T
(PID.TID 0000.0001)     ;
(PID.TID 0000.0001) momPressureForcing =  /* Momentum pressure term on/off flag */
(PID.TID 0000.0001)                   T
(PID.TID 0000.0001)     ;
(PID.TID 0000.0001) implicitIntGravWave= /* Implicit Internal Gravity Wave flag */
(PID.TID 0000.0001)                   F
(PID.TID 0000.0001)     ;
(PID.TID 0000.0001) staggerTimeStep =    /* Stagger time stepping on/off flag */
(PID.TID 0000.0001)                   T
(PID.TID 0000.0001)     ;
(PID.TID 0000.0001) doResetHFactors = /* reset thickness factors @ each time-step */
(PID.TID 0000.0001)                   T
(PID.TID 0000.0001)     ;
(PID.TID 0000.0001) multiDimAdvection =  /* enable/disable Multi-Dim Advection */
(PID.TID 0000.0001)                   T
(PID.TID 0000.0001)     ;
(PID.TID 0000.0001) useMultiDimAdvec =   /* Multi-Dim Advection is/is-not used */
(PID.TID 0000.0001)                   T
(PID.TID 0000.0001)     ;
(PID.TID 0000.0001) implicitDiffusion = /* Implicit Diffusion on/off flag */
(PID.TID 0000.0001)                   T
(PID.TID 0000.0001)     ;
(PID.TID 0000.0001) tempStepping =  /* Temperature equation on/off flag */
(PID.TID 0000.0001)                   T
(PID.TID 0000.0001)     ;
(PID.TID 0000.0001) tempAdvection = /* Temperature advection on/off flag */
(PID.TID 0000.0001)                   T
(PID.TID 0000.0001)     ;
(PID.TID 0000.0001) tempImplVertAdv = /* Temp. implicit vert. advection on/off */
(PID.TID 0000.0001)                   T
(PID.TID 0000.0001)     ;
(PID.TID 0000.0001) tempForcing  =  /* Temperature forcing on/off flag */
(PID.TID 0000.0001)                   T
(PID.TID 0000.0001)     ;
(PID.TID 0000.0001) balanceQnet  =  /* balance net heat-flux on/off flag */
(PID.TID 0000.0001)                   F
(PID.TID 0000.0001)     ;
(PID.TID 0000.0001) doThetaClimRelax = /* apply SST relaxation on/off flag */
(PID.TID 0000.0001)                   F
(PID.TID 0000.0001)     ;
(PID.TID 0000.0001) balanceThetaClimRelax= /* balance SST relaxation on/off flag */
(PID.TID 0000.0001)                   F
(PID.TID 0000.0001)     ;
(PID.TID 0000.0001) tempIsActiveTr = /* Temp. is a dynamically Active Tracer */
(PID.TID 0000.0001)                   T
(PID.TID 0000.0001)     ;
(PID.TID 0000.0001) saltStepping =  /* Salinity equation on/off flag */
(PID.TID 0000.0001)                   T
(PID.TID 0000.0001)     ;
(PID.TID 0000.0001) saltAdvection = /* Salinity advection on/off flag */
(PID.TID 0000.0001)                   T
(PID.TID 0000.0001)     ;
(PID.TID 0000.0001) saltImplVertAdv = /* Sali. implicit vert. advection on/off */
(PID.TID 0000.0001)                   T
(PID.TID 0000.0001)     ;
(PID.TID 0000.0001) saltForcing  =  /* Salinity forcing on/off flag */
(PID.TID 0000.0001)                   T
(PID.TID 0000.0001)     ;
(PID.TID 0000.0001) balanceEmPmR =  /* balance net fresh-water flux on/off flag */
(PID.TID 0000.0001)                   F
(PID.TID 0000.0001)     ;
(PID.TID 0000.0001) doSaltClimRelax = /* apply SSS relaxation on/off flag */
(PID.TID 0000.0001)                   F
(PID.TID 0000.0001)     ;
(PID.TID 0000.0001) balanceSaltClimRelax= /* balance SSS relaxation on/off flag */
(PID.TID 0000.0001)                   T
(PID.TID 0000.0001)     ;
(PID.TID 0000.0001) saltIsActiveTr = /* Salt  is a dynamically Active Tracer */
(PID.TID 0000.0001)                   T
(PID.TID 0000.0001)     ;
(PID.TID 0000.0001)  readBinaryPrec = /* Precision used for reading binary files */
(PID.TID 0000.0001)                      32
(PID.TID 0000.0001)     ;
(PID.TID 0000.0001) writeBinaryPrec = /* Precision used for writing binary files */
(PID.TID 0000.0001)                      32
(PID.TID 0000.0001)     ;
(PID.TID 0000.0001)  rwSuffixType =   /* select format of mds file suffix */
(PID.TID 0000.0001)                       0
(PID.TID 0000.0001)    = 0 : myIter (I10.10) ;   = 1 : 100*myTime (100th sec) ;
(PID.TID 0000.0001)    = 2 : myTime (seconds);   = 3 : myTime/360 (10th of hr);
(PID.TID 0000.0001)    = 4 : myTime/3600 (hours)
(PID.TID 0000.0001)     ;
(PID.TID 0000.0001)  globalFiles = /* write "global" (=not per tile) files */
(PID.TID 0000.0001)                   F
(PID.TID 0000.0001)     ;
(PID.TID 0000.0001)  useSingleCpuIO = /* only master MPI process does I/O */
(PID.TID 0000.0001)                   T
(PID.TID 0000.0001)     ;
(PID.TID 0000.0001)  useSingleCpuInput = /* only master process reads input */
(PID.TID 0000.0001)                   T
(PID.TID 0000.0001)     ;
(PID.TID 0000.0001) /* debLev[*]  : level of debug & auxiliary message printing */
(PID.TID 0000.0001) debLevZero =  0 ; /* level of disabled aux. msg printing */
(PID.TID 0000.0001)    debLevA =  1 ; /* level of minimum  aux. msg printing */
(PID.TID 0000.0001)    debLevB =  2 ; /* level of low aux. print (report read-file opening)*/
(PID.TID 0000.0001)    debLevC =  3 ; /* level of moderate debug prt (most pkgs debug msg) */
(PID.TID 0000.0001)    debLevD =  4 ; /* level of enhanced debug prt (add DEBUG_STATS prt) */
(PID.TID 0000.0001)    debLevE =  5 ; /* level of extensive debug printing */
(PID.TID 0000.0001) debugLevel =  /* select debug printing level */
(PID.TID 0000.0001)                       1
(PID.TID 0000.0001)     ;
(PID.TID 0000.0001)  plotLevel =  /* select PLOT_FIELD printing level */
(PID.TID 0000.0001)                       1
(PID.TID 0000.0001)     ;
(PID.TID 0000.0001) //
(PID.TID 0000.0001) // Elliptic solver(s) paramters ( PARM02 in namelist )
(PID.TID 0000.0001) //
(PID.TID 0000.0001) cg2dMaxIters =   /* Upper limit on 2d con. grad iterations  */
(PID.TID 0000.0001)                     300
(PID.TID 0000.0001)     ;
(PID.TID 0000.0001) cg2dChkResFreq =   /* 2d con. grad convergence test frequency */
(PID.TID 0000.0001)                       1
(PID.TID 0000.0001)     ;
(PID.TID 0000.0001) cg2dUseMinResSol= /* use cg2d last-iter(=0) / min-resid.(=1) solution */
(PID.TID 0000.0001)                       0
(PID.TID 0000.0001)     ;
(PID.TID 0000.0001) cg2dTargetResidual =   /* 2d con. grad target residual  */
(PID.TID 0000.0001)                 1.000000000000000E-07
(PID.TID 0000.0001)     ;
(PID.TID 0000.0001) cg2dTargetResWunit =   /* CG2d target residual [W units] */
(PID.TID 0000.0001)                -1.000000000000000E+00
(PID.TID 0000.0001)     ;
(PID.TID 0000.0001) cg2dPreCondFreq =   /* Freq. for updating cg2d preconditioner */
(PID.TID 0000.0001)                       1
(PID.TID 0000.0001)     ;
(PID.TID 0000.0001) useSRCGSolver =  /* use single reduction CG solver(s) */
(PID.TID 0000.0001)                   F
(PID.TID 0000.0001)     ;
(PID.TID 0000.0001) printResidualFreq = /* Freq. for printing CG residual */
(PID.TID 0000.0001)                       0
(PID.TID 0000.0001)     ;
(PID.TID 0000.0001) //
(PID.TID 0000.0001) // Time stepping paramters ( PARM03 in namelist )
(PID.TID 0000.0001) //
(PID.TID 0000.0001) deltaTMom =   /* Momentum equation timestep ( s ) */
(PID.TID 0000.0001)                 3.600000000000000E+03
(PID.TID 0000.0001)     ;
(PID.TID 0000.0001) deltaTFreeSurf = /* FreeSurface equation timestep ( s ) */
(PID.TID 0000.0001)                 3.600000000000000E+03
(PID.TID 0000.0001)     ;
(PID.TID 0000.0001) dTtracerLev =  /* Tracer equation timestep ( s ) */
(PID.TID 0000.0001)    50 @  3.600000000000000E+03              /* K =  1: 50 */
(PID.TID 0000.0001)     ;
(PID.TID 0000.0001) deltaTClock  =   /* Model clock timestep ( s ) */
(PID.TID 0000.0001)                 3.600000000000000E+03
(PID.TID 0000.0001)     ;
(PID.TID 0000.0001) cAdjFreq =   /* Convective adjustment interval ( s ) */
(PID.TID 0000.0001)                 0.000000000000000E+00
(PID.TID 0000.0001)     ;
(PID.TID 0000.0001) momForcingOutAB = /* =1: take Momentum Forcing out of Adams-Bash. stepping */
(PID.TID 0000.0001)                       1
(PID.TID 0000.0001)     ;
(PID.TID 0000.0001) tracForcingOutAB = /* =1: take T,S,pTr Forcing out of Adams-Bash. stepping */
(PID.TID 0000.0001)                       1
(PID.TID 0000.0001)     ;
(PID.TID 0000.0001) momDissip_In_AB = /* put Dissipation Tendency in Adams-Bash. stepping */
(PID.TID 0000.0001)                   F
(PID.TID 0000.0001)     ;
(PID.TID 0000.0001) doAB_onGtGs = /* apply AB on Tendencies (rather than on T,S)*/
(PID.TID 0000.0001)                   F
(PID.TID 0000.0001)     ;
(PID.TID 0000.0001) abEps =   /* Adams-Bashforth-2 stabilizing weight */
(PID.TID 0000.0001)                 1.000000000000000E-02
(PID.TID 0000.0001)     ;
(PID.TID 0000.0001) alph_AB =   /* Adams-Bashforth-3 primary factor */
(PID.TID 0000.0001)                 5.000000000000000E-01
(PID.TID 0000.0001)     ;
(PID.TID 0000.0001) beta_AB =   /* Adams-Bashforth-3 secondary factor */
(PID.TID 0000.0001)                 2.811050000000000E-01
(PID.TID 0000.0001)     ;
(PID.TID 0000.0001) startFromPickupAB2= /* start from AB-2 pickup */
(PID.TID 0000.0001)                   F
(PID.TID 0000.0001)     ;
(PID.TID 0000.0001) applyExchUV_early = /* Apply EXCH to U,V earlier in time-step */
(PID.TID 0000.0001)                   F
(PID.TID 0000.0001)     ;
(PID.TID 0000.0001) pickupStrictlyMatch= /* stop if pickup do not strictly match */
(PID.TID 0000.0001)                   F
(PID.TID 0000.0001)     ;
(PID.TID 0000.0001) nIter0   =   /* Run starting timestep number */
(PID.TID 0000.0001)                       1
(PID.TID 0000.0001)     ;
(PID.TID 0000.0001) nTimeSteps = /* Number of timesteps */
(PID.TID 0000.0001)                   13110
(PID.TID 0000.0001)     ;
(PID.TID 0000.0001) nEndIter =   /* Run ending timestep number */
(PID.TID 0000.0001)                   13111
(PID.TID 0000.0001)     ;
(PID.TID 0000.0001) baseTime =   /* Model base time ( s ) */
(PID.TID 0000.0001)                 0.000000000000000E+00
(PID.TID 0000.0001)     ;
(PID.TID 0000.0001) startTime =  /* Run start time ( s ) */
(PID.TID 0000.0001)                 3.600000000000000E+03
(PID.TID 0000.0001)     ;
(PID.TID 0000.0001) endTime  =   /* Integration ending time ( s ) */
(PID.TID 0000.0001)                 4.719960000000000E+07
(PID.TID 0000.0001)     ;
(PID.TID 0000.0001) pChkPtFreq = /* Permanent restart/pickup file interval ( s ) */
(PID.TID 0000.0001)                 3.153600000000000E+07
(PID.TID 0000.0001)     ;
(PID.TID 0000.0001) chkPtFreq  = /* Rolling restart/pickup file interval ( s ) */
(PID.TID 0000.0001)                 3.153600000000000E+07
(PID.TID 0000.0001)     ;
(PID.TID 0000.0001) pickup_write_mdsio =   /* Model IO flag. */
(PID.TID 0000.0001)                   T
(PID.TID 0000.0001)     ;
(PID.TID 0000.0001) pickup_read_mdsio =   /* Model IO flag. */
(PID.TID 0000.0001)                   T
(PID.TID 0000.0001)     ;
(PID.TID 0000.0001) writePickupAtEnd =   /* Model IO flag. */
(PID.TID 0000.0001)                   T
(PID.TID 0000.0001)     ;
(PID.TID 0000.0001) dumpFreq =   /* Model state write out interval ( s ). */
(PID.TID 0000.0001)                 0.000000000000000E+00
(PID.TID 0000.0001)     ;
(PID.TID 0000.0001) dumpInitAndLast= /* write out Initial & Last iter. model state */
(PID.TID 0000.0001)                   T
(PID.TID 0000.0001)     ;
(PID.TID 0000.0001) snapshot_mdsio =   /* Model IO flag. */
(PID.TID 0000.0001)                   T
(PID.TID 0000.0001)     ;
(PID.TID 0000.0001) monitorFreq =   /* Monitor output interval ( s ). */
(PID.TID 0000.0001)                 6.307200000000000E+06
(PID.TID 0000.0001)     ;
(PID.TID 0000.0001) monitorSelect = /* select group of variables to monitor */
(PID.TID 0000.0001)                       3
(PID.TID 0000.0001)     ;
(PID.TID 0000.0001) monitor_stdio =   /* Model IO flag. */
(PID.TID 0000.0001)                   T
(PID.TID 0000.0001)     ;
(PID.TID 0000.0001) externForcingPeriod =   /* forcing period (s) */
(PID.TID 0000.0001)                 0.000000000000000E+00
(PID.TID 0000.0001)     ;
(PID.TID 0000.0001) externForcingCycle =   /* period of the cyle (s). */
(PID.TID 0000.0001)                 0.000000000000000E+00
(PID.TID 0000.0001)     ;
(PID.TID 0000.0001) tauThetaClimRelax =   /* relaxation time scale (s) */
(PID.TID 0000.0001)                 0.000000000000000E+00
(PID.TID 0000.0001)     ;
(PID.TID 0000.0001) tauSaltClimRelax =   /* relaxation time scale (s) */
(PID.TID 0000.0001)                 0.000000000000000E+00
(PID.TID 0000.0001)     ;
(PID.TID 0000.0001) latBandClimRelax =   /* max. Lat. where relaxation */
(PID.TID 0000.0001)                 1.800000000000000E+02
(PID.TID 0000.0001)     ;
(PID.TID 0000.0001) //
(PID.TID 0000.0001) // Gridding paramters ( PARM04 in namelist )
(PID.TID 0000.0001) //
(PID.TID 0000.0001) usingCartesianGrid = /* Cartesian coordinates flag ( True/False ) */
(PID.TID 0000.0001)                   F
(PID.TID 0000.0001)     ;
(PID.TID 0000.0001) usingCylindricalGrid = /* Cylindrical coordinates flag ( True/False ) */
(PID.TID 0000.0001)                   F
(PID.TID 0000.0001)     ;
(PID.TID 0000.0001) usingSphericalPolarGrid = /* Spherical coordinates flag ( True/False ) */
(PID.TID 0000.0001)                   F
(PID.TID 0000.0001)     ;
(PID.TID 0000.0001) usingCurvilinearGrid = /* Curvilinear coordinates flag ( True/False ) */
(PID.TID 0000.0001)                   T
(PID.TID 0000.0001)     ;
(PID.TID 0000.0001) selectSigmaCoord = /* Hybrid-Sigma Vert. Coordinate option */
(PID.TID 0000.0001)                       0
(PID.TID 0000.0001)     ;
(PID.TID 0000.0001) rSigmaBnd = /* r/sigma transition ( units of r ==  m ) */
(PID.TID 0000.0001)                 1.234567000000000E+05
(PID.TID 0000.0001)     ;
(PID.TID 0000.0001) rkSign =   /* index orientation relative to vertical coordinate */
(PID.TID 0000.0001)                -1.000000000000000E+00
(PID.TID 0000.0001)     ;
(PID.TID 0000.0001) gravitySign = /* gravity orientation relative to vertical coordinate */
(PID.TID 0000.0001)                -1.000000000000000E+00
(PID.TID 0000.0001)     ;
(PID.TID 0000.0001) seaLev_Z =  /* reference height of sea-level [m] */
(PID.TID 0000.0001)                 0.000000000000000E+00
(PID.TID 0000.0001)     ;
(PID.TID 0000.0001) top_Pres =  /* reference pressure at the top [Pa] */
(PID.TID 0000.0001)                 0.000000000000000E+00
(PID.TID 0000.0001)     ;
(PID.TID 0000.0001) mass2rUnit = /* convert mass per unit area [kg/m2] to r-units [m] */
(PID.TID 0000.0001)                 9.718172983479105E-04
(PID.TID 0000.0001)     ;
(PID.TID 0000.0001) rUnit2mass = /* convert r-units [m] to mass per unit area [kg/m2] */
(PID.TID 0000.0001)                 1.029000000000000E+03
(PID.TID 0000.0001)     ;
(PID.TID 0000.0001) drC =   /* C spacing ( units of r ) */
(PID.TID 0000.0001)                 5.000000000000000E+00,      /* K =  1 */
(PID.TID 0000.0001)     6 @  1.000000000000000E+01,             /* K =  2:  7 */
(PID.TID 0000.0001)                 1.000500000000000E+01,      /* K =  8 */
(PID.TID 0000.0001)                 1.002000000000000E+01,      /* K =  9 */
(PID.TID 0000.0001)                 1.007000000000000E+01,      /* K = 10 */
(PID.TID 0000.0001)                 1.021500000000000E+01,      /* K = 11 */
(PID.TID 0000.0001)                 1.056000000000000E+01,      /* K = 12 */
(PID.TID 0000.0001)                 1.128000000000000E+01,      /* K = 13 */
(PID.TID 0000.0001)                 1.259000000000000E+01,      /* K = 14 */
(PID.TID 0000.0001)                 1.473000000000000E+01,      /* K = 15 */
(PID.TID 0000.0001)                 1.793000000000000E+01,      /* K = 16 */
(PID.TID 0000.0001)                 2.233500000000000E+01,      /* K = 17 */
(PID.TID 0000.0001)                 2.797500000000000E+01,      /* K = 18 */
(PID.TID 0000.0001)                 3.476000000000001E+01,      /* K = 19 */
(PID.TID 0000.0001)                 4.246000000000000E+01,      /* K = 20 */
(PID.TID 0000.0001)                 5.075000000000000E+01,      /* K = 21 */
(PID.TID 0000.0001)                 5.925000000000000E+01,      /* K = 22 */
(PID.TID 0000.0001)                 6.753999999999999E+01,      /* K = 23 */
(PID.TID 0000.0001)                 7.524000000000001E+01,      /* K = 24 */
(PID.TID 0000.0001)                 8.202500000000001E+01,      /* K = 25 */
(PID.TID 0000.0001)                 8.766500000000001E+01,      /* K = 26 */
(PID.TID 0000.0001)                 9.206999999999999E+01,      /* K = 27 */
(PID.TID 0000.0001)                 9.527000000000000E+01,      /* K = 28 */
(PID.TID 0000.0001)                 9.741499999999999E+01,      /* K = 29 */
(PID.TID 0000.0001)                 9.875000000000000E+01,      /* K = 30 */
(PID.TID 0000.0001)                 9.963000000000000E+01,      /* K = 31 */
(PID.TID 0000.0001)                 1.006700000000000E+02,      /* K = 32 */
(PID.TID 0000.0001)                 1.029450000000000E+02,      /* K = 33 */
(PID.TID 0000.0001)                 1.079450000000000E+02,      /* K = 34 */
(PID.TID 0000.0001)                 1.170800000000000E+02,      /* K = 35 */
(PID.TID 0000.0001)                 1.309600000000000E+02,      /* K = 36 */
(PID.TID 0000.0001)                 1.490150000000000E+02,      /* K = 37 */
(PID.TID 0000.0001)                 1.698850000000000E+02,      /* K = 38 */
(PID.TID 0000.0001)                 1.921900000000000E+02,      /* K = 39 */
(PID.TID 0000.0001)                 2.150250000000000E+02,      /* K = 40 */
(PID.TID 0000.0001)                 2.380000000000000E+02,      /* K = 41 */
(PID.TID 0000.0001)                 2.610000000000000E+02,      /* K = 42 */
(PID.TID 0000.0001)                 2.840000000000000E+02,      /* K = 43 */
(PID.TID 0000.0001)                 3.070000000000000E+02,      /* K = 44 */
(PID.TID 0000.0001)                 3.300000000000000E+02,      /* K = 45 */
(PID.TID 0000.0001)                 3.530000000000000E+02,      /* K = 46 */
(PID.TID 0000.0001)                 3.760000000000000E+02,      /* K = 47 */
(PID.TID 0000.0001)                 3.990000000000000E+02,      /* K = 48 */
(PID.TID 0000.0001)                 4.220000000000000E+02,      /* K = 49 */
(PID.TID 0000.0001)                 4.450000000000000E+02,      /* K = 50 */
(PID.TID 0000.0001)                 2.282500000000000E+02       /* K = 51 */
(PID.TID 0000.0001)     ;
(PID.TID 0000.0001) drF =   /* W spacing ( units of r ) */
(PID.TID 0000.0001)     7 @  1.000000000000000E+01,             /* K =  1:  7 */
(PID.TID 0000.0001)                 1.001000000000000E+01,      /* K =  8 */
(PID.TID 0000.0001)                 1.003000000000000E+01,      /* K =  9 */
(PID.TID 0000.0001)                 1.011000000000000E+01,      /* K = 10 */
(PID.TID 0000.0001)                 1.032000000000000E+01,      /* K = 11 */
(PID.TID 0000.0001)                 1.080000000000000E+01,      /* K = 12 */
(PID.TID 0000.0001)                 1.176000000000000E+01,      /* K = 13 */
(PID.TID 0000.0001)                 1.342000000000000E+01,      /* K = 14 */
(PID.TID 0000.0001)                 1.604000000000000E+01,      /* K = 15 */
(PID.TID 0000.0001)                 1.982000000000000E+01,      /* K = 16 */
(PID.TID 0000.0001)                 2.485000000000000E+01,      /* K = 17 */
(PID.TID 0000.0001)                 3.110000000000000E+01,      /* K = 18 */
(PID.TID 0000.0001)                 3.842000000000000E+01,      /* K = 19 */
(PID.TID 0000.0001)                 4.650000000000000E+01,      /* K = 20 */
(PID.TID 0000.0001)                 5.500000000000000E+01,      /* K = 21 */
(PID.TID 0000.0001)                 6.350000000000000E+01,      /* K = 22 */
(PID.TID 0000.0001)                 7.158000000000000E+01,      /* K = 23 */
(PID.TID 0000.0001)                 7.890000000000001E+01,      /* K = 24 */
(PID.TID 0000.0001)                 8.515000000000001E+01,      /* K = 25 */
(PID.TID 0000.0001)                 9.018000000000001E+01,      /* K = 26 */
(PID.TID 0000.0001)                 9.395999999999999E+01,      /* K = 27 */
(PID.TID 0000.0001)                 9.658000000000000E+01,      /* K = 28 */
(PID.TID 0000.0001)                 9.825000000000000E+01,      /* K = 29 */
(PID.TID 0000.0001)                 9.925000000000000E+01,      /* K = 30 */
(PID.TID 0000.0001)                 1.000100000000000E+02,      /* K = 31 */
(PID.TID 0000.0001)                 1.013300000000000E+02,      /* K = 32 */
(PID.TID 0000.0001)                 1.045600000000000E+02,      /* K = 33 */
(PID.TID 0000.0001)                 1.113300000000000E+02,      /* K = 34 */
(PID.TID 0000.0001)                 1.228300000000000E+02,      /* K = 35 */
(PID.TID 0000.0001)                 1.390900000000000E+02,      /* K = 36 */
(PID.TID 0000.0001)                 1.589400000000000E+02,      /* K = 37 */
(PID.TID 0000.0001)                 1.808300000000000E+02,      /* K = 38 */
(PID.TID 0000.0001)                 2.035500000000000E+02,      /* K = 39 */
(PID.TID 0000.0001)                 2.265000000000000E+02,      /* K = 40 */
(PID.TID 0000.0001)                 2.495000000000000E+02,      /* K = 41 */
(PID.TID 0000.0001)                 2.725000000000000E+02,      /* K = 42 */
(PID.TID 0000.0001)                 2.955000000000000E+02,      /* K = 43 */
(PID.TID 0000.0001)                 3.185000000000000E+02,      /* K = 44 */
(PID.TID 0000.0001)                 3.415000000000000E+02,      /* K = 45 */
(PID.TID 0000.0001)                 3.645000000000000E+02,      /* K = 46 */
(PID.TID 0000.0001)                 3.875000000000000E+02,      /* K = 47 */
(PID.TID 0000.0001)                 4.105000000000000E+02,      /* K = 48 */
(PID.TID 0000.0001)                 4.335000000000000E+02,      /* K = 49 */
(PID.TID 0000.0001)                 4.565000000000000E+02       /* K = 50 */
(PID.TID 0000.0001)     ;
(PID.TID 0000.0001) radius_fromHorizGrid = /* sphere Radius of input horiz. grid */
(PID.TID 0000.0001)                 6.370000000000000E+06
(PID.TID 0000.0001)     ;
(PID.TID 0000.0001) rSphere =  /* Radius ( ignored - cartesian, m - spherical ) */
(PID.TID 0000.0001)                 6.370000000000000E+06
(PID.TID 0000.0001)     ;
(PID.TID 0000.0001) deepAtmosphere = /* Deep/Shallow Atmosphere flag (True/False) */
(PID.TID 0000.0001)                   F
(PID.TID 0000.0001)     ;
(PID.TID 0000.0001) xC =  /* xC(:,1,:,1) : P-point X coord ( deg. or m if cartesian) */
(PID.TID 0000.0001)                -4.081468768806280E+01,      /* I =  1 */
(PID.TID 0000.0001)                -3.957104986057077E+01,      /* I =  2 */
(PID.TID 0000.0001)                -3.832217028656162E+01,      /* I =  3 */
(PID.TID 0000.0001)                -3.706844413107324E+01,      /* I =  4 */
(PID.TID 0000.0001)                -3.581028225779612E+01,      /* I =  5 */
(PID.TID 0000.0001)                -3.454811012006861E+01,      /* I =  6 */
(PID.TID 0000.0001)                -3.328236654497336E+01,      /* I =  7 */
(PID.TID 0000.0001)                -3.201350241727823E+01,      /* I =  8 */
(PID.TID 0000.0001)                -3.074197927113779E+01,      /* I =  9 */
(PID.TID 0000.0001)                -2.946826779826338E+01,      /* I = 10 */
(PID.TID 0000.0001)                -2.819284628214859E+01,      /* I = 11 */
(PID.TID 0000.0001)                -2.691619896217756E+01,      /* I = 12 */
(PID.TID 0000.0001)                -2.563881425705264E+01,      /* I = 13 */
(PID.TID 0000.0001)                -2.436118574294736E+01,      /* I = 14 */
(PID.TID 0000.0001)                -2.308380103782244E+01       /* I = 15 */
(PID.TID 0000.0001)     ;
(PID.TID 0000.0001) yC =  /* yC(1,:,1,:) : P-point Y coord ( deg. or m if cartesian) */
(PID.TID 0000.0001)                -8.146222940368236E+01,      /* J =  1 */
(PID.TID 0000.0001)                -8.113083815286421E+01,      /* J =  2 */
(PID.TID 0000.0001)                -8.079504828233755E+01,      /* J =  3 */
(PID.TID 0000.0001)                -8.045491317322768E+01,      /* J =  4 */
(PID.TID 0000.0001)                -8.011048280590389E+01,      /* J =  5 */
(PID.TID 0000.0001)                -7.976180430515704E+01,      /* J =  6 */
(PID.TID 0000.0001)                -7.940892240526760E+01,      /* J =  7 */
(PID.TID 0000.0001)                -7.905187984845006E+01,      /* J =  8 */
(PID.TID 0000.0001)                -7.869071772754813E+01,      /* J =  9 */
(PID.TID 0000.0001)                -7.832547578199167E+01,      /* J = 10 */
(PID.TID 0000.0001)                -7.795619265432416E+01,      /* J = 11 */
(PID.TID 0000.0001)                -7.758290611340497E+01,      /* J = 12 */
(PID.TID 0000.0001)                -7.720565324926896E+01,      /* J = 13 */
(PID.TID 0000.0001)                -7.682447064385434E+01,      /* J = 14 */
(PID.TID 0000.0001)                -7.643939452107085E+01       /* J = 15 */
(PID.TID 0000.0001)     ;
(PID.TID 0000.0001) rcoord = /* P-point R coordinate (  units of r ) */
(PID.TID 0000.0001)                -5.000000000000000E+00,      /* K =  1 */
(PID.TID 0000.0001)                -1.500000000000000E+01,      /* K =  2 */
(PID.TID 0000.0001)                -2.500000000000000E+01,      /* K =  3 */
(PID.TID 0000.0001)                -3.500000000000000E+01,      /* K =  4 */
(PID.TID 0000.0001)                -4.500000000000000E+01,      /* K =  5 */
(PID.TID 0000.0001)                -5.500000000000000E+01,      /* K =  6 */
(PID.TID 0000.0001)                -6.500000000000000E+01,      /* K =  7 */
(PID.TID 0000.0001)                -7.500500000000000E+01,      /* K =  8 */
(PID.TID 0000.0001)                -8.502499999999999E+01,      /* K =  9 */
(PID.TID 0000.0001)                -9.509500000000000E+01,      /* K = 10 */
(PID.TID 0000.0001)                -1.053100000000000E+02,      /* K = 11 */
(PID.TID 0000.0001)                -1.158700000000000E+02,      /* K = 12 */
(PID.TID 0000.0001)                -1.271500000000000E+02,      /* K = 13 */
(PID.TID 0000.0001)                -1.397400000000000E+02,      /* K = 14 */
(PID.TID 0000.0001)                -1.544700000000000E+02,      /* K = 15 */
(PID.TID 0000.0001)                -1.724000000000000E+02,      /* K = 16 */
(PID.TID 0000.0001)                -1.947350000000000E+02,      /* K = 17 */
(PID.TID 0000.0001)                -2.227100000000000E+02,      /* K = 18 */
(PID.TID 0000.0001)                -2.574700000000000E+02,      /* K = 19 */
(PID.TID 0000.0001)                -2.999300000000000E+02,      /* K = 20 */
(PID.TID 0000.0001)                -3.506800000000000E+02,      /* K = 21 */
(PID.TID 0000.0001)                -4.099300000000000E+02,      /* K = 22 */
(PID.TID 0000.0001)                -4.774700000000000E+02,      /* K = 23 */
(PID.TID 0000.0001)                -5.527100000000000E+02,      /* K = 24 */
(PID.TID 0000.0001)                -6.347350000000000E+02,      /* K = 25 */
(PID.TID 0000.0001)                -7.224000000000000E+02,      /* K = 26 */
(PID.TID 0000.0001)                -8.144700000000000E+02,      /* K = 27 */
(PID.TID 0000.0001)                -9.097400000000000E+02,      /* K = 28 */
(PID.TID 0000.0001)                -1.007155000000000E+03,      /* K = 29 */
(PID.TID 0000.0001)                -1.105905000000000E+03,      /* K = 30 */
(PID.TID 0000.0001)                -1.205535000000000E+03,      /* K = 31 */
(PID.TID 0000.0001)                -1.306205000000000E+03,      /* K = 32 */
(PID.TID 0000.0001)                -1.409150000000000E+03,      /* K = 33 */
(PID.TID 0000.0001)                -1.517095000000000E+03,      /* K = 34 */
(PID.TID 0000.0001)                -1.634175000000000E+03,      /* K = 35 */
(PID.TID 0000.0001)                -1.765135000000000E+03,      /* K = 36 */
(PID.TID 0000.0001)                -1.914150000000000E+03,      /* K = 37 */
(PID.TID 0000.0001)                -2.084035000000000E+03,      /* K = 38 */
(PID.TID 0000.0001)                -2.276225000000000E+03,      /* K = 39 */
(PID.TID 0000.0001)                -2.491250000000000E+03,      /* K = 40 */
(PID.TID 0000.0001)                -2.729250000000000E+03,      /* K = 41 */
(PID.TID 0000.0001)                -2.990250000000000E+03,      /* K = 42 */
(PID.TID 0000.0001)                -3.274250000000000E+03,      /* K = 43 */
(PID.TID 0000.0001)                -3.581250000000000E+03,      /* K = 44 */
(PID.TID 0000.0001)                -3.911250000000000E+03,      /* K = 45 */
(PID.TID 0000.0001)                -4.264250000000000E+03,      /* K = 46 */
(PID.TID 0000.0001)                -4.640250000000000E+03,      /* K = 47 */
(PID.TID 0000.0001)                -5.039250000000000E+03,      /* K = 48 */
(PID.TID 0000.0001)                -5.461250000000000E+03,      /* K = 49 */
(PID.TID 0000.0001)                -5.906250000000000E+03       /* K = 50 */
(PID.TID 0000.0001)     ;
(PID.TID 0000.0001) rF =   /* W-Interf. R coordinate (  units of r ) */
(PID.TID 0000.0001)                 0.000000000000000E+00,      /* K =  1 */
(PID.TID 0000.0001)                -1.000000000000000E+01,      /* K =  2 */
(PID.TID 0000.0001)                -2.000000000000000E+01,      /* K =  3 */
(PID.TID 0000.0001)                -3.000000000000000E+01,      /* K =  4 */
(PID.TID 0000.0001)                -4.000000000000000E+01,      /* K =  5 */
(PID.TID 0000.0001)                -5.000000000000000E+01,      /* K =  6 */
(PID.TID 0000.0001)                -6.000000000000000E+01,      /* K =  7 */
(PID.TID 0000.0001)                -7.000000000000000E+01,      /* K =  8 */
(PID.TID 0000.0001)                -8.001000000000001E+01,      /* K =  9 */
(PID.TID 0000.0001)                -9.004000000000001E+01,      /* K = 10 */
(PID.TID 0000.0001)                -1.001500000000000E+02,      /* K = 11 */
(PID.TID 0000.0001)                -1.104700000000000E+02,      /* K = 12 */
(PID.TID 0000.0001)                -1.212700000000000E+02,      /* K = 13 */
(PID.TID 0000.0001)                -1.330300000000000E+02,      /* K = 14 */
(PID.TID 0000.0001)                -1.464500000000000E+02,      /* K = 15 */
(PID.TID 0000.0001)                -1.624900000000000E+02,      /* K = 16 */
(PID.TID 0000.0001)                -1.823100000000000E+02,      /* K = 17 */
(PID.TID 0000.0001)                -2.071600000000000E+02,      /* K = 18 */
(PID.TID 0000.0001)                -2.382600000000000E+02,      /* K = 19 */
(PID.TID 0000.0001)                -2.766799999999999E+02,      /* K = 20 */
(PID.TID 0000.0001)                -3.231799999999999E+02,      /* K = 21 */
(PID.TID 0000.0001)                -3.781799999999999E+02,      /* K = 22 */
(PID.TID 0000.0001)                -4.416799999999999E+02,      /* K = 23 */
(PID.TID 0000.0001)                -5.132600000000000E+02,      /* K = 24 */
(PID.TID 0000.0001)                -5.921600000000000E+02,      /* K = 25 */
(PID.TID 0000.0001)                -6.773099999999999E+02,      /* K = 26 */
(PID.TID 0000.0001)                -7.674900000000000E+02,      /* K = 27 */
(PID.TID 0000.0001)                -8.614500000000000E+02,      /* K = 28 */
(PID.TID 0000.0001)                -9.580300000000001E+02,      /* K = 29 */
(PID.TID 0000.0001)                -1.056280000000000E+03,      /* K = 30 */
(PID.TID 0000.0001)                -1.155530000000000E+03,      /* K = 31 */
(PID.TID 0000.0001)                -1.255540000000000E+03,      /* K = 32 */
(PID.TID 0000.0001)                -1.356870000000000E+03,      /* K = 33 */
(PID.TID 0000.0001)                -1.461430000000000E+03,      /* K = 34 */
(PID.TID 0000.0001)                -1.572760000000000E+03,      /* K = 35 */
(PID.TID 0000.0001)                -1.695590000000000E+03,      /* K = 36 */
(PID.TID 0000.0001)                -1.834680000000000E+03,      /* K = 37 */
(PID.TID 0000.0001)                -1.993620000000000E+03,      /* K = 38 */
(PID.TID 0000.0001)                -2.174450000000000E+03,      /* K = 39 */
(PID.TID 0000.0001)                -2.378000000000000E+03,      /* K = 40 */
(PID.TID 0000.0001)                -2.604500000000000E+03,      /* K = 41 */
(PID.TID 0000.0001)                -2.854000000000000E+03,      /* K = 42 */
(PID.TID 0000.0001)                -3.126500000000000E+03,      /* K = 43 */
(PID.TID 0000.0001)                -3.422000000000000E+03,      /* K = 44 */
(PID.TID 0000.0001)                -3.740500000000000E+03,      /* K = 45 */
(PID.TID 0000.0001)                -4.082000000000000E+03,      /* K = 46 */
(PID.TID 0000.0001)                -4.446500000000000E+03,      /* K = 47 */
(PID.TID 0000.0001)                -4.834000000000000E+03,      /* K = 48 */
(PID.TID 0000.0001)                -5.244500000000000E+03,      /* K = 49 */
(PID.TID 0000.0001)                -5.678000000000000E+03,      /* K = 50 */
(PID.TID 0000.0001)                -6.134500000000000E+03       /* K = 51 */
(PID.TID 0000.0001)     ;
(PID.TID 0000.0001) deepFacC = /* deep-model grid factor @ cell-Center (-) */
(PID.TID 0000.0001)    50 @  1.000000000000000E+00              /* K =  1: 50 */
(PID.TID 0000.0001)     ;
(PID.TID 0000.0001) deepFacF = /* deep-model grid factor @ W-Interface (-) */
(PID.TID 0000.0001)    51 @  1.000000000000000E+00              /* K =  1: 51 */
(PID.TID 0000.0001)     ;
(PID.TID 0000.0001) rVel2wUnit = /* convert units: rVel -> wSpeed (=1 if z-coord)*/
(PID.TID 0000.0001)    51 @  1.000000000000000E+00              /* K =  1: 51 */
(PID.TID 0000.0001)     ;
(PID.TID 0000.0001) wUnit2rVel = /* convert units: wSpeed -> rVel (=1 if z-coord)*/
(PID.TID 0000.0001)    51 @  1.000000000000000E+00              /* K =  1: 51 */
(PID.TID 0000.0001)     ;
(PID.TID 0000.0001) dBdrRef = /* Vertical grad. of reference buoyancy [(m/s/r)^2] */
(PID.TID 0000.0001)     3 @  0.000000000000000E+00,             /* K =  1:  3 */
(PID.TID 0000.0001)                 2.706065538651213E-04,      /* K =  4 */
(PID.TID 0000.0001)     2 @  0.000000000000000E+00,             /* K =  5:  6 */
(PID.TID 0000.0001)                 2.632794562663490E-04,      /* K =  7 */
(PID.TID 0000.0001)                 2.554318021231947E-04,      /* K =  8 */
(PID.TID 0000.0001)                 0.000000000000000E+00,      /* K =  9 */
(PID.TID 0000.0001)                 2.461524232360562E-04,      /* K = 10 */
(PID.TID 0000.0001)                 2.348694431245364E-04,      /* K = 11 */
(PID.TID 0000.0001)                 0.000000000000000E+00,      /* K = 12 */
(PID.TID 0000.0001)                 2.056847859884567E-04,      /* K = 13 */
(PID.TID 0000.0001)                 1.777764506003336E-04,      /* K = 14 */
(PID.TID 0000.0001)                 0.000000000000000E+00,      /* K = 15 */
(PID.TID 0000.0001)                 1.203533867077665E-04,      /* K = 16 */
(PID.TID 0000.0001)                 9.288540355629585E-05,      /* K = 17 */
(PID.TID 0000.0001)                 7.115862770365155E-05,      /* K = 18 */
(PID.TID 0000.0001)                 5.484365820540037E-05,      /* K = 19 */
(PID.TID 0000.0001)                 4.290935507108109E-05,      /* K = 20 */
(PID.TID 0000.0001)                 6.658747741708151E-05,      /* K = 21 */
(PID.TID 0000.0001)                 0.000000000000000E+00,      /* K = 22 */
(PID.TID 0000.0001)                 2.323718420338827E-05,      /* K = 23 */
(PID.TID 0000.0001)                 1.974682037962757E-05,      /* K = 24 */
(PID.TID 0000.0001)                 1.709468932536602E-05,      /* K = 25 */
(PID.TID 0000.0001)                 0.000000000000000E+00,      /* K = 26 */
(PID.TID 0000.0001)                 1.455436545977052E-05,      /* K = 27 */
(PID.TID 0000.0001)                 0.000000000000000E+00,      /* K = 28 */
(PID.TID 0000.0001)                 1.315287111980149E-05,      /* K = 29 */
(PID.TID 0000.0001)     2 @  0.000000000000000E+00,             /* K = 30: 31 */
(PID.TID 0000.0001)                 1.240968507885233E-05,      /* K = 32 */
(PID.TID 0000.0001)     2 @  0.000000000000000E+00,             /* K = 33: 34 */
(PID.TID 0000.0001)                 1.045141607962718E-05,      /* K = 35 */
(PID.TID 0000.0001)     3 @  0.000000000000000E+00,             /* K = 36: 38 */
(PID.TID 0000.0001)                 6.628797113720784E-06,      /* K = 39 */
(PID.TID 0000.0001)    11 @  0.000000000000000E+00              /* K = 40: 50 */
(PID.TID 0000.0001)     ;
(PID.TID 0000.0001) rotateGrid = /* use rotated grid ( True/False ) */
(PID.TID 0000.0001)                   F
(PID.TID 0000.0001)     ;
(PID.TID 0000.0001) phiEuler = /* Euler angle, rotation about original z-coordinate [rad] */
(PID.TID 0000.0001)                 0.000000000000000E+00
(PID.TID 0000.0001)     ;
(PID.TID 0000.0001) thetaEuler = /* Euler angle, rotation about new x-coordinate [rad] */
(PID.TID 0000.0001)                 0.000000000000000E+00
(PID.TID 0000.0001)     ;
(PID.TID 0000.0001) psiEuler = /* Euler angle, rotation about new z-coordinate [rad] */
(PID.TID 0000.0001)                 0.000000000000000E+00
(PID.TID 0000.0001)     ;
(PID.TID 0000.0001) dxF =  /* dxF(:,1,:,1) ( units: m ) */
(PID.TID 0000.0001)                 2.071152825743187E+04,      /* I =  1 */
(PID.TID 0000.0001)                 2.070365142756831E+04,      /* I =  2 */
(PID.TID 0000.0001)                 2.069635296570141E+04,      /* I =  3 */
(PID.TID 0000.0001)                 2.068965358413176E+04,      /* I =  4 */
(PID.TID 0000.0001)                 2.068357195583360E+04,      /* I =  5 */
(PID.TID 0000.0001)                 2.067812475356784E+04,      /* I =  6 */
(PID.TID 0000.0001)                 2.067332670125947E+04,      /* I =  7 */
(PID.TID 0000.0001)                 2.066919060389092E+04,      /* I =  8 */
(PID.TID 0000.0001)                 2.066572738985245E+04,      /* I =  9 */
(PID.TID 0000.0001)                 2.066294615597989E+04,      /* I = 10 */
(PID.TID 0000.0001)                 2.066085425372315E+04,      /* I = 11 */
(PID.TID 0000.0001)                 2.065945771525925E+04,      /* I = 12 */
(PID.TID 0000.0001)                 2.065874381268158E+04,      /* I = 13 */
(PID.TID 0000.0001)                 2.065874381268158E+04,      /* I = 14 */
(PID.TID 0000.0001)                 2.065945771525925E+04       /* I = 15 */
(PID.TID 0000.0001)     ;
(PID.TID 0000.0001) dxF =  /* dxF(1,:,1,:) ( units: m ) */
(PID.TID 0000.0001)                 2.071152825743187E+04,      /* J =  1 */
(PID.TID 0000.0001)                 2.109117491456033E+04,      /* J =  2 */
(PID.TID 0000.0001)                 2.148525648961724E+04,      /* J =  3 */
(PID.TID 0000.0001)                 2.189377348588603E+04,      /* J =  4 */
(PID.TID 0000.0001)                 2.231672440915243E+04,      /* J =  5 */
(PID.TID 0000.0001)                 2.275410689480659E+04,      /* J =  6 */
(PID.TID 0000.0001)                 2.320591873318126E+04,      /* J =  7 */
(PID.TID 0000.0001)                 2.367215879054831E+04,      /* J =  8 */
(PID.TID 0000.0001)                 2.415282782538908E+04,      /* J =  9 */
(PID.TID 0000.0001)                 2.464792920101809E+04,      /* J = 10 */
(PID.TID 0000.0001)                 2.515746949702995E+04,      /* J = 11 */
(PID.TID 0000.0001)                 2.568145902315334E+04,      /* J = 12 */
(PID.TID 0000.0001)                 2.621991223981432E+04,      /* J = 13 */
(PID.TID 0000.0001)                 2.677284809033052E+04,      /* J = 14 */
(PID.TID 0000.0001)                 2.734029025013979E+04       /* J = 15 */
(PID.TID 0000.0001)     ;
(PID.TID 0000.0001) dyF =  /* dyF(:,1,:,1) ( units: m ) */
(PID.TID 0000.0001)                 3.700742300337598E+04,      /* I =  1 */
(PID.TID 0000.0001)                 3.707905556394973E+04,      /* I =  2 */
(PID.TID 0000.0001)                 3.714471828319018E+04,      /* I =  3 */
(PID.TID 0000.0001)                 3.720441078960103E+04,      /* I =  4 */
(PID.TID 0000.0001)                 3.725813297080282E+04,      /* I =  5 */
(PID.TID 0000.0001)                 3.730588490725751E+04,      /* I =  6 */
(PID.TID 0000.0001)                 3.734766681359038E+04,      /* I =  7 */
(PID.TID 0000.0001)                 3.738347898712025E+04,      /* I =  8 */
(PID.TID 0000.0001)                 3.741332176340629E+04,      /* I =  9 */
(PID.TID 0000.0001)                 3.743719547859261E+04,      /* I = 10 */
(PID.TID 0000.0001)                 3.745510043824806E+04,      /* I = 11 */
(PID.TID 0000.0001)                 3.746703689267323E+04,      /* I = 12 */
(PID.TID 0000.0001)     2 @  3.747300501832417E+04,             /* I = 13: 14 */
(PID.TID 0000.0001)                 3.746703689267323E+04       /* I = 15 */
(PID.TID 0000.0001)     ;
(PID.TID 0000.0001) dyF =  /* dyF(1,:,1,:) ( units: m ) */
(PID.TID 0000.0001)                 3.700742300337598E+04,      /* J =  1 */
(PID.TID 0000.0001)                 3.745555642044499E+04,      /* J =  2 */
(PID.TID 0000.0001)                 3.790206217653974E+04,      /* J =  3 */
(PID.TID 0000.0001)                 3.834684105117956E+04,      /* J =  4 */
(PID.TID 0000.0001)                 3.878979459357282E+04,      /* J =  5 */
(PID.TID 0000.0001)                 3.923082521328924E+04,      /* J =  6 */
(PID.TID 0000.0001)                 3.966983623246408E+04,      /* J =  7 */
(PID.TID 0000.0001)                 4.010673190475840E+04,      /* J =  8 */
(PID.TID 0000.0001)                 4.054141740950450E+04,      /* J =  9 */
(PID.TID 0000.0001)                 4.097379882434454E+04,      /* J = 10 */
(PID.TID 0000.0001)                 4.140378308084428E+04,      /* J = 11 */
(PID.TID 0000.0001)                 4.183127790875583E+04,      /* J = 12 */
(PID.TID 0000.0001)                 4.225619177206317E+04,      /* J = 13 */
(PID.TID 0000.0001)                 4.267843379867976E+04,      /* J = 14 */
(PID.TID 0000.0001)                 4.309791371221616E+04       /* J = 15 */
(PID.TID 0000.0001)     ;
(PID.TID 0000.0001) dxG =  /* dxG(:,1,:,1) ( units: m ) */
(PID.TID 0000.0001)                 2.052711702021451E+04,      /* I =  1 */
(PID.TID 0000.0001)                 2.051953983526162E+04,      /* I =  2 */
(PID.TID 0000.0001)                 2.051251425926268E+04,      /* I =  3 */
(PID.TID 0000.0001)                 2.050606148013825E+04,      /* I =  4 */
(PID.TID 0000.0001)                 2.050020059906299E+04,      /* I =  5 */
(PID.TID 0000.0001)                 2.049494867086169E+04,      /* I =  6 */
(PID.TID 0000.0001)                 2.049032075633103E+04,      /* I =  7 */
(PID.TID 0000.0001)                 2.048632995314923E+04,      /* I =  8 */
(PID.TID 0000.0001)                 2.048298743895549E+04,      /* I =  9 */
(PID.TID 0000.0001)                 2.048030251694177E+04,      /* I = 10 */
(PID.TID 0000.0001)                 2.047828270203973E+04,      /* I = 11 */
(PID.TID 0000.0001)                 2.047693414389448E+04,      /* I = 12 */
(PID.TID 0000.0001)     2 @  2.047624433858785E+04,             /* I = 13: 14 */
(PID.TID 0000.0001)                 2.047693414389443E+04       /* I = 15 */
(PID.TID 0000.0001)     ;
(PID.TID 0000.0001) dxG =  /* dxG(1,:,1,:) ( units: m ) */
(PID.TID 0000.0001)                 2.052711702021451E+04,      /* J =  1 */
(PID.TID 0000.0001)                 2.089954736357391E+04,      /* J =  2 */
(PID.TID 0000.0001)                 2.128641124518697E+04,      /* J =  3 */
(PID.TID 0000.0001)                 2.168771062037700E+04,      /* J =  4 */
(PID.TID 0000.0001)                 2.210344484655194E+04,      /* J =  5 */
(PID.TID 0000.0001)                 2.253361185972884E+04,      /* J =  6 */
(PID.TID 0000.0001)                 2.297820925105574E+04,      /* J =  7 */
(PID.TID 0000.0001)                 2.343723524028478E+04,      /* J =  8 */
(PID.TID 0000.0001)                 2.391068954427550E+04,      /* J =  9 */
(PID.TID 0000.0001)                 2.439857414125275E+04,      /* J = 10 */
(PID.TID 0000.0001)                 2.490089393241153E+04,      /* J = 11 */
(PID.TID 0000.0001)                 2.541765730414359E+04,      /* J = 12 */
(PID.TID 0000.0001)                 2.594887659459613E+04,      /* J = 13 */
(PID.TID 0000.0001)                 2.649456846940333E+04,      /* J = 14 */
(PID.TID 0000.0001)                 2.705475421181358E+04       /* J = 15 */
(PID.TID 0000.0001)     ;
(PID.TID 0000.0001) dyG =  /* dyG(:,1,:,1) ( units: m ) */
(PID.TID 0000.0001)                 3.696936823759973E+04,      /* I =  1 */
(PID.TID 0000.0001)                 3.704398547852144E+04,      /* I =  2 */
(PID.TID 0000.0001)                 3.711263318385338E+04,      /* I =  3 */
(PID.TID 0000.0001)                 3.717531082528212E+04,      /* I =  4 */
(PID.TID 0000.0001)                 3.723201816961422E+04,      /* I =  5 */
(PID.TID 0000.0001)                 3.728275520872145E+04,      /* I =  6 */
(PID.TID 0000.0001)                 3.732752209699158E+04,      /* I =  7 */
(PID.TID 0000.0001)                 3.736631909640826E+04,      /* I =  8 */
(PID.TID 0000.0001)                 3.739914652852553E+04,      /* I =  9 */
(PID.TID 0000.0001)                 3.742600473350589E+04,      /* I = 10 */
(PID.TID 0000.0001)                 3.744689403567852E+04,      /* I = 11 */
(PID.TID 0000.0001)                 3.746181471567877E+04,      /* I = 12 */
(PID.TID 0000.0001)                 3.747076698884368E+04,      /* I = 13 */
(PID.TID 0000.0001)                 3.747376174977726E+04,      /* I = 14 */
(PID.TID 0000.0001)                 3.747076698884368E+04       /* I = 15 */
(PID.TID 0000.0001)     ;
(PID.TID 0000.0001) dyG =  /* dyG(1,:,1,:) ( units: m ) */
(PID.TID 0000.0001)                 3.696936823759973E+04,      /* J =  1 */
(PID.TID 0000.0001)                 3.741746190559281E+04,      /* J =  2 */
(PID.TID 0000.0001)                 3.786390067184393E+04,      /* J =  3 */
(PID.TID 0000.0001)                 3.830858172733455E+04,      /* J =  4 */
(PID.TID 0000.0001)                 3.875140319955796E+04,      /* J =  5 */
(PID.TID 0000.0001)                 3.919226424948571E+04,      /* J =  6 */
(PID.TID 0000.0001)                 3.963106512715793E+04,      /* J =  7 */
(PID.TID 0000.0001)                 4.006770719102380E+04,      /* J =  8 */
(PID.TID 0000.0001)                 4.050209290047463E+04,      /* J =  9 */
(PID.TID 0000.0001)                 4.093412578484027E+04,      /* J = 10 */
(PID.TID 0000.0001)                 4.136371039407872E+04,      /* J = 11 */
(PID.TID 0000.0001)                 4.179075223673176E+04,      /* J = 12 */
(PID.TID 0000.0001)                 4.221515770920290E+04,      /* J = 13 */
(PID.TID 0000.0001)                 4.263683401805614E+04,      /* J = 14 */
(PID.TID 0000.0001)                 4.305568910412182E+04       /* J = 15 */
(PID.TID 0000.0001)     ;
(PID.TID 0000.0001) dxC =  /* dxC(:,1,:,1) ( units: m ) */
(PID.TID 0000.0001)                 2.071567651695695E+04,      /* I =  1 */
(PID.TID 0000.0001)                 2.070751892245589E+04,      /* I =  2 */
(PID.TID 0000.0001)                 2.069992855779408E+04,      /* I =  3 */
(PID.TID 0000.0001)                 2.069292717562287E+04,      /* I =  4 */
(PID.TID 0000.0001)                 2.068653446229046E+04,      /* I =  5 */
(PID.TID 0000.0001)                 2.068076808552306E+04,      /* I =  6 */
(PID.TID 0000.0001)                 2.067564373903614E+04,      /* I =  7 */
(PID.TID 0000.0001)                 2.067117518190149E+04,      /* I =  8 */
(PID.TID 0000.0001)                 2.066737427558298E+04,      /* I =  9 */
(PID.TID 0000.0001)                 2.066425102685107E+04,      /* I = 10 */
(PID.TID 0000.0001)                 2.066181364132844E+04,      /* I = 11 */
(PID.TID 0000.0001)                 2.066006869803818E+04,      /* I = 12 */
(PID.TID 0000.0001)                 2.065902266229015E+04,      /* I = 13 */
(PID.TID 0000.0001)                 2.065863826775786E+04,      /* I = 14 */
(PID.TID 0000.0001)                 2.065902266229016E+04       /* I = 15 */
(PID.TID 0000.0001)     ;
(PID.TID 0000.0001) dxC =  /* dxC(1,:,1,:) ( units: m ) */
(PID.TID 0000.0001)                 2.071567651695695E+04,      /* J =  1 */
(PID.TID 0000.0001)                 2.109563672137949E+04,      /* J =  2 */
(PID.TID 0000.0001)                 2.149002149497106E+04,      /* J =  3 */
(PID.TID 0000.0001)                 2.189882927482529E+04,      /* J =  4 */
(PID.TID 0000.0001)                 2.232205646389843E+04,      /* J =  5 */
(PID.TID 0000.0001)                 2.275969855854128E+04,      /* J =  6 */
(PID.TID 0000.0001)                 2.321175117362029E+04,      /* J =  7 */
(PID.TID 0000.0001)                 2.367821096276529E+04,      /* J =  8 */
(PID.TID 0000.0001)                 2.415907643347346E+04,      /* J =  9 */
(PID.TID 0000.0001)                 2.465434865814045E+04,      /* J = 10 */
(PID.TID 0000.0001)                 2.516403188365780E+04,      /* J = 11 */
(PID.TID 0000.0001)                 2.568813404310613E+04,      /* J = 12 */
(PID.TID 0000.0001)                 2.622666717399572E+04,      /* J = 13 */
(PID.TID 0000.0001)                 2.677964774799169E+04,      /* J = 14 */
(PID.TID 0000.0001)                 2.734709691757753E+04       /* J = 15 */
(PID.TID 0000.0001)     ;
(PID.TID 0000.0001) dyC =  /* dyC(:,1,:,1) ( units: m ) */
(PID.TID 0000.0001)                 3.678277710845771E+04,      /* I =  1 */
(PID.TID 0000.0001)                 3.685438685866048E+04,      /* I =  2 */
(PID.TID 0000.0001)                 3.692002588020908E+04,      /* I =  3 */
(PID.TID 0000.0001)                 3.697969453541307E+04,      /* I =  4 */
(PID.TID 0000.0001)                 3.703339337607873E+04,      /* I =  5 */
(PID.TID 0000.0001)                 3.708112307814123E+04,      /* I =  6 */
(PID.TID 0000.0001)                 3.712288438364359E+04,      /* I =  7 */
(PID.TID 0000.0001)                 3.715867804995441E+04,      /* I =  8 */
(PID.TID 0000.0001)                 3.718850480589901E+04,      /* I =  9 */
(PID.TID 0000.0001)                 3.721236531452968E+04,      /* I = 10 */
(PID.TID 0000.0001)                 3.723026014246432E+04,      /* I = 11 */
(PID.TID 0000.0001)                 3.724218973548726E+04,      /* I = 12 */
(PID.TID 0000.0001)     2 @  3.724815440020872E+04,             /* I = 13: 14 */
(PID.TID 0000.0001)                 3.724218973548726E+04       /* I = 15 */
(PID.TID 0000.0001)     ;
(PID.TID 0000.0001) dyC =  /* dyC(1,:,1,:) ( units: m ) */
(PID.TID 0000.0001)                 3.678277710845771E+04,      /* J =  1 */
(PID.TID 0000.0001)                 3.723168694115569E+04,      /* J =  2 */
(PID.TID 0000.0001)                 3.767901897410101E+04,      /* J =  3 */
(PID.TID 0000.0001)                 3.812467364657602E+04,      /* J =  4 */
(PID.TID 0000.0001)                 3.856855210935249E+04,      /* J =  5 */
(PID.TID 0000.0001)                 3.901055633269680E+04,      /* J =  6 */
(PID.TID 0000.0001)                 3.945058917911859E+04,      /* J =  7 */
(PID.TID 0000.0001)                 3.988855443472220E+04,      /* J =  8 */
(PID.TID 0000.0001)                 4.032435681898361E+04,      /* J =  9 */
(PID.TID 0000.0001)                 4.075790196435841E+04,      /* J = 10 */
(PID.TID 0000.0001)                 4.118909638222960E+04,      /* J = 11 */
(PID.TID 0000.0001)                 4.161784741043697E+04,      /* J = 12 */
(PID.TID 0000.0001)                 4.204406315499045E+04,      /* J = 13 */
(PID.TID 0000.0001)                 4.246765242091182E+04,      /* J = 14 */
(PID.TID 0000.0001)                 4.288852464034393E+04       /* J = 15 */
(PID.TID 0000.0001)     ;
(PID.TID 0000.0001) dxV =  /* dxV(:,1,:,1) ( units: m ) */
(PID.TID 0000.0001)                 2.053110526075532E+04,      /* I =  1 */
(PID.TID 0000.0001)                 2.052326088418283E+04,      /* I =  2 */
(PID.TID 0000.0001)                 2.051595672244828E+04,      /* I =  3 */
(PID.TID 0000.0001)                 2.050921502797681E+04,      /* I =  4 */
(PID.TID 0000.0001)                 2.050305593886370E+04,      /* I =  5 */
(PID.TID 0000.0001)                 2.049749752783181E+04,      /* I =  6 */
(PID.TID 0000.0001)                 2.049255584793284E+04,      /* I =  7 */
(PID.TID 0000.0001)                 2.048824497292525E+04,      /* I =  8 */
(PID.TID 0000.0001)                 2.048457703515834E+04,      /* I =  9 */
(PID.TID 0000.0001)                 2.048156226915133E+04,      /* I = 10 */
(PID.TID 0000.0001)                 2.047920906551970E+04,      /* I = 11 */
(PID.TID 0000.0001)                 2.047752414469434E+04,      /* I = 12 */
(PID.TID 0000.0001)                 2.047651405696554E+04,      /* I = 13 */
(PID.TID 0000.0001)                 2.047614194664622E+04,      /* I = 14 */
(PID.TID 0000.0001)                 2.047651405696559E+04       /* I = 15 */
(PID.TID 0000.0001)     ;
(PID.TID 0000.0001) dxV =  /* dxV(1,:,1,:) ( units: m ) */
(PID.TID 0000.0001)                 2.053110526075532E+04,      /* J =  1 */
(PID.TID 0000.0001)                 2.090385356266093E+04,      /* J =  2 */
(PID.TID 0000.0001)                 2.129102607314009E+04,      /* J =  3 */
(PID.TID 0000.0001)                 2.169262269996662E+04,      /* J =  4 */
(PID.TID 0000.0001)                 2.210864071595607E+04,      /* J =  5 */
(PID.TID 0000.0001)                 2.253907593617405E+04,      /* J =  6 */
(PID.TID 0000.0001)                 2.298392379458377E+04,      /* J =  7 */
(PID.TID 0000.0001)                 2.344318031700113E+04,      /* J =  8 */
(PID.TID 0000.0001)                 2.391684298864163E+04,      /* J =  9 */
(PID.TID 0000.0001)                 2.440491151699962E+04,      /* J = 10 */
(PID.TID 0000.0001)                 2.490738849171163E+04,      /* J = 11 */
(PID.TID 0000.0001)                 2.542427994477456E+04,      /* J = 12 */
(PID.TID 0000.0001)                 2.595559581485789E+04,      /* J = 13 */
(PID.TID 0000.0001)                 2.650135032062733E+04,      /* J = 14 */
(PID.TID 0000.0001)                 2.706156224833991E+04       /* J = 15 */
(PID.TID 0000.0001)     ;
(PID.TID 0000.0001) dyU =  /* dyU(:,1,:,1) ( units: m ) */
(PID.TID 0000.0001)                 3.674473316658630E+04,      /* I =  1 */
(PID.TID 0000.0001)                 3.681932833792822E+04,      /* I =  2 */
(PID.TID 0000.0001)                 3.688795269313092E+04,      /* I =  3 */
(PID.TID 0000.0001)                 3.695060647275718E+04,      /* I =  4 */
(PID.TID 0000.0001)                 3.700729014250917E+04,      /* I =  5 */
(PID.TID 0000.0001)                 3.705800432398131E+04,      /* I =  6 */
(PID.TID 0000.0001)                 3.710274973294064E+04,      /* I =  7 */
(PID.TID 0000.0001)                 3.714152712500728E+04,      /* I =  8 */
(PID.TID 0000.0001)                 3.717433724834998E+04,      /* I =  9 */
(PID.TID 0000.0001)                 3.720118080314009E+04,      /* I = 10 */
(PID.TID 0000.0001)                 3.722205840764935E+04,      /* I = 11 */
(PID.TID 0000.0001)                 3.723697057073888E+04,      /* I = 12 */
(PID.TID 0000.0001)                 3.724591767054543E+04,      /* I = 13 */
(PID.TID 0000.0001)                 3.724891083990022E+04,      /* I = 14 */
(PID.TID 0000.0001)                 3.724591767054542E+04       /* I = 15 */
(PID.TID 0000.0001)     ;
(PID.TID 0000.0001) dyU =  /* dyU(1,:,1,:) ( units: m ) */
(PID.TID 0000.0001)                 3.674473316658630E+04,      /* J =  1 */
(PID.TID 0000.0001)                 3.719361547538896E+04,      /* J =  2 */
(PID.TID 0000.0001)                 3.764089459751266E+04,      /* J =  3 */
(PID.TID 0000.0001)                 3.808646730382765E+04,      /* J =  4 */
(PID.TID 0000.0001)                 3.853023123895088E+04,      /* J =  5 */
(PID.TID 0000.0001)                 3.897208503739593E+04,      /* J =  6 */
(PID.TID 0000.0001)                 3.941192840112046E+04,      /* J =  7 */
(PID.TID 0000.0001)                 3.984966213263487E+04,      /* J =  8 */
(PID.TID 0000.0001)                 4.028518814419441E+04,      /* J =  9 */
(PID.TID 0000.0001)                 4.071840943468107E+04,      /* J = 10 */
(PID.TID 0000.0001)                 4.114923005120406E+04,      /* J = 11 */
(PID.TID 0000.0001)                 4.157755503103340E+04,      /* J = 12 */
(PID.TID 0000.0001)                 4.200329033666767E+04,      /* J = 13 */
(PID.TID 0000.0001)                 4.242634277960793E+04,      /* J = 14 */
(PID.TID 0000.0001)                 4.284661994092684E+04       /* J = 15 */
(PID.TID 0000.0001)     ;
(PID.TID 0000.0001) rA  =  /* rA (:,1,:,1) ( units: m^2 ) */
(PID.TID 0000.0001)                 7.665113621396177E+08,      /* I =  1 */
(PID.TID 0000.0001)                 7.677029697239892E+08,      /* I =  2 */
(PID.TID 0000.0001)                 7.687913877455838E+08,      /* I =  3 */
(PID.TID 0000.0001)                 7.697775979751738E+08,      /* I =  4 */
(PID.TID 0000.0001)                 7.706625466485583E+08,      /* I =  5 */
(PID.TID 0000.0001)                 7.714470546020026E+08,      /* I =  6 */
(PID.TID 0000.0001)                 7.721318586456149E+08,      /* I =  7 */
(PID.TID 0000.0001)                 7.727176271684608E+08,      /* I =  8 */
(PID.TID 0000.0001)                 7.732049082776864E+08,      /* I =  9 */
(PID.TID 0000.0001)                 7.735941717305043E+08,      /* I = 10 */
(PID.TID 0000.0001)                 7.738858051500469E+08,      /* I = 11 */
(PID.TID 0000.0001)                 7.740801100790358E+08,      /* I = 12 */
(PID.TID 0000.0001)                 7.741766386182301E+08,      /* I = 13 */
(PID.TID 0000.0001)                 7.741766369784317E+08,      /* I = 14 */
(PID.TID 0000.0001)                 7.740801094843833E+08       /* I = 15 */
(PID.TID 0000.0001)     ;
(PID.TID 0000.0001) rA  =  /* rA (1,:,1,:) ( units: m^2 ) */
(PID.TID 0000.0001)                 7.665113621396177E+08,      /* J =  1 */
(PID.TID 0000.0001)                 7.900134359449342E+08,      /* J =  2 */
(PID.TID 0000.0001)                 8.143679155417176E+08,      /* J =  3 */
(PID.TID 0000.0001)                 8.395900636155584E+08,      /* J =  4 */
(PID.TID 0000.0001)                 8.656947784023314E+08,      /* J =  5 */
(PID.TID 0000.0001)                 8.926966010402582E+08,      /* J =  6 */
(PID.TID 0000.0001)                 9.206097737377057E+08,      /* J =  7 */
(PID.TID 0000.0001)                 9.494482582794807E+08,      /* J =  8 */
(PID.TID 0000.0001)                 9.792257431806778E+08,      /* J =  9 */
(PID.TID 0000.0001)                 1.009955679131553E+09,      /* J = 10 */
(PID.TID 0000.0001)                 1.041651296044221E+09,      /* J = 11 */
(PID.TID 0000.0001)                 1.074325614369065E+09,      /* J = 12 */
(PID.TID 0000.0001)                 1.107991467925779E+09,      /* J = 13 */
(PID.TID 0000.0001)                 1.142661498173082E+09,      /* J = 14 */
(PID.TID 0000.0001)                 1.178348167164929E+09       /* J = 15 */
(PID.TID 0000.0001)     ;
(PID.TID 0000.0001) rAw =  /* rAw(:,1,:,1) ( units: m^2 ) */
(PID.TID 0000.0001)                 7.658765213139513E+08,      /* I =  1 */
(PID.TID 0000.0001)                 7.671201328724998E+08,      /* I =  2 */
(PID.TID 0000.0001)                 7.682600121490355E+08,      /* I =  3 */
(PID.TID 0000.0001)                 7.692972101823016E+08,      /* I =  4 */
(PID.TID 0000.0001)                 7.702326756407654E+08,      /* I =  5 */
(PID.TID 0000.0001)                 7.710673044850856E+08,      /* I =  6 */
(PID.TID 0000.0001)                 7.718018764844863E+08,      /* I =  7 */
(PID.TID 0000.0001)                 7.724370884091616E+08,      /* I =  8 */
(PID.TID 0000.0001)                 7.729735468223690E+08,      /* I =  9 */
(PID.TID 0000.0001)                 7.734117650170708E+08,      /* I = 10 */
(PID.TID 0000.0001)                 7.737521718456172E+08,      /* I = 11 */
(PID.TID 0000.0001)                 7.739951054308500E+08,      /* I = 12 */
(PID.TID 0000.0001)                 7.741408739107244E+08,      /* I = 13 */
(PID.TID 0000.0001)                 7.741880730050739E+08,      /* I = 14 */
(PID.TID 0000.0001)                 7.741408710636016E+08       /* I = 15 */
(PID.TID 0000.0001)     ;
(PID.TID 0000.0001) rAw =  /* rAw(1,:,1,:) ( units: m^2 ) */
(PID.TID 0000.0001)                 7.658765213139513E+08,      /* J =  1 */
(PID.TID 0000.0001)                 7.893768970448780E+08,      /* J =  2 */
(PID.TID 0000.0001)                 8.137283914516071E+08,      /* J =  3 */
(PID.TID 0000.0001)                 8.389460603348250E+08,      /* J =  4 */
(PID.TID 0000.0001)                 8.650445848102766E+08,      /* J =  5 */
(PID.TID 0000.0001)                 8.920382782103341E+08,      /* J =  6 */
(PID.TID 0000.0001)                 9.199411445401106E+08,      /* J =  7 */
(PID.TID 0000.0001)                 9.487668893433769E+08,      /* J =  8 */
(PID.TID 0000.0001)                 9.785289545527842E+08,      /* J =  9 */
(PID.TID 0000.0001)                 1.009240515336406E+09,      /* J = 10 */
(PID.TID 0000.0001)                 1.040914522930714E+09,      /* J = 11 */
(PID.TID 0000.0001)                 1.073563715488477E+09,      /* J = 12 */
(PID.TID 0000.0001)                 1.107200612276400E+09,      /* J = 13 */
(PID.TID 0000.0001)                 1.141837554111466E+09,      /* J = 14 */
(PID.TID 0000.0001)                 1.177486672294872E+09       /* J = 15 */
(PID.TID 0000.0001)     ;
(PID.TID 0000.0001) rAs =  /* rAs(:,1,:,1) ( units: m^2 ) */
(PID.TID 0000.0001)                 7.550751050606852E+08,      /* I =  1 */
(PID.TID 0000.0001)                 7.562658447772087E+08,      /* I =  2 */
(PID.TID 0000.0001)                 7.573533970032284E+08,      /* I =  3 */
(PID.TID 0000.0001)                 7.583387692957978E+08,      /* I =  4 */
(PID.TID 0000.0001)                 7.592229121974397E+08,      /* I =  5 */
(PID.TID 0000.0001)                 7.600066705467438E+08,      /* I =  6 */
(PID.TID 0000.0001)                 7.606907923080522E+08,      /* I =  7 */
(PID.TID 0000.0001)                 7.612759532224941E+08,      /* I =  8 */
(PID.TID 0000.0001)                 7.617627129118443E+08,      /* I =  9 */
(PID.TID 0000.0001)                 7.621515550445726E+08,      /* I = 10 */
(PID.TID 0000.0001)                 7.624428588466020E+08,      /* I = 11 */
(PID.TID 0000.0001)                 7.626369483673384E+08,      /* I = 12 */
(PID.TID 0000.0001)                 7.627333738515058E+08,      /* I = 13 */
(PID.TID 0000.0001)                 7.627333728604188E+08,      /* I = 14 */
(PID.TID 0000.0001)                 7.626369508901051E+08       /* I = 15 */
(PID.TID 0000.0001)     ;
(PID.TID 0000.0001) rAs =  /* rAs(1,:,1,:) ( units: m^2 ) */
(PID.TID 0000.0001)                 7.550751050606852E+08,      /* J =  1 */
(PID.TID 0000.0001)                 7.781568160584769E+08,      /* J =  2 */
(PID.TID 0000.0001)                 8.020831616625657E+08,      /* J =  3 */
(PID.TID 0000.0001)                 8.268695937660589E+08,      /* J =  4 */
(PID.TID 0000.0001)                 8.525311818286231E+08,      /* J =  5 */
(PID.TID 0000.0001)                 8.790826547724357E+08,      /* J =  6 */
(PID.TID 0000.0001)                 9.065383887828039E+08,      /* J =  7 */
(PID.TID 0000.0001)                 9.349124897125442E+08,      /* J =  8 */
(PID.TID 0000.0001)                 9.642187819277472E+08,      /* J =  9 */
(PID.TID 0000.0001)                 9.944708240750725E+08,      /* J = 10 */
(PID.TID 0000.0001)                 1.025681954725808E+09,      /* J = 11 */
(PID.TID 0000.0001)                 1.057865313008499E+09,      /* J = 12 */
(PID.TID 0000.0001)                 1.091033805921100E+09,      /* J = 13 */
(PID.TID 0000.0001)                 1.125200178247652E+09,      /* J = 14 */
(PID.TID 0000.0001)                 1.160376979600140E+09       /* J = 15 */
(PID.TID 0000.0001)     ;
(PID.TID 0000.0001) globalArea = /* Integrated horizontal Area (m^2) */
(PID.TID 0000.0001)                 3.580138611494433E+14
(PID.TID 0000.0001)     ;
(PID.TID 0000.0001) hasWetCSCorners = /* Domain contains CS corners (True/False) */
(PID.TID 0000.0001)                   F
(PID.TID 0000.0001)     ;
(PID.TID 0000.0001) // =======================================================
(PID.TID 0000.0001) // End of Model config. summary
(PID.TID 0000.0001) // =======================================================
(PID.TID 0000.0001) 
(PID.TID 0000.0001) == Packages configuration : Check & print summary ==
(PID.TID 0000.0001) 
(PID.TID 0000.0001) GGL90_CHECK: #define ALLOW_GGL90
(PID.TID 0000.0001) GGL90_CHECK: Some form of convection has been enabled
(PID.TID 0000.0001) GMREDI_CHECK: #define GMREDI
(PID.TID 0000.0001) GM_AdvForm =     /* if FALSE => use SkewFlux Form */
(PID.TID 0000.0001)                   T
(PID.TID 0000.0001)     ;
(PID.TID 0000.0001) GM_InMomAsStress = /* if TRUE => apply as Eddy Stress */
(PID.TID 0000.0001)                   F
(PID.TID 0000.0001)     ;
(PID.TID 0000.0001) GM_AdvSeparate = /* Calc Bolus & Euler Adv. separately */
(PID.TID 0000.0001)                   F
(PID.TID 0000.0001)     ;
(PID.TID 0000.0001) GM_ExtraDiag =   /* Tensor Extra Diag (line 1&2) non 0 */
(PID.TID 0000.0001)                   T
(PID.TID 0000.0001)     ;
(PID.TID 0000.0001) GM_isopycK =    /* Background Isopyc. Diffusivity [m^2/s] */
(PID.TID 0000.0001)                 1.000000000000000E+03
(PID.TID 0000.0001)     ;
(PID.TID 0000.0001) GM_skewflx*K =  /* Background GM_SkewFlx Diffusivity [m^2/s] */
(PID.TID 0000.0001)                 0.000000000000000E+00
(PID.TID 0000.0001)     ;
(PID.TID 0000.0001) GM_advec*K =    /* Backg. GM-Advec(=Bolus) Diffusivity [m^2/s]*/
(PID.TID 0000.0001)                 1.000000000000000E+03
(PID.TID 0000.0001)     ;
(PID.TID 0000.0001) GM_Kmin_horiz = /* Minimum Horizontal Diffusivity [m^2/s] */
(PID.TID 0000.0001)                 1.000000000000000E+02
(PID.TID 0000.0001)     ;
(PID.TID 0000.0001) GM_Visbeck_alpha = /* Visbeck alpha coeff. [-] */
(PID.TID 0000.0001)                 0.000000000000000E+00
(PID.TID 0000.0001)     ;
(PID.TID 0000.0001) GM_Small_Number =  /* epsilon used in slope calc */
(PID.TID 0000.0001)                 9.999999999999999E-21
(PID.TID 0000.0001)     ;
(PID.TID 0000.0001) GM_slopeSqCutoff = /* Slope^2 cut-off value */
(PID.TID 0000.0001)                 1.000000000000000E+08
(PID.TID 0000.0001)     ;
(PID.TID 0000.0001) GM_taper_scheme =  /* Type of Tapering/Clipping scheme */
(PID.TID 0000.0001)               'stableGmAdjTap                          '
(PID.TID 0000.0001)     ;
(PID.TID 0000.0001) GM_maxSlope =  /* Maximum Slope (Tapering/Clipping) */
(PID.TID 0000.0001)                 4.000000000000000E-03
(PID.TID 0000.0001)     ;
(PID.TID 0000.0001) GM_facTrL2dz = /* Minimum Trans.Layer Thick. (factor of dz) */
(PID.TID 0000.0001)                 1.000000000000000E+00
(PID.TID 0000.0001)     ;
(PID.TID 0000.0001) GM_facTrL2ML = /* Max.Trans.Layer Thick. (factor of MxL Depth)*/
(PID.TID 0000.0001)                 5.000000000000000E+00
(PID.TID 0000.0001)     ;
(PID.TID 0000.0001) GM_maxTransLay = /* Maximum Transition Layer Thickness [m] */
(PID.TID 0000.0001)                 5.000000000000000E+02
(PID.TID 0000.0001)     ;
(PID.TID 0000.0001) GM_UseBVP = /* if TRUE => use bvp a la Ferrari et al. (2010) */
(PID.TID 0000.0001)                   F
(PID.TID 0000.0001)     ;
(PID.TID 0000.0001) GM_BVP_ModeNumber = /* Vertical mode number for BVP wave speed */
(PID.TID 0000.0001)                       1
(PID.TID 0000.0001)     ;
(PID.TID 0000.0001) GM_BVP_cMin = /* Minimum wave speed for BVP [m/s] */
(PID.TID 0000.0001)                 1.000000000000000E-01
(PID.TID 0000.0001)     ;
(PID.TID 0000.0001) GM_useSubMeso = /* if TRUE => use Sub-Meso param. (B.Fox-Kemper) */
(PID.TID 0000.0001)                   F
(PID.TID 0000.0001)     ;
(PID.TID 0000.0001) subMeso_Ceff = /* efficiency coeff. of Mixed-Layer Eddies [-] */
(PID.TID 0000.0001)                 7.000000000000001E-02
(PID.TID 0000.0001)     ;
(PID.TID 0000.0001) subMeso_invTau = /* inverse of Sub-Meso mixing time-scale [/s] */
(PID.TID 0000.0001)                 2.000000000000000E-06
(PID.TID 0000.0001)     ;
(PID.TID 0000.0001) subMeso_LfMin = /* minimum length-scale "Lf" [m] */
(PID.TID 0000.0001)                 1.000000000000000E+03
(PID.TID 0000.0001)     ;
(PID.TID 0000.0001) subMeso_Lmax = /* maximum grid-scale length [m] */
(PID.TID 0000.0001)                 1.100000000000000E+05
(PID.TID 0000.0001)     ;
(PID.TID 0000.0001) EXF_CHECK: #define ALLOW_EXF
(PID.TID 0000.0001) SEAICE_CHECK: #define ALLOW_SEAICE
(PID.TID 0000.0001) SALT_PLUME_CHECK: #define SALT_PLUME
(PID.TID 0000.0001) CTRL_CHECK: #define ALLOW_CTRL
(PID.TID 0000.0001) COST_CHECK: #define ALLOW_COST
(PID.TID 0000.0001) SBO_CHECK: #define ALLOW_SBO
(PID.TID 0000.0001) etaday defined by gencost  28
(PID.TID 0000.0001) GAD_CHECK: #define ALLOW_GENERIC_ADVDIFF
(PID.TID 0000.0001) // =======================================================
(PID.TID 0000.0001) // Check Model config. (CONFIG_CHECK):
(PID.TID 0000.0001) // CONFIG_CHECK : Normal End
(PID.TID 0000.0001) // =======================================================
(PID.TID 0000.0001) 
(PID.TID 0000.0001)  nRecords = 403 ; filePrec =  64 ; fileIter =    192840
(PID.TID 0000.0001)     nDims =   2 , dims:
(PID.TID 0000.0001)    1:  90   1  90
(PID.TID 0000.0001)    2:1170   11170
(PID.TID 0000.0001)     nFlds =  11 , nFl3D =   8 , fields:
(PID.TID 0000.0001)  >Uvel    < >Vvel    < >Theta   < >Salt    < >GuNm1   < >GuNm2   < >GvNm1   < >GvNm2   < >EtaN    < >dEtaHdt < >EtaH    <
(PID.TID 0000.0001) missingVal=  1.00000000000000E+00 ; nTimRec =   1 , timeList:
(PID.TID 0000.0001)   6.942240000000E+08
(PID.TID 0000.0001) READ_MFLDS_3D_RL: read field: "Uvel    ", #   1 in fldList, rec=   1
(PID.TID 0000.0001) READ_MFLDS_3D_RL: read field: "Vvel    ", #   2 in fldList, rec=   2
(PID.TID 0000.0001) READ_MFLDS_3D_RL: read field: "Theta   ", #   3 in fldList, rec=   3
(PID.TID 0000.0001) READ_MFLDS_3D_RL: read field: "Salt    ", #   4 in fldList, rec=   4
(PID.TID 0000.0001) READ_MFLDS_3D_RL: read field: "GuNm1   ", #   5 in fldList, rec=   5
(PID.TID 0000.0001) READ_MFLDS_3D_RL: read field: "GuNm2   ", #   6 in fldList, rec=   6
(PID.TID 0000.0001) READ_MFLDS_3D_RL: read field: "GvNm1   ", #   7 in fldList, rec=   7
(PID.TID 0000.0001) READ_MFLDS_3D_RL: read field: "GvNm2   ", #   8 in fldList, rec=   8
(PID.TID 0000.0001) READ_MFLDS_3D_RL: read field: "EtaN    ", #   9 in fldList, rec= 401
(PID.TID 0000.0001) READ_MFLDS_3D_RL: read field: "dEtaHdt ", #  10 in fldList, rec= 402
(PID.TID 0000.0001) READ_MFLDS_3D_RL: read field: "EtaH    ", #  11 in fldList, rec= 403
(PID.TID 0000.0001) READ_MFLDS_CHECK: - normal end ; reset MFLDS file-name: pickup.0000000001
(PID.TID 0000.0001)  nRecords =   6 ; filePrec =  64 ; fileIter =    192840
(PID.TID 0000.0001)     nDims =   2 , dims:
(PID.TID 0000.0001)    1:  90   1  90
(PID.TID 0000.0001)    2:1170   11170
(PID.TID 0000.0001)     nFlds =   6 , nFl3D =   0 , fields:
(PID.TID 0000.0001)  >siTICE  < >siAREA  < >siHEFF  < >siHSNOW < >siUICE  < >siVICE  <
(PID.TID 0000.0001) missingVal=  1.00000000000000E+00 ; nTimRec =   1 , timeList:
(PID.TID 0000.0001)   6.942240000000E+08
(PID.TID 0000.0001) READ_MFLDS_LEV_RL: read field: "siTICE  ", #   1 in fldList, rec=   1
(PID.TID 0000.0001) READ_MFLDS_3D_RL: read field: "siAREA  ", #   2 in fldList, rec=   2
(PID.TID 0000.0001) READ_MFLDS_3D_RL: read field: "siHEFF  ", #   3 in fldList, rec=   3
(PID.TID 0000.0001) READ_MFLDS_3D_RL: read field: "siHSNOW ", #   4 in fldList, rec=   4
(PID.TID 0000.0001) READ_MFLDS_3D_RL: read field: "siUICE  ", #   5 in fldList, rec=   5
(PID.TID 0000.0001) READ_MFLDS_3D_RL: read field: "siVICE  ", #   6 in fldList, rec=   6
(PID.TID 0000.0001) READ_MFLDS_CHECK: - normal end ; reset MFLDS file-name: pickup_seaice.0000000001
(PID.TID 0000.0001)  ploadbar=  0.00000000000000E+00
(PID.TID 0000.0001) // =======================================================
(PID.TID 0000.0001) // Model current state
(PID.TID 0000.0001) // =======================================================
(PID.TID 0000.0001) 
(PID.TID 0000.0001) %SBO sbo_mass                     =   1.3737561299994E+21
(PID.TID 0000.0001) %SBO sbo_mass_fw                  =   4.3314628858997E+16
(PID.TID 0000.0001) %SBO sbo_zoamc                    =   1.1712417272784E+25
(PID.TID 0000.0001) %SBO sbo_zoamp                    =   2.9265929808780E+30
(PID.TID 0000.0001) whio : create lev 3 rec 221
(PID.TID 0000.0001) whio : create lev 2 rec 221
(PID.TID 0000.0001) SOLVE_FOR_PRESSURE: putPmEinXvector =    F
 cg2d: Sum(rhs),rhsMax =  -6.36418136799310E+01  2.27123055630609E+00
(PID.TID 0000.0001)  ploadbar=  1.01009886745450E+05
 cg2d: Sum(rhs),rhsMax =  -6.34999103219464E+01  2.27499183192977E+00
(PID.TID 0000.0001)  ploadbar=  1.01010710563278E+05
 cg2d: Sum(rhs),rhsMax =  -6.36248546316169E+01  2.26919831159881E+00
(PID.TID 0000.0001)  ploadbar=  1.01011534381107E+05
 cg2d: Sum(rhs),rhsMax =  -6.39432042870327E+01  2.25670151587528E+00
(PID.TID 0000.0001)  ploadbar=  1.01012424565966E+05
 cg2d: Sum(rhs),rhsMax =  -6.44794531250777E+01  2.23680164386933E+00
(PID.TID 0000.0001)  ploadbar=  1.01013314750826E+05
 cg2d: Sum(rhs),rhsMax =  -6.52240460772924E+01  2.21018610698360E+00
(PID.TID 0000.0001)  ploadbar=  1.01014204935686E+05
 cg2d: Sum(rhs),rhsMax =  -6.61144025226007E+01  2.17938330479077E+00
(PID.TID 0000.0001)  ploadbar=  1.01015095120545E+05
 cg2d: Sum(rhs),rhsMax =  -6.70596652052229E+01  2.14765907082676E+00
(PID.TID 0000.0001)  ploadbar=  1.01015985305405E+05
 cg2d: Sum(rhs),rhsMax =  -6.79598022747521E+01  2.11824052148524E+00
(PID.TID 0000.0001)  ploadbar=  1.01016875490264E+05
 cg2d: Sum(rhs),rhsMax =  -6.87500722513716E+01  2.09288023487462E+00
(PID.TID 0000.0001)  ploadbar=  1.01017559921981E+05
 cg2d: Sum(rhs),rhsMax =  -6.94205327053791E+01  2.07160019255453E+00
(PID.TID 0000.0001)  ploadbar=  1.01018244353699E+05
 cg2d: Sum(rhs),rhsMax =  -6.99938232598753E+01  2.05350162761702E+00
(PID.TID 0000.0001)  ploadbar=  1.01018928785416E+05
 cg2d: Sum(rhs),rhsMax =  -7.05736107656516E+01  2.03543317571884E+00
(PID.TID 0000.0001)  ploadbar=  1.01019613217134E+05
 cg2d: Sum(rhs),rhsMax =  -7.12160226730489E+01  2.01580698476498E+00
(PID.TID 0000.0001)  ploadbar=  1.01020297648851E+05
 cg2d: Sum(rhs),rhsMax =  -7.15930294704734E+01  2.00385120711691E+00
(PID.TID 0000.0001)  ploadbar=  1.01020982080568E+05
 cg2d: Sum(rhs),rhsMax =  -7.17260044003410E+01  1.99889051805018E+00
(PID.TID 0000.0001)  ploadbar=  1.01020515482134E+05
 cg2d: Sum(rhs),rhsMax =  -7.18283997172019E+01  1.99488354556916E+00
(PID.TID 0000.0001)  ploadbar=  1.01020048883700E+05
 cg2d: Sum(rhs),rhsMax =  -7.21141649635523E+01  1.98591018980727E+00
(PID.TID 0000.0001)  ploadbar=  1.01019582285266E+05
 cg2d: Sum(rhs),rhsMax =  -7.25663081836226E+01  1.97255329784031E+00
(PID.TID 0000.0001)  ploadbar=  1.01019115686832E+05
 cg2d: Sum(rhs),rhsMax =  -7.31295820088466E+01  1.95645631828372E+00
(PID.TID 0000.0001)  ploadbar=  1.01018649088398E+05
 cg2d: Sum(rhs),rhsMax =  -7.37273540089426E+01  1.93975928554421E+00
(PID.TID 0000.0001)  ploadbar=  1.01018182489963E+05
 cg2d: Sum(rhs),rhsMax =  -7.42177530809282E+01  1.92612099688359E+00
(PID.TID 0000.0001)  ploadbar=  1.01017897262275E+05
 cg2d: Sum(rhs),rhsMax =  -7.48480036513199E+01  1.90908545725091E+00
(PID.TID 0000.0001)  ploadbar=  1.01017612034587E+05
 cg2d: Sum(rhs),rhsMax =  -7.53682219915409E+01  1.89509106075387E+00
(PID.TID 0000.0001)  ploadbar=  1.01017326806899E+05
 cg2d: Sum(rhs),rhsMax =  -7.58002772195095E+01  1.88347397173917E+00
(PID.TID 0000.0001)  ploadbar=  1.01017041579210E+05
 cg2d: Sum(rhs),rhsMax =  -7.62696120108383E+01  1.87108510256785E+00
(PID.TID 0000.0001)  ploadbar=  1.01016756351522E+05
 cg2d: Sum(rhs),rhsMax =  -7.68353647624094E+01  1.85652831291688E+00
(PID.TID 0000.0001)  ploadbar=  1.01016471123834E+05
 cg2d: Sum(rhs),rhsMax =  -7.74957993410169E+01  1.83997954054098E+00
(PID.TID 0000.0001)  ploadbar=  1.01015226684405E+05
 cg2d: Sum(rhs),rhsMax =  -7.82328625850864E+01  1.82195294976272E+00
(PID.TID 0000.0001)  ploadbar=  1.01013982244976E+05
 cg2d: Sum(rhs),rhsMax =  -7.90233724122665E+01  1.80306730689780E+00
(PID.TID 0000.0001)  ploadbar=  1.01012737805547E+05
 cg2d: Sum(rhs),rhsMax =  -7.98400652827707E+01  1.78399355106947E+00
(PID.TID 0000.0001)  ploadbar=  1.01011493366117E+05
 cg2d: Sum(rhs),rhsMax =  -8.06461026507689E+01  1.76556340723654E+00
(PID.TID 0000.0001)  ploadbar=  1.01010248926688E+05
 cg2d: Sum(rhs),rhsMax =  -8.14173739055353E+01  1.74826964550420E+00
(PID.TID 0000.0001)  ploadbar=  1.01009004487259E+05
 cg2d: Sum(rhs),rhsMax =  -8.21270971606715E+01  1.73257322572296E+00
(PID.TID 0000.0001)  ploadbar=  1.01008451653189E+05
 cg2d: Sum(rhs),rhsMax =  -8.22984616805090E+01  1.72834515661573E+00
(PID.TID 0000.0001)  ploadbar=  1.01007898819118E+05
 cg2d: Sum(rhs),rhsMax =  -8.22558254660997E+01  1.72858237081111E+00
(PID.TID 0000.0001)  ploadbar=  1.01007345985047E+05
 cg2d: Sum(rhs),rhsMax =  -8.22066560329912E+01  1.72891706863308E+00
(PID.TID 0000.0001)  ploadbar=  1.01006793150977E+05
 cg2d: Sum(rhs),rhsMax =  -8.21445996785704E+01  1.72948011882794E+00
(PID.TID 0000.0001)  ploadbar=  1.01006240316906E+05
 cg2d: Sum(rhs),rhsMax =  -8.20623126358005E+01  1.73042333841908E+00
(PID.TID 0000.0001)  ploadbar=  1.01005687482836E+05
 cg2d: Sum(rhs),rhsMax =  -8.19225260844785E+01  1.73263774892169E+00
(PID.TID 0000.0001)  ploadbar=  1.01003949274458E+05
 cg2d: Sum(rhs),rhsMax =  -8.17516792465317E+01  1.73556701336305E+00
(PID.TID 0000.0001)  ploadbar=  1.01002211066080E+05
 cg2d: Sum(rhs),rhsMax =  -8.15602886123391E+01  1.73899169002480E+00
(PID.TID 0000.0001)  ploadbar=  1.01000472857703E+05
 cg2d: Sum(rhs),rhsMax =  -8.13718257868777E+01  1.74241015672508E+00
(PID.TID 0000.0001)  ploadbar=  1.00998734649325E+05
 cg2d: Sum(rhs),rhsMax =  -8.12172280297182E+01  1.74515778730705E+00
(PID.TID 0000.0001)  ploadbar=  1.00996996440947E+05
 cg2d: Sum(rhs),rhsMax =  -8.11334034453215E+01  1.74642457790801E+00
(PID.TID 0000.0001)  ploadbar=  1.00995258232570E+05
 cg2d: Sum(rhs),rhsMax =  -8.11143449443427E+01  1.74631053102283E+00
(PID.TID 0000.0001)  ploadbar=  1.00995220295049E+05
 cg2d: Sum(rhs),rhsMax =  -8.11477317000177E+01  1.74506982108450E+00
(PID.TID 0000.0001)  ploadbar=  1.00995182357528E+05
 cg2d: Sum(rhs),rhsMax =  -8.12168568341915E+01  1.74306269792858E+00
(PID.TID 0000.0001)  ploadbar=  1.00995144420007E+05
 cg2d: Sum(rhs),rhsMax =  -8.13077187819518E+01  1.74059320372407E+00
(PID.TID 0000.0001)  ploadbar=  1.00995106482486E+05
 cg2d: Sum(rhs),rhsMax =  -8.14176763486238E+01  1.73772192127131E+00
(PID.TID 0000.0001)  ploadbar=  1.00995068544965E+05
 cg2d: Sum(rhs),rhsMax =  -8.15599295330629E+01  1.73417410987702E+00
(PID.TID 0000.0001)  ploadbar=  1.00995030607444E+05
 cg2d: Sum(rhs),rhsMax =  -8.16978566422927E+01  1.73074392855654E+00
(PID.TID 0000.0001)  ploadbar=  1.00995217602907E+05
 cg2d: Sum(rhs),rhsMax =  -8.18157147594885E+01  1.72775153799242E+00
(PID.TID 0000.0001)  ploadbar=  1.00995404598371E+05
 cg2d: Sum(rhs),rhsMax =  -8.19015729688048E+01  1.72544011850731E+00
(PID.TID 0000.0001)  ploadbar=  1.00995591593835E+05
 cg2d: Sum(rhs),rhsMax =  -8.19722567139010E+01  1.72344979788432E+00
(PID.TID 0000.0001)  ploadbar=  1.00995778589299E+05
 cg2d: Sum(rhs),rhsMax =  -8.20417065138688E+01  1.72148731773328E+00
(PID.TID 0000.0001)  ploadbar=  1.00995965584763E+05
 cg2d: Sum(rhs),rhsMax =  -8.21202746360746E+01  1.71933592236701E+00
(PID.TID 0000.0001)  ploadbar=  1.00996152580227E+05
 cg2d: Sum(rhs),rhsMax =  -8.21749007200579E+01  1.71765710772141E+00
(PID.TID 0000.0001)  ploadbar=  1.00996796836576E+05
 cg2d: Sum(rhs),rhsMax =  -8.19502870508549E+01  1.72178940581326E+00
(PID.TID 0000.0001)  ploadbar=  1.00997441092926E+05
 cg2d: Sum(rhs),rhsMax =  -8.17251352666639E+01  1.72591280859654E+00
(PID.TID 0000.0001)  ploadbar=  1.00998085349276E+05
 cg2d: Sum(rhs),rhsMax =  -8.15523435020653E+01  1.72890479177178E+00
(PID.TID 0000.0001)  ploadbar=  1.00998729605625E+05
 cg2d: Sum(rhs),rhsMax =  -8.14343160572345E+01  1.73070189386878E+00
(PID.TID 0000.0001)  ploadbar=  1.00999373861975E+05
 cg2d: Sum(rhs),rhsMax =  -8.13606818737860E+01  1.73151138492701E+00
(PID.TID 0000.0001)  ploadbar=  1.01000018118325E+05
 cg2d: Sum(rhs),rhsMax =  -8.12631320162993E+01  1.73286080059778E+00
(PID.TID 0000.0001)  ploadbar=  1.01000113562829E+05
 cg2d: Sum(rhs),rhsMax =  -8.11768098391215E+01  1.73399651771032E+00
(PID.TID 0000.0001)  ploadbar=  1.01000209007333E+05
 cg2d: Sum(rhs),rhsMax =  -8.10927707193262E+01  1.73510599872581E+00
(PID.TID 0000.0001)  ploadbar=  1.01000304451836E+05
 cg2d: Sum(rhs),rhsMax =  -8.10061578799271E+01  1.73629018050401E+00
(PID.TID 0000.0001)  ploadbar=  1.01000399896340E+05
 cg2d: Sum(rhs),rhsMax =  -8.09160496037099E+01  1.73756938652611E+00
(PID.TID 0000.0001)  ploadbar=  1.01000495340844E+05
 cg2d: Sum(rhs),rhsMax =  -8.08274062285421E+01  1.73882759772277E+00
(PID.TID 0000.0001)  ploadbar=  1.01000590785348E+05
 cg2d: Sum(rhs),rhsMax =  -8.07359188161851E+01  1.74018378889573E+00
(PID.TID 0000.0001)  ploadbar=  1.01001617682849E+05
 cg2d: Sum(rhs),rhsMax =  -8.04362789033258E+01  1.74607949392346E+00
(PID.TID 0000.0001)  ploadbar=  1.01002644580350E+05
 cg2d: Sum(rhs),rhsMax =  -8.01006933168862E+01  1.75283329998039E+00
(PID.TID 0000.0001)  ploadbar=  1.01003671477851E+05
 cg2d: Sum(rhs),rhsMax =  -7.97797456881502E+01  1.75934728718011E+00
(PID.TID 0000.0001)  ploadbar=  1.01004698375351E+05
 cg2d: Sum(rhs),rhsMax =  -7.94756731385475E+01  1.76556046403854E+00
(PID.TID 0000.0001)  ploadbar=  1.01005725272852E+05
 cg2d: Sum(rhs),rhsMax =  -7.91905629299599E+01  1.77141688952073E+00
(PID.TID 0000.0001)  ploadbar=  1.01006752170353E+05
 cg2d: Sum(rhs),rhsMax =  -7.89699085018354E+01  1.77589762113609E+00
(PID.TID 0000.0001)  ploadbar=  1.01007648246475E+05
 cg2d: Sum(rhs),rhsMax =  -7.89930000767260E+01  1.77492986221794E+00
(PID.TID 0000.0001)  ploadbar=  1.01008544322596E+05
 cg2d: Sum(rhs),rhsMax =  -7.90543277628454E+01  1.77312522276662E+00
(PID.TID 0000.0001)  ploadbar=  1.01009440398718E+05
 cg2d: Sum(rhs),rhsMax =  -7.91472580907798E+01  1.77063442299929E+00
(PID.TID 0000.0001)  ploadbar=  1.01010336474839E+05
 cg2d: Sum(rhs),rhsMax =  -7.92746754740551E+01  1.76739737637152E+00
(PID.TID 0000.0001)  ploadbar=  1.01011232550961E+05
 cg2d: Sum(rhs),rhsMax =  -7.91568867428799E+01  1.76965268461133E+00
(PID.TID 0000.0001)  ploadbar=  1.01012128627083E+05
 cg2d: Sum(rhs),rhsMax =  -7.88635104032413E+01  1.77579785715003E+00
(PID.TID 0000.0001)  ploadbar=  1.01012584927308E+05
 cg2d: Sum(rhs),rhsMax =  -7.85870656695566E+01  1.78153432685039E+00
(PID.TID 0000.0001)  ploadbar=  1.01013041227533E+05
 cg2d: Sum(rhs),rhsMax =  -7.83637786389752E+01  1.78602537731739E+00
(PID.TID 0000.0001)  ploadbar=  1.01013497527758E+05
 cg2d: Sum(rhs),rhsMax =  -7.81956911892695E+01  1.78920717158113E+00
(PID.TID 0000.0001)  ploadbar=  1.01013953827983E+05
 cg2d: Sum(rhs),rhsMax =  -7.80849402629815E+01  1.79101837997577E+00
(PID.TID 0000.0001)  ploadbar=  1.01014410128208E+05
 cg2d: Sum(rhs),rhsMax =  -7.75032370835282E+01  1.80365530517859E+00
(PID.TID 0000.0001)  ploadbar=  1.01014866428433E+05
 cg2d: Sum(rhs),rhsMax =  -7.63968146246737E+01  1.82900655282163E+00
(PID.TID 0000.0001)  ploadbar=  1.01015381708840E+05
 cg2d: Sum(rhs),rhsMax =  -7.53681665513992E+01  1.85322961495822E+00
(PID.TID 0000.0001)  ploadbar=  1.01015896989247E+05
 cg2d: Sum(rhs),rhsMax =  -7.43947284301850E+01  1.87676907894579E+00
(PID.TID 0000.0001)  ploadbar=  1.01016412269654E+05
 cg2d: Sum(rhs),rhsMax =  -7.34451243536153E+01  1.90035688969386E+00
(PID.TID 0000.0001)  ploadbar=  1.01016927550062E+05
 cg2d: Sum(rhs),rhsMax =  -7.24801671825154E+01  1.92501286475006E+00
(PID.TID 0000.0001)  ploadbar=  1.01017442830469E+05
 cg2d: Sum(rhs),rhsMax =  -7.15060051949842E+01  1.95062304468395E+00
(PID.TID 0000.0001)  ploadbar=  1.01017958110876E+05
 cg2d: Sum(rhs),rhsMax =  -7.05583014612784E+01  1.97621365127357E+00
(PID.TID 0000.0001)  ploadbar=  1.01017973438592E+05
 cg2d: Sum(rhs),rhsMax =  -6.96507141114614E+01  2.00135718464196E+00
(PID.TID 0000.0001)  ploadbar=  1.01017988766307E+05
 cg2d: Sum(rhs),rhsMax =  -6.88035149563427E+01  2.02539255378131E+00
(PID.TID 0000.0001)  ploadbar=  1.01018004094023E+05
 cg2d: Sum(rhs),rhsMax =  -6.80399132687814E+01  2.04751305422572E+00
(PID.TID 0000.0001)  ploadbar=  1.01018019421738E+05
 cg2d: Sum(rhs),rhsMax =  -6.73956167763612E+01  2.06647471107356E+00
(PID.TID 0000.0001)  ploadbar=  1.01018034749454E+05
 cg2d: Sum(rhs),rhsMax =  -6.68960571213391E+01  2.08128936127158E+00
(PID.TID 0000.0001)  ploadbar=  1.01018050077170E+05
 cg2d: Sum(rhs),rhsMax =  -6.65821869093346E+01  2.09051280395083E+00
(PID.TID 0000.0001)  ploadbar=  1.01018983920961E+05
 cg2d: Sum(rhs),rhsMax =  -6.64770800508016E+01  2.09325451204639E+00
(PID.TID 0000.0001)  ploadbar=  1.01019917764753E+05
 cg2d: Sum(rhs),rhsMax =  -6.65827083903091E+01  2.08939290317867E+00
(PID.TID 0000.0001)  ploadbar=  1.01020851608545E+05
 cg2d: Sum(rhs),rhsMax =  -6.68787394840331E+01  2.07962683035329E+00
(PID.TID 0000.0001)  ploadbar=  1.01021785452337E+05
 cg2d: Sum(rhs),rhsMax =  -6.73205191727357E+01  2.06548653314361E+00
(PID.TID 0000.0001)  ploadbar=  1.01022719296128E+05
 cg2d: Sum(rhs),rhsMax =  -6.78490191449311E+01  2.04893131976229E+00
(PID.TID 0000.0001)  ploadbar=  1.01023653139920E+05
 cg2d: Sum(rhs),rhsMax =  -6.84292595371089E+01  2.03107215586985E+00
(PID.TID 0000.0001)  ploadbar=  1.01025076405128E+05
 cg2d: Sum(rhs),rhsMax =  -6.90710490383280E+01  2.01168622670130E+00
(PID.TID 0000.0001)  ploadbar=  1.01026499670335E+05
 cg2d: Sum(rhs),rhsMax =  -6.97969003521563E+01  1.99021958288728E+00
(PID.TID 0000.0001)  ploadbar=  1.01027922935542E+05
 cg2d: Sum(rhs),rhsMax =  -7.06114599050400E+01  1.96668351700404E+00
(PID.TID 0000.0001)  ploadbar=  1.01029346200750E+05
 cg2d: Sum(rhs),rhsMax =  -7.14962579355285E+01  1.94173633954097E+00
(PID.TID 0000.0001)  ploadbar=  1.01030769465957E+05
 cg2d: Sum(rhs),rhsMax =  -7.24041123005994E+01  1.91674753151374E+00
(PID.TID 0000.0001)  ploadbar=  1.01032192731164E+05
 cg2d: Sum(rhs),rhsMax =  -7.33040563333532E+01  1.89261085569490E+00
(PID.TID 0000.0001)  ploadbar=  1.01033636514029E+05
 cg2d: Sum(rhs),rhsMax =  -7.42012563731287E+01  1.86915378278914E+00
(PID.TID 0000.0001)  ploadbar=  1.01035080296894E+05
 cg2d: Sum(rhs),rhsMax =  -7.51045940644152E+01  1.84612743686779E+00
(PID.TID 0000.0001)  ploadbar=  1.01036524079758E+05
 cg2d: Sum(rhs),rhsMax =  -7.60215193947692E+01  1.82334274326749E+00
(PID.TID 0000.0001)  ploadbar=  1.01037967862623E+05
 cg2d: Sum(rhs),rhsMax =  -7.69520745477317E+01  1.80080067623650E+00
(PID.TID 0000.0001)  ploadbar=  1.01039411645488E+05
 cg2d: Sum(rhs),rhsMax =  -7.79046581732491E+01  1.77830022606248E+00
(PID.TID 0000.0001)  ploadbar=  1.01040855428352E+05
 cg2d: Sum(rhs),rhsMax =  -7.88805270515109E+01  1.75579473416054E+00
(PID.TID 0000.0001)  ploadbar=  1.01041991999889E+05
 cg2d: Sum(rhs),rhsMax =  -7.98927914316853E+01  1.73301609046444E+00
(PID.TID 0000.0001)  ploadbar=  1.01043128571425E+05
 cg2d: Sum(rhs),rhsMax =  -8.09447380710523E+01  1.70993360650952E+00
(PID.TID 0000.0001)  ploadbar=  1.01044265142961E+05
 cg2d: Sum(rhs),rhsMax =  -8.20327113510992E+01  1.68666627891698E+00
(PID.TID 0000.0001)  ploadbar=  1.01045401714497E+05
 cg2d: Sum(rhs),rhsMax =  -8.28440060582119E+01  1.66952777554347E+00
(PID.TID 0000.0001)  ploadbar=  1.01046538286033E+05
 cg2d: Sum(rhs),rhsMax =  -8.29101339469371E+01  1.66753543847485E+00
(PID.TID 0000.0001)  ploadbar=  1.01047674857569E+05
 cg2d: Sum(rhs),rhsMax =  -8.29553917775212E+01  1.66597896611152E+00
(PID.TID 0000.0001)  ploadbar=  1.01048912970943E+05
 cg2d: Sum(rhs),rhsMax =  -8.29730252939155E+01  1.66498195513315E+00
(PID.TID 0000.0001)  ploadbar=  1.01050151084317E+05
 cg2d: Sum(rhs),rhsMax =  -8.29462760642653E+01  1.66487724717546E+00
(PID.TID 0000.0001)  ploadbar=  1.01051389197691E+05
 cg2d: Sum(rhs),rhsMax =  -8.28662221300194E+01  1.66584132201962E+00
(PID.TID 0000.0001)  ploadbar=  1.01052627311065E+05
 cg2d: Sum(rhs),rhsMax =  -8.27359024933794E+01  1.66781592545004E+00
(PID.TID 0000.0001)  ploadbar=  1.01053865424440E+05
 cg2d: Sum(rhs),rhsMax =  -8.25635522950113E+01  1.67064093079097E+00
(PID.TID 0000.0001)  ploadbar=  1.01055103537814E+05
 cg2d: Sum(rhs),rhsMax =  -8.23616256485151E+01  1.67405339355359E+00
(PID.TID 0000.0001)  ploadbar=  1.01056222874109E+05
 cg2d: Sum(rhs),rhsMax =  -8.21236185933550E+01  1.67819087480690E+00
(PID.TID 0000.0001)  ploadbar=  1.01057342210404E+05
 cg2d: Sum(rhs),rhsMax =  -8.18584078395775E+01  1.68287817754942E+00
(PID.TID 0000.0001)  ploadbar=  1.01058461546699E+05
 cg2d: Sum(rhs),rhsMax =  -8.15788763692154E+01  1.68785842286906E+00
(PID.TID 0000.0001)  ploadbar=  1.01059580882994E+05
 cg2d: Sum(rhs),rhsMax =  -8.12908341317818E+01  1.69301608838204E+00
(PID.TID 0000.0001)  ploadbar=  1.01060700219289E+05
 cg2d: Sum(rhs),rhsMax =  -8.09948117021688E+01  1.69833978962967E+00
(PID.TID 0000.0001)  ploadbar=  1.01061819555584E+05
 cg2d: Sum(rhs),rhsMax =  -8.07614078935540E+01  1.70241654478135E+00
(PID.TID 0000.0001)  ploadbar=  1.01061930850003E+05
 cg2d: Sum(rhs),rhsMax =  -8.04675814850667E+01  1.70782976285733E+00
(PID.TID 0000.0001)  ploadbar=  1.01062042144422E+05
 cg2d: Sum(rhs),rhsMax =  -8.01360579566075E+01  1.71411914703019E+00
(PID.TID 0000.0001)  ploadbar=  1.01062153438842E+05
 cg2d: Sum(rhs),rhsMax =  -7.97770122332557E+01  1.72108558867378E+00
(PID.TID 0000.0001)  ploadbar=  1.01062264733261E+05
 cg2d: Sum(rhs),rhsMax =  -7.94099668263460E+01  1.72831541262904E+00
(PID.TID 0000.0001)  ploadbar=  1.01062376027680E+05
 cg2d: Sum(rhs),rhsMax =  -7.90578361692000E+01  1.73530164438828E+00
(PID.TID 0000.0001)  ploadbar=  1.01062487322100E+05
 cg2d: Sum(rhs),rhsMax =  -7.86998936938029E+01  1.74247461648668E+00
(PID.TID 0000.0001)  ploadbar=  1.01062159977140E+05
 cg2d: Sum(rhs),rhsMax =  -7.83720919517684E+01  1.74903384288377E+00
(PID.TID 0000.0001)  ploadbar=  1.01061832632180E+05
 cg2d: Sum(rhs),rhsMax =  -7.80822632382773E+01  1.75478987293959E+00
(PID.TID 0000.0001)  ploadbar=  1.01061505287220E+05
 cg2d: Sum(rhs),rhsMax =  -7.78054272470281E+01  1.76028707219865E+00
(PID.TID 0000.0001)  ploadbar=  1.01061177942260E+05
 cg2d: Sum(rhs),rhsMax =  -7.75483554762297E+01  1.76536248840191E+00
(PID.TID 0000.0001)  ploadbar=  1.01060850597300E+05
 cg2d: Sum(rhs),rhsMax =  -7.73141755048888E+01  1.76993477894179E+00
(PID.TID 0000.0001)  ploadbar=  1.01060523252340E+05
 cg2d: Sum(rhs),rhsMax =  -7.65572145509075E+01  1.78667831757658E+00
(PID.TID 0000.0001)  ploadbar=  1.01060507317938E+05
 cg2d: Sum(rhs),rhsMax =  -7.55264842942106E+01  1.81031114004485E+00
(PID.TID 0000.0001)  ploadbar=  1.01060491383536E+05
 cg2d: Sum(rhs),rhsMax =  -7.44579797746622E+01  1.83554269994414E+00
(PID.TID 0000.0001)  ploadbar=  1.01060475449135E+05
 cg2d: Sum(rhs),rhsMax =  -7.33814133399537E+01  1.86172511222540E+00
(PID.TID 0000.0001)  ploadbar=  1.01060459514733E+05
 cg2d: Sum(rhs),rhsMax =  -7.22914721280737E+01  1.88904596750579E+00
(PID.TID 0000.0001)  ploadbar=  1.01060443580331E+05
 cg2d: Sum(rhs),rhsMax =  -7.12014287413187E+01  1.91721346535916E+00
(PID.TID 0000.0001)  ploadbar=  1.01060427645930E+05
 cg2d: Sum(rhs),rhsMax =  -7.01014130286172E+01  1.94651764080898E+00
(PID.TID 0000.0001)  ploadbar=  1.01060225530149E+05
 cg2d: Sum(rhs),rhsMax =  -6.89812821437630E+01  1.97731412492799E+00
(PID.TID 0000.0001)  ploadbar=  1.01060023414368E+05
 cg2d: Sum(rhs),rhsMax =  -6.78540753140716E+01  2.00931686882191E+00
(PID.TID 0000.0001)  ploadbar=  1.01059821298588E+05
 cg2d: Sum(rhs),rhsMax =  -6.67380035806822E+01  2.04204196065026E+00
(PID.TID 0000.0001)  ploadbar=  1.01059619182807E+05
 cg2d: Sum(rhs),rhsMax =  -6.56815888360926E+01  2.07397393070886E+00
(PID.TID 0000.0001)  ploadbar=  1.01059417067026E+05
 cg2d: Sum(rhs),rhsMax =  -6.47293738972709E+01  2.10352481045664E+00
(PID.TID 0000.0001)  ploadbar=  1.01059214951246E+05
 cg2d: Sum(rhs),rhsMax =  -6.38957301139554E+01  2.13007208191800E+00
(PID.TID 0000.0001)  ploadbar=  1.01059225595712E+05
 cg2d: Sum(rhs),rhsMax =  -6.31879069904273E+01  2.15309416531834E+00
(PID.TID 0000.0001)  ploadbar=  1.01059236240179E+05
 cg2d: Sum(rhs),rhsMax =  -6.25971629608616E+01  2.17263028081637E+00
(PID.TID 0000.0001)  ploadbar=  1.01059246884646E+05
 cg2d: Sum(rhs),rhsMax =  -6.20969882332532E+01  2.18940322245588E+00
(PID.TID 0000.0001)  ploadbar=  1.01059257529112E+05
 cg2d: Sum(rhs),rhsMax =  -6.16513497875607E+01  2.20454978757803E+00
(PID.TID 0000.0001)  ploadbar=  1.01059268173579E+05
 cg2d: Sum(rhs),rhsMax =  -6.12273472572338E+01  2.21917592802054E+00
(PID.TID 0000.0001)  ploadbar=  1.01059278818046E+05
 cg2d: Sum(rhs),rhsMax =  -6.08225012153954E+01  2.23325589505757E+00
(PID.TID 0000.0001)  ploadbar=  1.01059579434945E+05
 cg2d: Sum(rhs),rhsMax =  -6.04418160617428E+01  2.24657291321265E+00
(PID.TID 0000.0001)  ploadbar=  1.01059880051844E+05
 cg2d: Sum(rhs),rhsMax =  -6.00874950520474E+01  2.25902066783328E+00
(PID.TID 0000.0001)  ploadbar=  1.01060180668743E+05
 cg2d: Sum(rhs),rhsMax =  -5.97716947214181E+01  2.27010581993663E+00
(PID.TID 0000.0001)  ploadbar=  1.01060481285643E+05
 cg2d: Sum(rhs),rhsMax =  -5.94971536016167E+01  2.27967234800120E+00
(PID.TID 0000.0001)  ploadbar=  1.01060781902542E+05
 cg2d: Sum(rhs),rhsMax =  -5.92687731160504E+01  2.28748572393906E+00
(PID.TID 0000.0001)  ploadbar=  1.01061082519441E+05
 cg2d: Sum(rhs),rhsMax =  -5.90929190000080E+01  2.29336208146895E+00
(PID.TID 0000.0001)  ploadbar=  1.01060440369864E+05
 cg2d: Sum(rhs),rhsMax =  -5.89669839061941E+01  2.29735795502976E+00
(PID.TID 0000.0001)  ploadbar=  1.01059798220287E+05
 cg2d: Sum(rhs),rhsMax =  -5.88842572381575E+01  2.29970872617902E+00
(PID.TID 0000.0001)  ploadbar=  1.01059156070709E+05
 cg2d: Sum(rhs),rhsMax =  -5.88314633283036E+01  2.30091498629783E+00
(PID.TID 0000.0001)  ploadbar=  1.01058513921132E+05
 cg2d: Sum(rhs),rhsMax =  -5.88039837850411E+01  2.30114943351850E+00
(PID.TID 0000.0001)  ploadbar=  1.01057871771555E+05
 cg2d: Sum(rhs),rhsMax =  -5.87956623783535E+01  2.30064866226454E+00
(PID.TID 0000.0001)  ploadbar=  1.01057229621978E+05
 cg2d: Sum(rhs),rhsMax =  -5.87892024814169E+01  2.30003981460071E+00
(PID.TID 0000.0001)  ploadbar=  1.01058152794450E+05
 cg2d: Sum(rhs),rhsMax =  -5.87801792494785E+01  2.29948931587418E+00
(PID.TID 0000.0001)  ploadbar=  1.01059075966923E+05
 cg2d: Sum(rhs),rhsMax =  -5.87674963682638E+01  2.29903633371073E+00
(PID.TID 0000.0001)  ploadbar=  1.01059999139395E+05
 cg2d: Sum(rhs),rhsMax =  -5.87541535469270E+01  2.29855968369798E+00
(PID.TID 0000.0001)  ploadbar=  1.01060922311867E+05
 cg2d: Sum(rhs),rhsMax =  -5.87478491471545E+01  2.29775198215943E+00
(PID.TID 0000.0001)  ploadbar=  1.01061845484340E+05
 cg2d: Sum(rhs),rhsMax =  -5.87586222864970E+01  2.29621177049722E+00
(PID.TID 0000.0001)  ploadbar=  1.01062768656812E+05
 cg2d: Sum(rhs),rhsMax =  -5.87895867651683E+01  2.29394451252035E+00
(PID.TID 0000.0001)  ploadbar=  1.01063531774286E+05
 cg2d: Sum(rhs),rhsMax =  -5.88459912206361E+01  2.29074301221307E+00
(PID.TID 0000.0001)  ploadbar=  1.01064294891760E+05
 cg2d: Sum(rhs),rhsMax =  -5.89328041592478E+01  2.28641513595458E+00
(PID.TID 0000.0001)  ploadbar=  1.01065058009234E+05
 cg2d: Sum(rhs),rhsMax =  -5.90521451697996E+01  2.28088373333484E+00
(PID.TID 0000.0001)  ploadbar=  1.01065821126709E+05
 cg2d: Sum(rhs),rhsMax =  -5.92009919180007E+01  2.27427324803705E+00
(PID.TID 0000.0001)  ploadbar=  1.01066584244183E+05
 cg2d: Sum(rhs),rhsMax =  -5.93820712043859E+01  2.26649125202092E+00
(PID.TID 0000.0001)  ploadbar=  1.01067347361657E+05
 cg2d: Sum(rhs),rhsMax =  -5.95939360405470E+01  2.25760212200261E+00
(PID.TID 0000.0001)  ploadbar=  1.01067469434675E+05
 cg2d: Sum(rhs),rhsMax =  -5.98306052659165E+01  2.24784623589500E+00
(PID.TID 0000.0001)  ploadbar=  1.01067591507692E+05
 cg2d: Sum(rhs),rhsMax =  -6.00907912375336E+01  2.23729247078959E+00
(PID.TID 0000.0001)  ploadbar=  1.01067713580709E+05
 cg2d: Sum(rhs),rhsMax =  -6.03756376183288E+01  2.22592612334428E+00
(PID.TID 0000.0001)  ploadbar=  1.01067835653727E+05
 cg2d: Sum(rhs),rhsMax =  -6.06872731345402E+01  2.21369832435362E+00
(PID.TID 0000.0001)  ploadbar=  1.01067957726744E+05
 cg2d: Sum(rhs),rhsMax =  -6.10283056992028E+01  2.20053859498478E+00
(PID.TID 0000.0001)  ploadbar=  1.01068079799762E+05
 cg2d: Sum(rhs),rhsMax =  -6.13987622539350E+01  2.18651752431784E+00
(PID.TID 0000.0001)  ploadbar=  1.01068888736797E+05
 cg2d: Sum(rhs),rhsMax =  -6.17925917061668E+01  2.17187685070510E+00
(PID.TID 0000.0001)  ploadbar=  1.01069697673832E+05
 cg2d: Sum(rhs),rhsMax =  -6.22036318916792E+01  2.15685396771565E+00
(PID.TID 0000.0001)  ploadbar=  1.01070506610867E+05
 cg2d: Sum(rhs),rhsMax =  -6.26243830317295E+01  2.14171954936616E+00
(PID.TID 0000.0001)  ploadbar=  1.01071315547902E+05
 cg2d: Sum(rhs),rhsMax =  -6.30477439927179E+01  2.12671896724932E+00
(PID.TID 0000.0001)  ploadbar=  1.01072124484937E+05
 cg2d: Sum(rhs),rhsMax =  -6.34694496678441E+01  2.11199221635840E+00
(PID.TID 0000.0001)  ploadbar=  1.01072933421972E+05
 cg2d: Sum(rhs),rhsMax =  -6.38921546525143E+01  2.09739007498582E+00
(PID.TID 0000.0001)  ploadbar=  1.01072560508577E+05
 cg2d: Sum(rhs),rhsMax =  -6.43159102409983E+01  2.08290680707219E+00
(PID.TID 0000.0001)  ploadbar=  1.01072187595181E+05
 cg2d: Sum(rhs),rhsMax =  -6.47424078550856E+01  2.06848430218521E+00
(PID.TID 0000.0001)  ploadbar=  1.01071814681786E+05
 cg2d: Sum(rhs),rhsMax =  -6.51741773264401E+01  2.05404276242040E+00
(PID.TID 0000.0001)  ploadbar=  1.01071441768391E+05
 cg2d: Sum(rhs),rhsMax =  -6.56105851027776E+01  2.03960600986784E+00
(PID.TID 0000.0001)  ploadbar=  1.01071068854995E+05
 cg2d: Sum(rhs),rhsMax =  -6.60500671478603E+01  2.02522073610659E+00
(PID.TID 0000.0001)  ploadbar=  1.01070695941600E+05
 cg2d: Sum(rhs),rhsMax =  -6.64853359309960E+01  2.01119704798531E+00
(PID.TID 0000.0001)  ploadbar=  1.01069761110068E+05
 cg2d: Sum(rhs),rhsMax =  -6.69146490343596E+01  1.99757421966780E+00
(PID.TID 0000.0001)  ploadbar=  1.01068826278536E+05
 cg2d: Sum(rhs),rhsMax =  -6.73445382952436E+01  1.98414503250871E+00
(PID.TID 0000.0001)  ploadbar=  1.01067891447005E+05
 cg2d: Sum(rhs),rhsMax =  -6.77748321933896E+01  1.97090951156190E+00
(PID.TID 0000.0001)  ploadbar=  1.01066956615473E+05
 cg2d: Sum(rhs),rhsMax =  -6.82061143546642E+01  1.95784504062248E+00
(PID.TID 0000.0001)  ploadbar=  1.01066021783941E+05
 cg2d: Sum(rhs),rhsMax =  -6.86391342842018E+01  1.94492140791158E+00
(PID.TID 0000.0001)  ploadbar=  1.01065086952409E+05
 cg2d: Sum(rhs),rhsMax =  -6.90733146942556E+01  1.93212283379740E+00
(PID.TID 0000.0001)  ploadbar=  1.01064411192842E+05
 cg2d: Sum(rhs),rhsMax =  -6.95089713869342E+01  1.91943301651479E+00
(PID.TID 0000.0001)  ploadbar=  1.01063735433275E+05
 cg2d: Sum(rhs),rhsMax =  -6.99454115078166E+01  1.90686805620305E+00
(PID.TID 0000.0001)  ploadbar=  1.01063059673708E+05
 cg2d: Sum(rhs),rhsMax =  -7.03815618885163E+01  1.89445249791070E+00
(PID.TID 0000.0001)  ploadbar=  1.01062383914141E+05
 cg2d: Sum(rhs),rhsMax =  -7.08164682720495E+01  1.88220931348238E+00
(PID.TID 0000.0001)  ploadbar=  1.01061708154574E+05
 cg2d: Sum(rhs),rhsMax =  -7.12347133490438E+01  1.87053820928284E+00
(PID.TID 0000.0001)  ploadbar=  1.01061032395007E+05
 cg2d: Sum(rhs),rhsMax =  -7.16563706061283E+01  1.85895248662455E+00
(PID.TID 0000.0001)  ploadbar=  1.01059208684305E+05
 cg2d: Sum(rhs),rhsMax =  -7.20841893604696E+01  1.84737412279077E+00
(PID.TID 0000.0001)  ploadbar=  1.01057384973604E+05
 cg2d: Sum(rhs),rhsMax =  -7.25192557016123E+01  1.83577332527293E+00
(PID.TID 0000.0001)  ploadbar=  1.01055561262902E+05
 cg2d: Sum(rhs),rhsMax =  -7.29620599367200E+01  1.82413818072589E+00
(PID.TID 0000.0001)  ploadbar=  1.01053737552201E+05
 cg2d: Sum(rhs),rhsMax =  -7.34126973509605E+01  1.81246763685148E+00
(PID.TID 0000.0001)  ploadbar=  1.01051913841499E+05
 cg2d: Sum(rhs),rhsMax =  -7.38691881507038E+01  1.80081295731316E+00
(PID.TID 0000.0001)  ploadbar=  1.01050090130797E+05
 cg2d: Sum(rhs),rhsMax =  -7.43264831958347E+01  1.78924124659686E+00
(PID.TID 0000.0001)  ploadbar=  1.01049135529062E+05
 cg2d: Sum(rhs),rhsMax =  -7.47856556892433E+01  1.77772177749111E+00
(PID.TID 0000.0001)  ploadbar=  1.01048180927327E+05
 cg2d: Sum(rhs),rhsMax =  -7.52474063840384E+01  1.76623359487068E+00
(PID.TID 0000.0001)  ploadbar=  1.01047226325591E+05
 cg2d: Sum(rhs),rhsMax =  -7.55007981217155E+01  1.75967644287296E+00
(PID.TID 0000.0001)  ploadbar=  1.01046271723856E+05
 cg2d: Sum(rhs),rhsMax =  -7.56261628622124E+01  1.75607520084195E+00
(PID.TID 0000.0001)  ploadbar=  1.01045317122121E+05
 cg2d: Sum(rhs),rhsMax =  -7.57959777021126E+01  1.75139983125877E+00
(PID.TID 0000.0001)  ploadbar=  1.01044362520385E+05
 cg2d: Sum(rhs),rhsMax =  -7.59598355544564E+01  1.74691300684400E+00
(PID.TID 0000.0001)  ploadbar=  1.01044772393056E+05
 cg2d: Sum(rhs),rhsMax =  -7.61089647930095E+01  1.74280786870627E+00
(PID.TID 0000.0001)  ploadbar=  1.01045182265727E+05
 cg2d: Sum(rhs),rhsMax =  -7.63068915679018E+01  1.73762966593041E+00
(PID.TID 0000.0001)  ploadbar=  1.01045592138397E+05
 cg2d: Sum(rhs),rhsMax =  -7.65432711741213E+01  1.73162963955697E+00
(PID.TID 0000.0001)  ploadbar=  1.01046002011068E+05
 cg2d: Sum(rhs),rhsMax =  -7.68241721972822E+01  1.72468508435866E+00
(PID.TID 0000.0001)  ploadbar=  1.01046411883738E+05
 cg2d: Sum(rhs),rhsMax =  -7.71535367373195E+01  1.71672186094529E+00
(PID.TID 0000.0001)  ploadbar=  1.01046821756409E+05
 cg2d: Sum(rhs),rhsMax =  -7.74510446916568E+01  1.70952088658559E+00
(PID.TID 0000.0001)  ploadbar=  1.01047566950099E+05
 cg2d: Sum(rhs),rhsMax =  -7.77021951917266E+01  1.70337390206100E+00
(PID.TID 0000.0001)  ploadbar=  1.01048312143789E+05
 cg2d: Sum(rhs),rhsMax =  -7.79219280998040E+01  1.69793230222926E+00
(PID.TID 0000.0001)  ploadbar=  1.01049057337479E+05
 cg2d: Sum(rhs),rhsMax =  -7.81712611811011E+01  1.69186334217595E+00
(PID.TID 0000.0001)  ploadbar=  1.01049802531169E+05
 cg2d: Sum(rhs),rhsMax =  -7.84598377428547E+01  1.68497255540861E+00
(PID.TID 0000.0001)  ploadbar=  1.01050547724859E+05
 cg2d: Sum(rhs),rhsMax =  -7.87964459638261E+01  1.67709153094564E+00
(PID.TID 0000.0001)  ploadbar=  1.01051292918549E+05
 cg2d: Sum(rhs),rhsMax =  -7.91241225318848E+01  1.66951290505791E+00
(PID.TID 0000.0001)  ploadbar=  1.01052884073538E+05
 cg2d: Sum(rhs),rhsMax =  -7.94892209102549E+01  1.66124986147021E+00
(PID.TID 0000.0001)  ploadbar=  1.01054475228527E+05
 cg2d: Sum(rhs),rhsMax =  -7.98527332765856E+01  1.65312499427350E+00
(PID.TID 0000.0001)  ploadbar=  1.01056066383516E+05
 cg2d: Sum(rhs),rhsMax =  -8.02389913857183E+01  1.64463372461163E+00
(PID.TID 0000.0001)  ploadbar=  1.01057657538505E+05
 cg2d: Sum(rhs),rhsMax =  -8.06195599399566E+01  1.63636103862352E+00
(PID.TID 0000.0001)  ploadbar=  1.01059248693494E+05
 cg2d: Sum(rhs),rhsMax =  -8.09730026693752E+01  1.62873108263438E+00
(PID.TID 0000.0001)  ploadbar=  1.01060839848483E+05
 cg2d: Sum(rhs),rhsMax =  -8.13106247266170E+01  1.62144548803867E+00
(PID.TID 0000.0001)  ploadbar=  1.01061749616573E+05
 cg2d: Sum(rhs),rhsMax =  -8.15885643636203E+01  1.61535927795578E+00
(PID.TID 0000.0001)  ploadbar=  1.01062659384663E+05
 cg2d: Sum(rhs),rhsMax =  -8.18090701235247E+01  1.61039708238638E+00
(PID.TID 0000.0001)  ploadbar=  1.01063569152753E+05
 cg2d: Sum(rhs),rhsMax =  -8.19813734333185E+01  1.60635288870345E+00
(PID.TID 0000.0001)  ploadbar=  1.01064478920843E+05
 cg2d: Sum(rhs),rhsMax =  -8.21186041806672E+01  1.60295536008500E+00
(PID.TID 0000.0001)  ploadbar=  1.01065388688932E+05
 cg2d: Sum(rhs),rhsMax =  -8.22343995956156E+01  1.59992619778145E+00
(PID.TID 0000.0001)  ploadbar=  1.01066298457022E+05
 cg2d: Sum(rhs),rhsMax =  -8.23450514401354E+01  1.59704436540589E+00
(PID.TID 0000.0001)  ploadbar=  1.01066706312671E+05
 cg2d: Sum(rhs),rhsMax =  -8.24249861130213E+01  1.59480094261526E+00
(PID.TID 0000.0001)  ploadbar=  1.01067114168320E+05
 cg2d: Sum(rhs),rhsMax =  -8.25493277283233E+01  1.59174172181514E+00
(PID.TID 0000.0001)  ploadbar=  1.01067522023968E+05
 cg2d: Sum(rhs),rhsMax =  -8.27306343614689E+01  1.58763200291784E+00
(PID.TID 0000.0001)  ploadbar=  1.01067929879617E+05
 cg2d: Sum(rhs),rhsMax =  -8.29662329964742E+01  1.58253136083712E+00
(PID.TID 0000.0001)  ploadbar=  1.01068337735266E+05
 cg2d: Sum(rhs),rhsMax =  -8.32537657642069E+01  1.57649158569823E+00
(PID.TID 0000.0001)  ploadbar=  1.01068745590915E+05
 cg2d: Sum(rhs),rhsMax =  -8.35268786464856E+01  1.57076382844218E+00
(PID.TID 0000.0001)  ploadbar=  1.01068221942273E+05
 cg2d: Sum(rhs),rhsMax =  -8.37992307868792E+01  1.56507939760147E+00
(PID.TID 0000.0001)  ploadbar=  1.01067698293631E+05
 cg2d: Sum(rhs),rhsMax =  -8.40550251876308E+01  1.55973057204984E+00
(PID.TID 0000.0001)  ploadbar=  1.01067174644989E+05
 cg2d: Sum(rhs),rhsMax =  -8.42826515811892E+01  1.55492706066778E+00
(PID.TID 0000.0001)  ploadbar=  1.01066650996347E+05
 cg2d: Sum(rhs),rhsMax =  -8.44770734226945E+01  1.55075043838513E+00
(PID.TID 0000.0001)  ploadbar=  1.01066127347706E+05
 cg2d: Sum(rhs),rhsMax =  -8.46404086952987E+01  1.54715084702020E+00
(PID.TID 0000.0001)  ploadbar=  1.01065603699064E+05
 cg2d: Sum(rhs),rhsMax =  -8.47635670946392E+01  1.54435789425202E+00
(PID.TID 0000.0001)  ploadbar=  1.01065268419311E+05
 cg2d: Sum(rhs),rhsMax =  -8.48594817352576E+01  1.54211808564675E+00
(PID.TID 0000.0001)  ploadbar=  1.01064933139557E+05
 cg2d: Sum(rhs),rhsMax =  -8.49482408082596E+01  1.54005512199834E+00
(PID.TID 0000.0001)  ploadbar=  1.01064597859804E+05
 cg2d: Sum(rhs),rhsMax =  -8.50423480913708E+01  1.53793730383634E+00
(PID.TID 0000.0001)  ploadbar=  1.01064262580051E+05
 cg2d: Sum(rhs),rhsMax =  -8.51468029208679E+01  1.53567099865261E+00
(PID.TID 0000.0001)  ploadbar=  1.01063927300298E+05
 cg2d: Sum(rhs),rhsMax =  -8.52932348453647E+01  1.53268469496239E+00
(PID.TID 0000.0001)  ploadbar=  1.01063592020545E+05
 cg2d: Sum(rhs),rhsMax =  -8.55328222014878E+01  1.52800841451118E+00
(PID.TID 0000.0001)  ploadbar=  1.01063234565544E+05
 cg2d: Sum(rhs),rhsMax =  -8.58467412195175E+01  1.52200286544741E+00
(PID.TID 0000.0001)  ploadbar=  1.01062877110543E+05
 cg2d: Sum(rhs),rhsMax =  -8.62320166264753E+01  1.51474501711455E+00
(PID.TID 0000.0001)  ploadbar=  1.01062519655542E+05
 cg2d: Sum(rhs),rhsMax =  -8.66839950013387E+01  1.50634499801105E+00
(PID.TID 0000.0001)  ploadbar=  1.01062162200540E+05
 cg2d: Sum(rhs),rhsMax =  -8.71962071612670E+01  1.49694484722033E+00
(PID.TID 0000.0001)  ploadbar=  1.01061804745539E+05
 cg2d: Sum(rhs),rhsMax =  -8.77642012514607E+01  1.48665363807193E+00
(PID.TID 0000.0001)  ploadbar=  1.01061447290538E+05
 cg2d: Sum(rhs),rhsMax =  -8.83865214799871E+01  1.47562823943416E+00
(PID.TID 0000.0001)  ploadbar=  1.01061434724580E+05
 cg2d: Sum(rhs),rhsMax =  -8.90923436137582E+01  1.46342040792974E+00
(PID.TID 0000.0001)  ploadbar=  1.01061422158622E+05
 cg2d: Sum(rhs),rhsMax =  -8.98163898433652E+01  1.45114095919747E+00
(PID.TID 0000.0001)  ploadbar=  1.01061409592664E+05
 cg2d: Sum(rhs),rhsMax =  -9.04872607801003E+01  1.43992813344233E+00
(PID.TID 0000.0001)  ploadbar=  1.01061397026706E+05
 cg2d: Sum(rhs),rhsMax =  -9.12281483470412E+01  1.42780055012837E+00
(PID.TID 0000.0001)  ploadbar=  1.01061384460747E+05
 cg2d: Sum(rhs),rhsMax =  -9.19563036522115E+01  1.41607360086626E+00
(PID.TID 0000.0001)  ploadbar=  1.01061371894789E+05
 cg2d: Sum(rhs),rhsMax =  -9.26989100255458E+01  1.40430740702038E+00
(PID.TID 0000.0001)  ploadbar=  1.01060543662697E+05
 cg2d: Sum(rhs),rhsMax =  -9.34592958401139E+01  1.39245443312524E+00
(PID.TID 0000.0001)  ploadbar=  1.01059715430606E+05
 cg2d: Sum(rhs),rhsMax =  -9.42325382169342E+01  1.38059499019703E+00
(PID.TID 0000.0001)  ploadbar=  1.01058887198514E+05
 cg2d: Sum(rhs),rhsMax =  -9.50163880849917E+01  1.36876700460597E+00
(PID.TID 0000.0001)  ploadbar=  1.01058058966423E+05
 cg2d: Sum(rhs),rhsMax =  -9.58089467076993E+01  1.35700204573081E+00
(PID.TID 0000.0001)  ploadbar=  1.01057230734331E+05
 cg2d: Sum(rhs),rhsMax =  -9.66075678803101E+01  1.34533590566250E+00
(PID.TID 0000.0001)  ploadbar=  1.01056402502239E+05
 cg2d: Sum(rhs),rhsMax =  -9.73357788710077E+01  1.33486362588904E+00
(PID.TID 0000.0001)  ploadbar=  1.01055727605672E+05
 cg2d: Sum(rhs),rhsMax =  -9.80932538620343E+01  1.32417653490969E+00
(PID.TID 0000.0001)  ploadbar=  1.01055052709105E+05
 cg2d: Sum(rhs),rhsMax =  -9.89061777271571E+01  1.31293417076873E+00
(PID.TID 0000.0001)  ploadbar=  1.01054377812538E+05
 cg2d: Sum(rhs),rhsMax =  -9.97938979661757E+01  1.30091152844762E+00
(PID.TID 0000.0001)  ploadbar=  1.01053702915971E+05
 cg2d: Sum(rhs),rhsMax =  -1.01050128651859E+02  1.28440846182538E+00
(PID.TID 0000.0001)  ploadbar=  1.01053028019404E+05
 cg2d: Sum(rhs),rhsMax =  -1.02338468817524E+02  1.26792303888894E+00
(PID.TID 0000.0001)  ploadbar=  1.01052353122837E+05
 cg2d: Sum(rhs),rhsMax =  -1.03576079070692E+02  1.25243923393404E+00
(PID.TID 0000.0001)  ploadbar=  1.01051792559225E+05
 cg2d: Sum(rhs),rhsMax =  -1.04793755606243E+02  1.23752931420711E+00
(PID.TID 0000.0001)  ploadbar=  1.01051231995613E+05
 cg2d: Sum(rhs),rhsMax =  -1.05984821246285E+02  1.22323884587266E+00
(PID.TID 0000.0001)  ploadbar=  1.01050671432002E+05
 cg2d: Sum(rhs),rhsMax =  -1.07164698947809E+02  1.20935790390852E+00
(PID.TID 0000.0001)  ploadbar=  1.01050110868390E+05
 cg2d: Sum(rhs),rhsMax =  -1.08308285736681E+02  1.19614163178427E+00
(PID.TID 0000.0001)  ploadbar=  1.01049550304778E+05
 cg2d: Sum(rhs),rhsMax =  -1.09505337231510E+02  1.18258385159022E+00
(PID.TID 0000.0001)  ploadbar=  1.01048989741166E+05
 cg2d: Sum(rhs),rhsMax =  -1.10734013900949E+02  1.16903761652070E+00
(PID.TID 0000.0001)  ploadbar=  1.01049103599286E+05
 cg2d: Sum(rhs),rhsMax =  -1.11657654906757E+02  1.15899431424254E+00
(PID.TID 0000.0001)  ploadbar=  1.01049217457406E+05
 cg2d: Sum(rhs),rhsMax =  -1.11236046534939E+02  1.16305745691452E+00
(PID.TID 0000.0001)  ploadbar=  1.01049331315526E+05
 cg2d: Sum(rhs),rhsMax =  -1.10909198771972E+02  1.16619174137014E+00
(PID.TID 0000.0001)  ploadbar=  1.01049445173646E+05
 cg2d: Sum(rhs),rhsMax =  -1.10690172434728E+02  1.16823520770768E+00
(PID.TID 0000.0001)  ploadbar=  1.01049559031767E+05
 cg2d: Sum(rhs),rhsMax =  -1.10573031619549E+02  1.16923296153343E+00
(PID.TID 0000.0001)  ploadbar=  1.01049672889887E+05
 cg2d: Sum(rhs),rhsMax =  -1.10588014180615E+02  1.16882644244223E+00
(PID.TID 0000.0001)  ploadbar=  1.01049323099528E+05
 cg2d: Sum(rhs),rhsMax =  -1.10575673097503E+02  1.16869797063811E+00
(PID.TID 0000.0001)  ploadbar=  1.01048973309170E+05
 cg2d: Sum(rhs),rhsMax =  -1.10581823530395E+02  1.16836203297515E+00
(PID.TID 0000.0001)  ploadbar=  1.01048623518812E+05
 cg2d: Sum(rhs),rhsMax =  -1.10643226983813E+02  1.16743198521756E+00
(PID.TID 0000.0001)  ploadbar=  1.01048273728454E+05
 cg2d: Sum(rhs),rhsMax =  -1.10755875267633E+02  1.16595465139027E+00
(PID.TID 0000.0001)  ploadbar=  1.01047923938096E+05
 cg2d: Sum(rhs),rhsMax =  -1.10931031967855E+02  1.16381442972940E+00
(PID.TID 0000.0001)  ploadbar=  1.01047574147737E+05
 cg2d: Sum(rhs),rhsMax =  -1.11216036947289E+02  1.16059495813525E+00
(PID.TID 0000.0001)  ploadbar=  1.01046111787836E+05
 cg2d: Sum(rhs),rhsMax =  -1.11505946142841E+02  1.15738963692013E+00
(PID.TID 0000.0001)  ploadbar=  1.01044649427934E+05
 cg2d: Sum(rhs),rhsMax =  -1.11815793613501E+02  1.15403837882072E+00
(PID.TID 0000.0001)  ploadbar=  1.01043187068032E+05
 cg2d: Sum(rhs),rhsMax =  -1.12151354539450E+02  1.15048269893180E+00
(PID.TID 0000.0001)  ploadbar=  1.01041724708130E+05
 cg2d: Sum(rhs),rhsMax =  -1.12516038115021E+02  1.14669130047872E+00
(PID.TID 0000.0001)  ploadbar=  1.01040262348228E+05
 cg2d: Sum(rhs),rhsMax =  -1.12916800758566E+02  1.14259779868249E+00
(PID.TID 0000.0001)  ploadbar=  1.01038799988327E+05
 cg2d: Sum(rhs),rhsMax =  -1.13370981988024E+02  1.13795619273428E+00
(PID.TID 0000.0001)  ploadbar=  1.01037923058345E+05
 cg2d: Sum(rhs),rhsMax =  -1.13496517619851E+02  1.13658705691198E+00
(PID.TID 0000.0001)  ploadbar=  1.01037046128363E+05
 cg2d: Sum(rhs),rhsMax =  -1.14361568216131E+02  1.12783064959284E+00
(PID.TID 0000.0001)  ploadbar=  1.01036169198381E+05
 cg2d: Sum(rhs),rhsMax =  -1.12020647189151E+02  1.15118233106575E+00
(PID.TID 0000.0001)  ploadbar=  1.01035292268399E+05
 cg2d: Sum(rhs),rhsMax =  -1.07175117491445E+02  1.20294291476472E+00
(PID.TID 0000.0001)  ploadbar=  1.01034415338417E+05
 cg2d: Sum(rhs),rhsMax =  -1.02752833386517E+02  1.25435112956567E+00
(PID.TID 0000.0001)  ploadbar=  1.01033538408435E+05
 cg2d: Sum(rhs),rhsMax =  -9.91823919973019E+01  1.29914225819686E+00
(PID.TID 0000.0001)  ploadbar=  1.01033319028179E+05
 cg2d: Sum(rhs),rhsMax =  -9.65910025513631E+01  1.33363455037769E+00
(PID.TID 0000.0001)  ploadbar=  1.01033099647924E+05
 cg2d: Sum(rhs),rhsMax =  -9.67402695218125E+01  1.33122119302297E+00
(PID.TID 0000.0001)  ploadbar=  1.01032880267668E+05
 cg2d: Sum(rhs),rhsMax =  -9.69826138059439E+01  1.32753871961402E+00
(PID.TID 0000.0001)  ploadbar=  1.01032660887413E+05
 cg2d: Sum(rhs),rhsMax =  -9.71341988062120E+01  1.32510310961783E+00
(PID.TID 0000.0001)  ploadbar=  1.01032441507157E+05
 cg2d: Sum(rhs),rhsMax =  -9.70775826631780E+01  1.32549736518592E+00
(PID.TID 0000.0001)  ploadbar=  1.01032222126901E+05
 cg2d: Sum(rhs),rhsMax =  -9.70791360845407E+01  1.32507932233250E+00
(PID.TID 0000.0001)  ploadbar=  1.01031015167768E+05
 cg2d: Sum(rhs),rhsMax =  -9.72332389486565E+01  1.32256144083717E+00
(PID.TID 0000.0001)  ploadbar=  1.01029808208634E+05
 cg2d: Sum(rhs),rhsMax =  -9.76620450564645E+01  1.31631881907265E+00
(PID.TID 0000.0001)  ploadbar=  1.01028601249500E+05
 cg2d: Sum(rhs),rhsMax =  -9.47149124131669E+01  1.35680797463662E+00
(PID.TID 0000.0001)  ploadbar=  1.01027394290366E+05
 cg2d: Sum(rhs),rhsMax =  -9.19003914354849E+01  1.39785822675519E+00
(PID.TID 0000.0001)  ploadbar=  1.01026187331232E+05
 cg2d: Sum(rhs),rhsMax =  -8.93033866492051E+01  1.43797375724883E+00
(PID.TID 0000.0001)  ploadbar=  1.01024980372098E+05
 cg2d: Sum(rhs),rhsMax =  -8.68881688663334E+01  1.47744603170800E+00
(PID.TID 0000.0001)  ploadbar=  1.01024086577425E+05
 cg2d: Sum(rhs),rhsMax =  -8.46757173903331E+01  1.51557254317042E+00
(PID.TID 0000.0001)  ploadbar=  1.01023192782753E+05
 cg2d: Sum(rhs),rhsMax =  -8.26949560440395E+01  1.55141538450971E+00
(PID.TID 0000.0001)  ploadbar=  1.01022298988080E+05
 cg2d: Sum(rhs),rhsMax =  -8.09732063020807E+01  1.58396325428477E+00
(PID.TID 0000.0001)  ploadbar=  1.01021405193407E+05
 cg2d: Sum(rhs),rhsMax =  -7.97250649922071E+01  1.60834211087876E+00
(PID.TID 0000.0001)  ploadbar=  1.01020511398735E+05
 cg2d: Sum(rhs),rhsMax =  -7.90603165937831E+01  1.62147052726257E+00
(PID.TID 0000.0001)  ploadbar=  1.01019617604062E+05
 cg2d: Sum(rhs),rhsMax =  -7.85423491399460E+01  1.63174210964319E+00
(PID.TID 0000.0001)  ploadbar=  1.01018880016955E+05
 cg2d: Sum(rhs),rhsMax =  -7.80309049993564E+01  1.64198074135482E+00
(PID.TID 0000.0001)  ploadbar=  1.01018142429847E+05
 cg2d: Sum(rhs),rhsMax =  -7.75205531795459E+01  1.65229257747512E+00
(PID.TID 0000.0001)  ploadbar=  1.01017404842739E+05
 cg2d: Sum(rhs),rhsMax =  -7.70651676665696E+01  1.66151184493092E+00
(PID.TID 0000.0001)  ploadbar=  1.01016667255632E+05
 cg2d: Sum(rhs),rhsMax =  -7.69553832386718E+01  1.66328824504313E+00
(PID.TID 0000.0001)  ploadbar=  1.01015929668524E+05
 cg2d: Sum(rhs),rhsMax =  -7.70609490864604E+01  1.66035991979308E+00
(PID.TID 0000.0001)  ploadbar=  1.01015192081417E+05
 cg2d: Sum(rhs),rhsMax =  -7.72971359340987E+01  1.65468546083332E+00
(PID.TID 0000.0001)  ploadbar=  1.01014828593766E+05
 cg2d: Sum(rhs),rhsMax =  -7.77192745617077E+01  1.64514397234199E+00
(PID.TID 0000.0001)  ploadbar=  1.01014465106115E+05
 cg2d: Sum(rhs),rhsMax =  -7.85084468383450E+01  1.62809507401978E+00
(PID.TID 0000.0001)  ploadbar=  1.01014101618464E+05
 cg2d: Sum(rhs),rhsMax =  -7.91824560379891E+01  1.61375771934046E+00
(PID.TID 0000.0001)  ploadbar=  1.01013738130813E+05
 cg2d: Sum(rhs),rhsMax =  -7.98394365871692E+01  1.60002385372439E+00
(PID.TID 0000.0001)  ploadbar=  1.01013374643161E+05
 cg2d: Sum(rhs),rhsMax =  -8.04490755746569E+01  1.58745791358710E+00
(PID.TID 0000.0001)  ploadbar=  1.01013011155510E+05
 cg2d: Sum(rhs),rhsMax =  -7.99505243785876E+01  1.59693952839131E+00
(PID.TID 0000.0001)  ploadbar=  1.01012523228494E+05
 cg2d: Sum(rhs),rhsMax =  -8.04336962793064E+01  1.58695639360633E+00
(PID.TID 0000.0001)  ploadbar=  1.01012035301478E+05
 cg2d: Sum(rhs),rhsMax =  -8.08823823466276E+01  1.57778922327494E+00
(PID.TID 0000.0001)  ploadbar=  1.01011547374462E+05
 cg2d: Sum(rhs),rhsMax =  -8.12819012963730E+01  1.56969392994891E+00
(PID.TID 0000.0001)  ploadbar=  1.01011059447446E+05
 cg2d: Sum(rhs),rhsMax =  -8.16221877924985E+01  1.56283028567570E+00
(PID.TID 0000.0001)  ploadbar=  1.01010571520430E+05
 cg2d: Sum(rhs),rhsMax =  -8.19018649876448E+01  1.55719262582975E+00
(PID.TID 0000.0001)  ploadbar=  1.01010083593413E+05
 cg2d: Sum(rhs),rhsMax =  -8.21250442206534E+01  1.55268345018944E+00
(PID.TID 0000.0001)  ploadbar=  1.01009811659654E+05
 cg2d: Sum(rhs),rhsMax =  -8.22897070865885E+01  1.54930731118210E+00
(PID.TID 0000.0001)  ploadbar=  1.01009539725895E+05
 cg2d: Sum(rhs),rhsMax =  -8.24436412902827E+01  1.54614636253739E+00
(PID.TID 0000.0001)  ploadbar=  1.01009267792136E+05
 cg2d: Sum(rhs),rhsMax =  -8.26456766293113E+01  1.54209829622499E+00
(PID.TID 0000.0001)  ploadbar=  1.01008995858376E+05
 cg2d: Sum(rhs),rhsMax =  -8.29379743344179E+01  1.53639185782684E+00
(PID.TID 0000.0001)  ploadbar=  1.01008723924617E+05
 cg2d: Sum(rhs),rhsMax =  -8.32770685823070E+01  1.52985681595119E+00
(PID.TID 0000.0001)  ploadbar=  1.01008451990858E+05
 cg2d: Sum(rhs),rhsMax =  -8.34651590666866E+01  1.52610101023243E+00
(PID.TID 0000.0001)  ploadbar=  1.01008382831036E+05
 cg2d: Sum(rhs),rhsMax =  -8.34992693603033E+01  1.52513188100068E+00
(PID.TID 0000.0001)  ploadbar=  1.01008313671213E+05
 cg2d: Sum(rhs),rhsMax =  -8.33984268614766E+01  1.52658622078560E+00
(PID.TID 0000.0001)  ploadbar=  1.01008244511391E+05
 cg2d: Sum(rhs),rhsMax =  -8.32835255346056E+01  1.52825411868983E+00
(PID.TID 0000.0001)  ploadbar=  1.01008175351569E+05
 cg2d: Sum(rhs),rhsMax =  -8.32086620543771E+01  1.52913891232620E+00
(PID.TID 0000.0001)  ploadbar=  1.01008106191747E+05
 cg2d: Sum(rhs),rhsMax =  -8.32161784218292E+01  1.52845509875182E+00
(PID.TID 0000.0001)  ploadbar=  1.01008037031924E+05
 cg2d: Sum(rhs),rhsMax =  -8.32889133143942E+01  1.52659651325800E+00
(PID.TID 0000.0001)  ploadbar=  1.01008266635890E+05
 cg2d: Sum(rhs),rhsMax =  -8.34321741316328E+01  1.52347030098243E+00
(PID.TID 0000.0001)  ploadbar=  1.01008496239856E+05
 cg2d: Sum(rhs),rhsMax =  -8.36238896542096E+01  1.51948992832107E+00
(PID.TID 0000.0001)  ploadbar=  1.01008725843821E+05
 cg2d: Sum(rhs),rhsMax =  -8.38415866829369E+01  1.51506524830296E+00
(PID.TID 0000.0001)  ploadbar=  1.01008955447787E+05
 cg2d: Sum(rhs),rhsMax =  -8.40973324771547E+01  1.50997563958596E+00
(PID.TID 0000.0001)  ploadbar=  1.01009185051752E+05
 cg2d: Sum(rhs),rhsMax =  -8.42983265480514E+01  1.50587595647202E+00
(PID.TID 0000.0001)  ploadbar=  1.01009414655718E+05
 cg2d: Sum(rhs),rhsMax =  -8.43956819850369E+01  1.50362494886960E+00
(PID.TID 0000.0001)  ploadbar=  1.01010056195046E+05
 cg2d: Sum(rhs),rhsMax =  -8.43839089560899E+01  1.50329963717637E+00
(PID.TID 0000.0001)  ploadbar=  1.01010697734373E+05
 cg2d: Sum(rhs),rhsMax =  -8.42966524812268E+01  1.50429444882600E+00
(PID.TID 0000.0001)  ploadbar=  1.01011339273701E+05
 cg2d: Sum(rhs),rhsMax =  -8.41886514741095E+01  1.50563206575056E+00
(PID.TID 0000.0001)  ploadbar=  1.01011980813028E+05
 cg2d: Sum(rhs),rhsMax =  -8.41187619169019E+01  1.50625922516927E+00
(PID.TID 0000.0001)  ploadbar=  1.01012622352356E+05
 cg2d: Sum(rhs),rhsMax =  -8.41301563744743E+01  1.50540041907226E+00
(PID.TID 0000.0001)  ploadbar=  1.01013263891684E+05
 cg2d: Sum(rhs),rhsMax =  -8.42252752174206E+01  1.50308533077882E+00
(PID.TID 0000.0001)  ploadbar=  1.01012232561383E+05
 cg2d: Sum(rhs),rhsMax =  -8.44209314680931E+01  1.49901687868866E+00
(PID.TID 0000.0001)  ploadbar=  1.01011201231082E+05
 cg2d: Sum(rhs),rhsMax =  -8.47140453495729E+01  1.49327167112170E+00
(PID.TID 0000.0001)  ploadbar=  1.01010169900781E+05
 cg2d: Sum(rhs),rhsMax =  -8.51451364764245E+01  1.48517257230012E+00
(PID.TID 0000.0001)  ploadbar=  1.01009138570481E+05
 cg2d: Sum(rhs),rhsMax =  -8.57365282404729E+01  1.47440349145816E+00
(PID.TID 0000.0001)  ploadbar=  1.01008107240180E+05
 cg2d: Sum(rhs),rhsMax =  -8.64478195373805E+01  1.46175472080970E+00
(PID.TID 0000.0001)  ploadbar=  1.01007075909879E+05
 cg2d: Sum(rhs),rhsMax =  -8.70378734466890E+01  1.45129234110765E+00
(PID.TID 0000.0001)  ploadbar=  1.01007186082476E+05
 cg2d: Sum(rhs),rhsMax =  -8.74697231964400E+01  1.44353469466325E+00
(PID.TID 0000.0001)  ploadbar=  1.01007296255073E+05
 cg2d: Sum(rhs),rhsMax =  -8.77301421234789E+01  1.43861480060481E+00
(PID.TID 0000.0001)  ploadbar=  1.01007406427669E+05
 cg2d: Sum(rhs),rhsMax =  -8.78725954707060E+01  1.43560027134112E+00
(PID.TID 0000.0001)  ploadbar=  1.01007516600266E+05
 cg2d: Sum(rhs),rhsMax =  -8.79684885906735E+01  1.43330214370262E+00
(PID.TID 0000.0001)  ploadbar=  1.01007626772863E+05
 cg2d: Sum(rhs),rhsMax =  -8.77388598765327E+01  1.43626346014717E+00
(PID.TID 0000.0001)  ploadbar=  1.01007736945460E+05
 cg2d: Sum(rhs),rhsMax =  -8.72830349886908E+01  1.44301322644194E+00
(PID.TID 0000.0001)  ploadbar=  1.01007281256670E+05
 cg2d: Sum(rhs),rhsMax =  -8.69048084906769E+01  1.44857918877709E+00
(PID.TID 0000.0001)  ploadbar=  1.01006825567880E+05
 cg2d: Sum(rhs),rhsMax =  -8.66011179226710E+01  1.45297851704996E+00
(PID.TID 0000.0001)  ploadbar=  1.01006369879090E+05
 cg2d: Sum(rhs),rhsMax =  -8.63611044887987E+01  1.45636556947021E+00
(PID.TID 0000.0001)  ploadbar=  1.01005914190300E+05
 cg2d: Sum(rhs),rhsMax =  -8.61930825405555E+01  1.45857749312051E+00
(PID.TID 0000.0001)  ploadbar=  1.01005458501511E+05
 cg2d: Sum(rhs),rhsMax =  -8.61612860860365E+01  1.45850488489589E+00
(PID.TID 0000.0001)  ploadbar=  1.01005002812721E+05
 cg2d: Sum(rhs),rhsMax =  -8.61304476324024E+01  1.45842234856617E+00
(PID.TID 0000.0001)  ploadbar=  1.01005219681516E+05
 cg2d: Sum(rhs),rhsMax =  -8.61511944674842E+01  1.45746331167880E+00
(PID.TID 0000.0001)  ploadbar=  1.01005436550310E+05
 cg2d: Sum(rhs),rhsMax =  -8.62135771606362E+01  1.45579442592722E+00
(PID.TID 0000.0001)  ploadbar=  1.01005653419105E+05
 cg2d: Sum(rhs),rhsMax =  -8.63131187417163E+01  1.45349137326325E+00
(PID.TID 0000.0001)  ploadbar=  1.01005870287900E+05
 cg2d: Sum(rhs),rhsMax =  -8.39007587814297E+01  1.49462904853094E+00
(PID.TID 0000.0001)  ploadbar=  1.01006087156694E+05
 cg2d: Sum(rhs),rhsMax =  -8.18767819332822E+01  1.53089282629003E+00
(PID.TID 0000.0001)  ploadbar=  1.01006304025489E+05
 cg2d: Sum(rhs),rhsMax =  -8.01684845536231E+01  1.56286706296891E+00
(PID.TID 0000.0001)  ploadbar=  1.01006653888064E+05
 cg2d: Sum(rhs),rhsMax =  -7.87725779759299E+01  1.58994661739326E+00
(PID.TID 0000.0001)  ploadbar=  1.01007003750640E+05
 cg2d: Sum(rhs),rhsMax =  -7.76186258912795E+01  1.61299851923916E+00
(PID.TID 0000.0001)  ploadbar=  1.01007353613215E+05
 cg2d: Sum(rhs),rhsMax =  -7.66938534128457E+01  1.63189141252450E+00
(PID.TID 0000.0001)  ploadbar=  1.01007703475790E+05
 cg2d: Sum(rhs),rhsMax =  -7.59561280914145E+01  1.64721046465138E+00
(PID.TID 0000.0001)  ploadbar=  1.01008053338366E+05
 cg2d: Sum(rhs),rhsMax =  -7.53665609430792E+01  1.65959304126980E+00
(PID.TID 0000.0001)  ploadbar=  1.01008403200941E+05
 cg2d: Sum(rhs),rhsMax =  -7.48446515049757E+01  1.67063316163583E+00
(PID.TID 0000.0001)  ploadbar=  1.01008588573197E+05
 cg2d: Sum(rhs),rhsMax =  -7.43820065177665E+01  1.68045367736515E+00
(PID.TID 0000.0001)  ploadbar=  1.01008773945453E+05
 cg2d: Sum(rhs),rhsMax =  -7.39783005334450E+01  1.68901141258248E+00
(PID.TID 0000.0001)  ploadbar=  1.01008959317708E+05
 cg2d: Sum(rhs),rhsMax =  -7.36395499248016E+01  1.69612334162705E+00
(PID.TID 0000.0001)  ploadbar=  1.01009144689964E+05
 cg2d: Sum(rhs),rhsMax =  -7.34327636642941E+01  1.70019455010868E+00
(PID.TID 0000.0001)  ploadbar=  1.01009330062220E+05
 cg2d: Sum(rhs),rhsMax =  -7.34446151825727E+01  1.69916631230972E+00
(PID.TID 0000.0001)  ploadbar=  1.01009515434476E+05
 cg2d: Sum(rhs),rhsMax =  -7.35791213974061E+01  1.69534504746958E+00
(PID.TID 0000.0001)  ploadbar=  1.01009338117609E+05
 cg2d: Sum(rhs),rhsMax =  -7.38270556608734E+01  1.68896877253688E+00
(PID.TID 0000.0001)  ploadbar=  1.01009160800742E+05
 cg2d: Sum(rhs),rhsMax =  -7.41161374106684E+01  1.68172586065367E+00
(PID.TID 0000.0001)  ploadbar=  1.01008983483875E+05
 cg2d: Sum(rhs),rhsMax =  -7.43513658494375E+01  1.67576898842753E+00
(PID.TID 0000.0001)  ploadbar=  1.01008806167008E+05
 cg2d: Sum(rhs),rhsMax =  -7.45812235395673E+01  1.66997599585921E+00
(PID.TID 0000.0001)  ploadbar=  1.01008628850141E+05
 cg2d: Sum(rhs),rhsMax =  -7.47774957221358E+01  1.66496361720523E+00
(PID.TID 0000.0001)  ploadbar=  1.01008451533274E+05
 cg2d: Sum(rhs),rhsMax =  -7.49422442616068E+01  1.66066300845315E+00
(PID.TID 0000.0001)  ploadbar=  1.01008344920993E+05
 cg2d: Sum(rhs),rhsMax =  -7.50502160650927E+01  1.65761831136325E+00
(PID.TID 0000.0001)  ploadbar=  1.01008238308713E+05
 cg2d: Sum(rhs),rhsMax =  -7.50606366408773E+01  1.65671439709882E+00
(PID.TID 0000.0001)  ploadbar=  1.01008131696432E+05
 cg2d: Sum(rhs),rhsMax =  -7.48437764018561E+01  1.66081967057218E+00
(PID.TID 0000.0001)  ploadbar=  1.01008025084151E+05
 cg2d: Sum(rhs),rhsMax =  -7.47043961014854E+01  1.66320480590111E+00
(PID.TID 0000.0001)  ploadbar=  1.01007918471871E+05
 cg2d: Sum(rhs),rhsMax =  -7.46640860289703E+01  1.66337656023365E+00
(PID.TID 0000.0001)  ploadbar=  1.01007811859590E+05
 cg2d: Sum(rhs),rhsMax =  -7.46857516266971E+01  1.66223511524787E+00
(PID.TID 0000.0001)  ploadbar=  1.01006176724662E+05
 cg2d: Sum(rhs),rhsMax =  -7.47634106308966E+01  1.65990085557793E+00
(PID.TID 0000.0001)  ploadbar=  1.01004541589735E+05
 cg2d: Sum(rhs),rhsMax =  -7.48648336540057E+01  1.65708679738314E+00
(PID.TID 0000.0001)  ploadbar=  1.01002906454807E+05
 cg2d: Sum(rhs),rhsMax =  -7.49853736961887E+01  1.65389722660102E+00
(PID.TID 0000.0001)  ploadbar=  1.01001271319879E+05
 cg2d: Sum(rhs),rhsMax =  -7.51204822811899E+01  1.65043389307062E+00
(PID.TID 0000.0001)  ploadbar=  1.00999636184951E+05
 cg2d: Sum(rhs),rhsMax =  -7.52238375179581E+01  1.64771195050630E+00
(PID.TID 0000.0001)  ploadbar=  1.00998001050023E+05
 cg2d: Sum(rhs),rhsMax =  -7.52912686160381E+01  1.64575427965472E+00
(PID.TID 0000.0001)  ploadbar=  1.00997569634129E+05
 cg2d: Sum(rhs),rhsMax =  -7.43719903224744E+01  1.66557301257387E+00
(PID.TID 0000.0001)  ploadbar=  1.00997138218234E+05
 cg2d: Sum(rhs),rhsMax =  -7.34582515375765E+01  1.68572130728936E+00
(PID.TID 0000.0001)  ploadbar=  1.00996706802340E+05
 cg2d: Sum(rhs),rhsMax =  -7.25893340277365E+01  1.70527837639659E+00
(PID.TID 0000.0001)  ploadbar=  1.00996275386445E+05
 cg2d: Sum(rhs),rhsMax =  -7.17579921635869E+01  1.72435879215076E+00
(PID.TID 0000.0001)  ploadbar=  1.00995843970551E+05
 cg2d: Sum(rhs),rhsMax =  -7.09690451258772E+01  1.74279321410992E+00
(PID.TID 0000.0001)  ploadbar=  1.00995412554656E+05
 cg2d: Sum(rhs),rhsMax =  -7.02191640871808E+01  1.76069747147498E+00
(PID.TID 0000.0001)  ploadbar=  1.00995176021064E+05
 cg2d: Sum(rhs),rhsMax =  -7.08017697802708E+01  1.74553406499462E+00
(PID.TID 0000.0001)  ploadbar=  1.00994939487472E+05
 cg2d: Sum(rhs),rhsMax =  -7.11979286575108E+01  1.73517405431317E+00
(PID.TID 0000.0001)  ploadbar=  1.00994702953881E+05
 cg2d: Sum(rhs),rhsMax =  -7.15250011787323E+01  1.72661426492267E+00
(PID.TID 0000.0001)  ploadbar=  1.00994466420289E+05
 cg2d: Sum(rhs),rhsMax =  -7.18472904844372E+01  1.71825968593561E+00
(PID.TID 0000.0001)  ploadbar=  1.00994229886697E+05
 cg2d: Sum(rhs),rhsMax =  -7.21632455016876E+01  1.71013097969743E+00
(PID.TID 0000.0001)  ploadbar=  1.00993993353105E+05
 cg2d: Sum(rhs),rhsMax =  -7.24614846494113E+01  1.70248978964251E+00
(PID.TID 0000.0001)  ploadbar=  1.00993566290419E+05
 cg2d: Sum(rhs),rhsMax =  -7.27517845443568E+01  1.69509294399137E+00
(PID.TID 0000.0001)  ploadbar=  1.00993139227732E+05
 cg2d: Sum(rhs),rhsMax =  -7.30306851235187E+01  1.68801055292293E+00
(PID.TID 0000.0001)  ploadbar=  1.00992712165046E+05
 cg2d: Sum(rhs),rhsMax =  -7.30161504818541E+01  1.68772700099744E+00
(PID.TID 0000.0001)  ploadbar=  1.00992285102359E+05
 cg2d: Sum(rhs),rhsMax =  -7.28830482539825E+01  1.69017738699368E+00
(PID.TID 0000.0001)  ploadbar=  1.00991858039673E+05
 cg2d: Sum(rhs),rhsMax =  -7.27923936885261E+01  1.69163852366904E+00
(PID.TID 0000.0001)  ploadbar=  1.00991430976987E+05
 cg2d: Sum(rhs),rhsMax =  -7.27482581027314E+01  1.69204870749836E+00
(PID.TID 0000.0001)  ploadbar=  1.00991302255753E+05
 cg2d: Sum(rhs),rhsMax =  -7.27618400758913E+01  1.69112327654484E+00
(PID.TID 0000.0001)  ploadbar=  1.00991173534520E+05
 cg2d: Sum(rhs),rhsMax =  -7.28352470435920E+01  1.68880842506921E+00
(PID.TID 0000.0001)  ploadbar=  1.00991044813287E+05
 cg2d: Sum(rhs),rhsMax =  -7.29635276131573E+01  1.68522474674376E+00
(PID.TID 0000.0001)  ploadbar=  1.00990916092054E+05
 cg2d: Sum(rhs),rhsMax =  -7.31381593826119E+01  1.68058187942483E+00
(PID.TID 0000.0001)  ploadbar=  1.00990787370821E+05
 cg2d: Sum(rhs),rhsMax =  -7.34138901944987E+01  1.67364481698496E+00
(PID.TID 0000.0001)  ploadbar=  1.00990658649588E+05
 cg2d: Sum(rhs),rhsMax =  -7.35904233588626E+01  1.66897873998615E+00
(PID.TID 0000.0001)  ploadbar=  1.00991150435881E+05
 cg2d: Sum(rhs),rhsMax =  -7.34128175819650E+01  1.67233097438396E+00
(PID.TID 0000.0001)  ploadbar=  1.00991642222175E+05
 cg2d: Sum(rhs),rhsMax =  -7.32399092956978E+01  1.67555307225369E+00
(PID.TID 0000.0001)  ploadbar=  1.00992134008468E+05
 cg2d: Sum(rhs),rhsMax =  -7.30958348103939E+01  1.67808414847359E+00
(PID.TID 0000.0001)  ploadbar=  1.00992625794762E+05
 cg2d: Sum(rhs),rhsMax =  -7.29545523943689E+01  1.68051248753345E+00
(PID.TID 0000.0001)  ploadbar=  1.00993117581055E+05
 cg2d: Sum(rhs),rhsMax =  -7.28147717940478E+01  1.68286317792051E+00
(PID.TID 0000.0001)  ploadbar=  1.00993609367349E+05
 cg2d: Sum(rhs),rhsMax =  -7.26764782671444E+01  1.68523868567523E+00
(PID.TID 0000.0001)  ploadbar=  1.00994272671245E+05
 cg2d: Sum(rhs),rhsMax =  -7.25078470038282E+01  1.68837258140244E+00
(PID.TID 0000.0001)  ploadbar=  1.00994935975142E+05
 cg2d: Sum(rhs),rhsMax =  -7.23150569191473E+01  1.69213008004728E+00
(PID.TID 0000.0001)  ploadbar=  1.00995599279039E+05
 cg2d: Sum(rhs),rhsMax =  -7.21398846677317E+01  1.69553510022428E+00
(PID.TID 0000.0001)  ploadbar=  1.00996262582935E+05
 cg2d: Sum(rhs),rhsMax =  -7.20284192071557E+01  1.69748519174789E+00
(PID.TID 0000.0001)  ploadbar=  1.00996925886832E+05
 cg2d: Sum(rhs),rhsMax =  -7.20023721247594E+01  1.69744690234897E+00
(PID.TID 0000.0001)  ploadbar=  1.00997589190729E+05
 cg2d: Sum(rhs),rhsMax =  -7.19716000797478E+01  1.69751422831257E+00
(PID.TID 0000.0001)  ploadbar=  1.00999434833049E+05
 cg2d: Sum(rhs),rhsMax =  -7.19633417507524E+01  1.69703935893510E+00
(PID.TID 0000.0001)  ploadbar=  1.01001280475370E+05
 cg2d: Sum(rhs),rhsMax =  -7.19815819051018E+01  1.69592142482760E+00
(PID.TID 0000.0001)  ploadbar=  1.01003126117691E+05
 cg2d: Sum(rhs),rhsMax =  -7.20234208114384E+01  1.69422693327180E+00
(PID.TID 0000.0001)  ploadbar=  1.01004971760011E+05
 cg2d: Sum(rhs),rhsMax =  -7.20911467779802E+01  1.69190435032642E+00
(PID.TID 0000.0001)  ploadbar=  1.01006817402332E+05
 cg2d: Sum(rhs),rhsMax =  -7.21864102343683E+01  1.68892170224697E+00
(PID.TID 0000.0001)  ploadbar=  1.01008663044653E+05
 cg2d: Sum(rhs),rhsMax =  -7.23190655242138E+01  1.68513374305468E+00
(PID.TID 0000.0001)  ploadbar=  1.01009516014277E+05
 cg2d: Sum(rhs),rhsMax =  -7.24584142352243E+01  1.68124545588974E+00
(PID.TID 0000.0001)  ploadbar=  1.01010368983900E+05
 cg2d: Sum(rhs),rhsMax =  -7.25940335275062E+01  1.67749688342652E+00
(PID.TID 0000.0001)  ploadbar=  1.01011221953524E+05
 cg2d: Sum(rhs),rhsMax =  -7.27192948204830E+01  1.67403759071047E+00
(PID.TID 0000.0001)  ploadbar=  1.01012074923147E+05
 cg2d: Sum(rhs),rhsMax =  -7.28635802408597E+01  1.67019126999884E+00
(PID.TID 0000.0001)  ploadbar=  1.01012927892771E+05
 cg2d: Sum(rhs),rhsMax =  -7.30312022592319E+01  1.66585883027249E+00
(PID.TID 0000.0001)  ploadbar=  1.01013780862395E+05
 cg2d: Sum(rhs),rhsMax =  -7.31583450369129E+01  1.66243563878636E+00
(PID.TID 0000.0001)  ploadbar=  1.01012978704038E+05
 cg2d: Sum(rhs),rhsMax =  -7.32676438588591E+01  1.65939624008305E+00
(PID.TID 0000.0001)  ploadbar=  1.01012176545682E+05
 cg2d: Sum(rhs),rhsMax =  -7.33673437647295E+01  1.65654682696133E+00
(PID.TID 0000.0001)  ploadbar=  1.01011374387326E+05
 cg2d: Sum(rhs),rhsMax =  -7.34755968918210E+01  1.65347342704011E+00
(PID.TID 0000.0001)  ploadbar=  1.01010572228969E+05
 cg2d: Sum(rhs),rhsMax =  -7.36052157432985E+01  1.64988661955136E+00
(PID.TID 0000.0001)  ploadbar=  1.01009770070613E+05
 cg2d: Sum(rhs),rhsMax =  -7.37594643026803E+01  1.64571547714408E+00
(PID.TID 0000.0001)  ploadbar=  1.01008967912257E+05
 cg2d: Sum(rhs),rhsMax =  -7.38946457603498E+01  1.64202381188430E+00
(PID.TID 0000.0001)  ploadbar=  1.01007902221550E+05
 cg2d: Sum(rhs),rhsMax =  -7.39867047187754E+01  1.63933544436911E+00
(PID.TID 0000.0001)  ploadbar=  1.01006836530843E+05
 cg2d: Sum(rhs),rhsMax =  -7.40198984554461E+01  1.63798476579772E+00
(PID.TID 0000.0001)  ploadbar=  1.01005770840136E+05
 cg2d: Sum(rhs),rhsMax =  -7.40283678066403E+01  1.63720716705007E+00
(PID.TID 0000.0001)  ploadbar=  1.01004705149429E+05
 cg2d: Sum(rhs),rhsMax =  -7.40167732066598E+01  1.63689383821249E+00
(PID.TID 0000.0001)  ploadbar=  1.01003639458723E+05
 cg2d: Sum(rhs),rhsMax =  -7.40027633147013E+01  1.63665136157127E+00
(PID.TID 0000.0001)  ploadbar=  1.01002573768016E+05
 cg2d: Sum(rhs),rhsMax =  -7.39636499936151E+01  1.63694989290309E+00
(PID.TID 0000.0001)  ploadbar=  1.01001160029187E+05
 cg2d: Sum(rhs),rhsMax =  -7.38954233096230E+01  1.63787257308730E+00
(PID.TID 0000.0001)  ploadbar=  1.00999746290359E+05
 cg2d: Sum(rhs),rhsMax =  -7.37982982600771E+01  1.63941324820575E+00
(PID.TID 0000.0001)  ploadbar=  1.00998332551530E+05
 cg2d: Sum(rhs),rhsMax =  -7.36772798242879E+01  1.64146098352873E+00
(PID.TID 0000.0001)  ploadbar=  1.00996918812701E+05
 cg2d: Sum(rhs),rhsMax =  -7.35385463131396E+01  1.64388207804042E+00
(PID.TID 0000.0001)  ploadbar=  1.00995505073873E+05
 cg2d: Sum(rhs),rhsMax =  -7.34004351325105E+01  1.64627424748153E+00
(PID.TID 0000.0001)  ploadbar=  1.00994091335044E+05
 cg2d: Sum(rhs),rhsMax =  -7.32735570026624E+01  1.64848006229502E+00
(PID.TID 0000.0001)  ploadbar=  1.00993687957754E+05
 cg2d: Sum(rhs),rhsMax =  -7.31522123254986E+01  1.65061523385849E+00
(PID.TID 0000.0001)  ploadbar=  1.00993284580463E+05
 cg2d: Sum(rhs),rhsMax =  -7.30420245847714E+01  1.65254798878354E+00
(PID.TID 0000.0001)  ploadbar=  1.00992881203173E+05
 cg2d: Sum(rhs),rhsMax =  -7.29417550430675E+01  1.65430234269804E+00
(PID.TID 0000.0001)  ploadbar=  1.00992477825883E+05
 cg2d: Sum(rhs),rhsMax =  -7.28902726506750E+01  1.65499028540569E+00
(PID.TID 0000.0001)  ploadbar=  1.00992074448592E+05
 cg2d: Sum(rhs),rhsMax =  -7.28988631115727E+01  1.65434841940133E+00
(PID.TID 0000.0001)  ploadbar=  1.00991671071302E+05
 cg2d: Sum(rhs),rhsMax =  -7.28730056532856E+01  1.65446875741760E+00
(PID.TID 0000.0001)  ploadbar=  1.00992372901243E+05
 cg2d: Sum(rhs),rhsMax =  -7.28133704898278E+01  1.65533164396673E+00
(PID.TID 0000.0001)  ploadbar=  1.00993074731184E+05
 cg2d: Sum(rhs),rhsMax =  -7.26512596532007E+01  1.65850117053991E+00
(PID.TID 0000.0001)  ploadbar=  1.00993776561126E+05
 cg2d: Sum(rhs),rhsMax =  -7.24399763745403E+01  1.66277844020456E+00
(PID.TID 0000.0001)  ploadbar=  1.00994478391067E+05
 cg2d: Sum(rhs),rhsMax =  -7.22277584953380E+01  1.66706233760238E+00
(PID.TID 0000.0001)  ploadbar=  1.00995180221008E+05
 cg2d: Sum(rhs),rhsMax =  -7.20460882950163E+01  1.67061777678101E+00
(PID.TID 0000.0001)  ploadbar=  1.00995882050949E+05
 cg2d: Sum(rhs),rhsMax =  -7.19319052503847E+01  1.67263935066977E+00
(PID.TID 0000.0001)  ploadbar=  1.00995987467059E+05
 cg2d: Sum(rhs),rhsMax =  -7.20785522217551E+01  1.66862270722897E+00
(PID.TID 0000.0001)  ploadbar=  1.00996092883169E+05
 cg2d: Sum(rhs),rhsMax =  -7.22314276336208E+01  1.66448893569047E+00
(PID.TID 0000.0001)  ploadbar=  1.00996198299279E+05
 cg2d: Sum(rhs),rhsMax =  -7.23887113947907E+01  1.66027392271213E+00
(PID.TID 0000.0001)  ploadbar=  1.00996303715389E+05
 cg2d: Sum(rhs),rhsMax =  -7.25907087908955E+01  1.65505061017358E+00
(PID.TID 0000.0001)  ploadbar=  1.00996409131499E+05
 cg2d: Sum(rhs),rhsMax =  -7.28205581323477E+01  1.64921194049680E+00
(PID.TID 0000.0001)  ploadbar=  1.00996514547609E+05
 cg2d: Sum(rhs),rhsMax =  -7.30336282757664E+01  1.64378508326585E+00
(PID.TID 0000.0001)  ploadbar=  1.00997443992891E+05
 cg2d: Sum(rhs),rhsMax =  -7.32343365803340E+01  1.63865909352785E+00
(PID.TID 0000.0001)  ploadbar=  1.00998373438173E+05
 cg2d: Sum(rhs),rhsMax =  -7.34236915011164E+01  1.63380393191858E+00
(PID.TID 0000.0001)  ploadbar=  1.00999302883455E+05
 cg2d: Sum(rhs),rhsMax =  -7.36033775305353E+01  1.62917271355980E+00
(PID.TID 0000.0001)  ploadbar=  1.01000232328737E+05
 cg2d: Sum(rhs),rhsMax =  -7.37760388168283E+01  1.62470148393551E+00
(PID.TID 0000.0001)  ploadbar=  1.01001161774019E+05
 cg2d: Sum(rhs),rhsMax =  -7.39429073835897E+01  1.62036191371668E+00
(PID.TID 0000.0001)  ploadbar=  1.01002091219301E+05
 cg2d: Sum(rhs),rhsMax =  -7.40946728874014E+01  1.61640576789811E+00
(PID.TID 0000.0001)  ploadbar=  1.01005213665892E+05
 cg2d: Sum(rhs),rhsMax =  -7.42373883699418E+01  1.61268575245493E+00
(PID.TID 0000.0001)  ploadbar=  1.01008336112482E+05
 cg2d: Sum(rhs),rhsMax =  -7.43758573996881E+01  1.60909469324393E+00
(PID.TID 0000.0001)  ploadbar=  1.01011458559073E+05
 cg2d: Sum(rhs),rhsMax =  -7.45076419517625E+01  1.60568015134137E+00
(PID.TID 0000.0001)  ploadbar=  1.01014581005664E+05
 cg2d: Sum(rhs),rhsMax =  -7.45923218896391E+01  1.60330743969354E+00
(PID.TID 0000.0001)  ploadbar=  1.01017703452255E+05
 cg2d: Sum(rhs),rhsMax =  -7.47084788918184E+01  1.60027926857641E+00
(PID.TID 0000.0001)  ploadbar=  1.01020825898845E+05
 cg2d: Sum(rhs),rhsMax =  -7.48100868858445E+01  1.59754547201097E+00
(PID.TID 0000.0001)  ploadbar=  1.01022076509501E+05
 cg2d: Sum(rhs),rhsMax =  -7.49048245174362E+01  1.59493208339497E+00
(PID.TID 0000.0001)  ploadbar=  1.01023327120156E+05
 cg2d: Sum(rhs),rhsMax =  -7.50056441128574E+01  1.59215851693081E+00
(PID.TID 0000.0001)  ploadbar=  1.01024577730811E+05
 cg2d: Sum(rhs),rhsMax =  -7.50810315168255E+01  1.58988795004410E+00
(PID.TID 0000.0001)  ploadbar=  1.01025828341467E+05
 cg2d: Sum(rhs),rhsMax =  -7.48309973752972E+01  1.59448120083541E+00
(PID.TID 0000.0001)  ploadbar=  1.01027078952122E+05
 cg2d: Sum(rhs),rhsMax =  -7.46057992977451E+01  1.59852665753912E+00
(PID.TID 0000.0001)  ploadbar=  1.01028329562777E+05
 cg2d: Sum(rhs),rhsMax =  -7.43098323947072E+01  1.60415557644545E+00
(PID.TID 0000.0001)  ploadbar=  1.01030123630907E+05
 cg2d: Sum(rhs),rhsMax =  -7.40550428301564E+01  1.60896290466265E+00
(PID.TID 0000.0001)  ploadbar=  1.01031917699036E+05
 cg2d: Sum(rhs),rhsMax =  -7.38382569535814E+01  1.61299682720412E+00
(PID.TID 0000.0001)  ploadbar=  1.01033711767165E+05
 cg2d: Sum(rhs),rhsMax =  -7.36601440796966E+01  1.61622363415724E+00
(PID.TID 0000.0001)  ploadbar=  1.01035505835295E+05
 cg2d: Sum(rhs),rhsMax =  -7.35490904234839E+01  1.61800120687650E+00
(PID.TID 0000.0001)  ploadbar=  1.01037299903424E+05
 cg2d: Sum(rhs),rhsMax =  -7.34830359227497E+01  1.61880286158704E+00
(PID.TID 0000.0001)  ploadbar=  1.01039093971554E+05
 cg2d: Sum(rhs),rhsMax =  -7.34194198178569E+01  1.61957103798334E+00
(PID.TID 0000.0001)  ploadbar=  1.01039805291666E+05
 cg2d: Sum(rhs),rhsMax =  -7.33404025131902E+01  1.62069201194872E+00
(PID.TID 0000.0001)  ploadbar=  1.01040516611778E+05
 cg2d: Sum(rhs),rhsMax =  -7.32437120316444E+01  1.62222025579487E+00
(PID.TID 0000.0001)  ploadbar=  1.01041227931890E+05
 cg2d: Sum(rhs),rhsMax =  -7.31302528412824E+01  1.62414184854174E+00
(PID.TID 0000.0001)  ploadbar=  1.01041939252002E+05
 cg2d: Sum(rhs),rhsMax =  -7.30021191566254E+01  1.62640469395910E+00
(PID.TID 0000.0001)  ploadbar=  1.01042650572114E+05
 cg2d: Sum(rhs),rhsMax =  -7.28660357644006E+01  1.62885450925878E+00
(PID.TID 0000.0001)  ploadbar=  1.01043361892226E+05
 cg2d: Sum(rhs),rhsMax =  -7.27328277157771E+01  1.63127906737268E+00
(PID.TID 0000.0001)  ploadbar=  1.01043076522375E+05
 cg2d: Sum(rhs),rhsMax =  -7.27979113938912E+01  1.62928996899736E+00
(PID.TID 0000.0001)  ploadbar=  1.01042791152524E+05
 cg2d: Sum(rhs),rhsMax =  -7.30899133677426E+01  1.62227560427799E+00
(PID.TID 0000.0001)  ploadbar=  1.01042505782673E+05
 cg2d: Sum(rhs),rhsMax =  -7.33746917741054E+01  1.61549673997925E+00
(PID.TID 0000.0001)  ploadbar=  1.01042220412822E+05
 cg2d: Sum(rhs),rhsMax =  -7.36700676154267E+01  1.60855514522541E+00
(PID.TID 0000.0001)  ploadbar=  1.01041935042971E+05
 cg2d: Sum(rhs),rhsMax =  -7.39412339616870E+01  1.60220420854766E+00
(PID.TID 0000.0001)  ploadbar=  1.01041649673120E+05
 cg2d: Sum(rhs),rhsMax =  -7.42059897250501E+01  1.59602550398233E+00
(PID.TID 0000.0001)  ploadbar=  1.01041555708217E+05
 cg2d: Sum(rhs),rhsMax =  -7.44689976607314E+01  1.58991297368722E+00
(PID.TID 0000.0001)  ploadbar=  1.01041461743314E+05
 cg2d: Sum(rhs),rhsMax =  -7.47173424317221E+01  1.58414011412835E+00
(PID.TID 0000.0001)  ploadbar=  1.01041367778411E+05
 cg2d: Sum(rhs),rhsMax =  -7.49345092393072E+01  1.57904556504510E+00
(PID.TID 0000.0001)  ploadbar=  1.01041273813508E+05
 cg2d: Sum(rhs),rhsMax =  -7.51087340114256E+01  1.57486144019807E+00
(PID.TID 0000.0001)  ploadbar=  1.01041179848605E+05
 cg2d: Sum(rhs),rhsMax =  -7.52289748331632E+01  1.57179929449246E+00
(PID.TID 0000.0001)  ploadbar=  1.01041085883702E+05
 cg2d: Sum(rhs),rhsMax =  -7.53576643238743E+01  1.56858053245315E+00
(PID.TID 0000.0001)  ploadbar=  1.01041933638959E+05
 cg2d: Sum(rhs),rhsMax =  -7.55886635411238E+01  1.56326529817888E+00
(PID.TID 0000.0001)  ploadbar=  1.01042781394216E+05
 cg2d: Sum(rhs),rhsMax =  -7.58834878885276E+01  1.55668092976239E+00
(PID.TID 0000.0001)  ploadbar=  1.01043629149473E+05
 cg2d: Sum(rhs),rhsMax =  -7.62528523043792E+01  1.54863974758143E+00
(PID.TID 0000.0001)  ploadbar=  1.01044476904730E+05
 cg2d: Sum(rhs),rhsMax =  -7.67202793973287E+01  1.53871213104282E+00
(PID.TID 0000.0001)  ploadbar=  1.01045324659988E+05
 cg2d: Sum(rhs),rhsMax =  -7.73074949252016E+01  1.52653297867677E+00
(PID.TID 0000.0001)  ploadbar=  1.01046172415245E+05
 cg2d: Sum(rhs),rhsMax =  -7.79688968149336E+01  1.51307816833821E+00
(PID.TID 0000.0001)  ploadbar=  1.01047186479165E+05
 cg2d: Sum(rhs),rhsMax =  -7.86701923211514E+01  1.49906856916385E+00
(PID.TID 0000.0001)  ploadbar=  1.01048200543086E+05
 cg2d: Sum(rhs),rhsMax =  -7.93689022310922E+01  1.48533090504370E+00
(PID.TID 0000.0001)  ploadbar=  1.01049214607006E+05
 cg2d: Sum(rhs),rhsMax =  -8.00176132544620E+01  1.47272585571007E+00
(PID.TID 0000.0001)  ploadbar=  1.01050228670927E+05
 cg2d: Sum(rhs),rhsMax =  -8.05775879614864E+01  1.46190371491760E+00
(PID.TID 0000.0001)  ploadbar=  1.01051242734848E+05
 cg2d: Sum(rhs),rhsMax =  -8.10256439278267E+01  1.45320449289803E+00
(PID.TID 0000.0001)  ploadbar=  1.01052256798768E+05
 cg2d: Sum(rhs),rhsMax =  -8.11360833192743E+01  1.45063671030079E+00
(PID.TID 0000.0001)  ploadbar=  1.01053097242186E+05
 cg2d: Sum(rhs),rhsMax =  -8.05898454317687E+01  1.45989486482671E+00
(PID.TID 0000.0001)  ploadbar=  1.01053937685603E+05
 cg2d: Sum(rhs),rhsMax =  -8.00446437047785E+01  1.46927318160567E+00
(PID.TID 0000.0001)  ploadbar=  1.01054778129020E+05
 cg2d: Sum(rhs),rhsMax =  -7.94638684905348E+01  1.47945074479791E+00
(PID.TID 0000.0001)  ploadbar=  1.01055618572438E+05
 cg2d: Sum(rhs),rhsMax =  -7.88250214911556E+01  1.49087629207571E+00
(PID.TID 0000.0001)  ploadbar=  1.01056459015855E+05
 cg2d: Sum(rhs),rhsMax =  -7.82580368886011E+01  1.50110315831886E+00
(PID.TID 0000.0001)  ploadbar=  1.01057299459273E+05
 cg2d: Sum(rhs),rhsMax =  -7.76999865963905E+01  1.51127144294224E+00
(PID.TID 0000.0001)  ploadbar=  1.01058293878541E+05
 cg2d: Sum(rhs),rhsMax =  -7.71933271532802E+01  1.52053554823366E+00
(PID.TID 0000.0001)  ploadbar=  1.01059288297810E+05
 cg2d: Sum(rhs),rhsMax =  -7.67328741893197E+01  1.52895733858878E+00
(PID.TID 0000.0001)  ploadbar=  1.01060282717079E+05
 cg2d: Sum(rhs),rhsMax =  -7.63211211767638E+01  1.53645362569025E+00
(PID.TID 0000.0001)  ploadbar=  1.01061277136347E+05
 cg2d: Sum(rhs),rhsMax =  -7.59555412103197E+01  1.54304259527873E+00
(PID.TID 0000.0001)  ploadbar=  1.01062271555616E+05
 cg2d: Sum(rhs),rhsMax =  -7.56322086035001E+01  1.54877286866574E+00
(PID.TID 0000.0001)  ploadbar=  1.01063265974885E+05
 cg2d: Sum(rhs),rhsMax =  -7.53295507211745E+01  1.55417763672306E+00
(PID.TID 0000.0001)  ploadbar=  1.01063887630204E+05
 cg2d: Sum(rhs),rhsMax =  -7.50225011370777E+01  1.55976410509206E+00
(PID.TID 0000.0001)  ploadbar=  1.01064509285523E+05
 cg2d: Sum(rhs),rhsMax =  -7.47557459753828E+01  1.56459336455213E+00
(PID.TID 0000.0001)  ploadbar=  1.01065130940842E+05
 cg2d: Sum(rhs),rhsMax =  -7.45214336058371E+01  1.56880714731168E+00
(PID.TID 0000.0001)  ploadbar=  1.01065752596161E+05
 cg2d: Sum(rhs),rhsMax =  -7.43119091443125E+01  1.57254926275032E+00
(PID.TID 0000.0001)  ploadbar=  1.01066374251480E+05
 cg2d: Sum(rhs),rhsMax =  -7.41195438956967E+01  1.57596960264129E+00
(PID.TID 0000.0001)  ploadbar=  1.01066995906799E+05
 cg2d: Sum(rhs),rhsMax =  -7.38599716993720E+01  1.58083476796833E+00
(PID.TID 0000.0001)  ploadbar=  1.01068030985796E+05
 cg2d: Sum(rhs),rhsMax =  -7.44341011512127E+01  1.56796331577878E+00
(PID.TID 0000.0001)  ploadbar=  1.01069066064793E+05
 cg2d: Sum(rhs),rhsMax =  -7.54776366995347E+01  1.54560855108198E+00
(PID.TID 0000.0001)  ploadbar=  1.01070101143790E+05
 cg2d: Sum(rhs),rhsMax =  -7.66404251868331E+01  1.52147679319423E+00
(PID.TID 0000.0001)  ploadbar=  1.01071136222787E+05
 cg2d: Sum(rhs),rhsMax =  -7.78749081769212E+01  1.49667009926733E+00
(PID.TID 0000.0001)  ploadbar=  1.01072171301784E+05
 cg2d: Sum(rhs),rhsMax =  -7.91321059671020E+01  1.47219667568584E+00
(PID.TID 0000.0001)  ploadbar=  1.01073206380781E+05
 cg2d: Sum(rhs),rhsMax =  -8.03995234909591E+01  1.44835611974409E+00
(PID.TID 0000.0001)  ploadbar=  1.01074601373780E+05
 cg2d: Sum(rhs),rhsMax =  -8.15569265346876E+01  1.42722402887745E+00
(PID.TID 0000.0001)  ploadbar=  1.01075996366779E+05
 cg2d: Sum(rhs),rhsMax =  -8.25890696560268E+01  1.40885891156714E+00
(PID.TID 0000.0001)  ploadbar=  1.01077391359777E+05
 cg2d: Sum(rhs),rhsMax =  -8.35012539938626E+01  1.39298403991305E+00
(PID.TID 0000.0001)  ploadbar=  1.01078786352776E+05
 cg2d: Sum(rhs),rhsMax =  -8.29907425352135E+01  1.40109999011640E+00
(PID.TID 0000.0001)  ploadbar=  1.01080181345775E+05
 cg2d: Sum(rhs),rhsMax =  -8.21969627294537E+01  1.41420360453432E+00
(PID.TID 0000.0001)  ploadbar=  1.01081576338773E+05
 cg2d: Sum(rhs),rhsMax =  -8.14748139551147E+01  1.42628018233863E+00
(PID.TID 0000.0001)  ploadbar=  1.01082180847726E+05
 cg2d: Sum(rhs),rhsMax =  -8.08111096462382E+01  1.43750069393811E+00
(PID.TID 0000.0001)  ploadbar=  1.01082785356679E+05
 cg2d: Sum(rhs),rhsMax =  -8.01914771732595E+01  1.44807462320477E+00
(PID.TID 0000.0001)  ploadbar=  1.01083389865632E+05
 cg2d: Sum(rhs),rhsMax =  -7.96110416815580E+01  1.45805161469780E+00
(PID.TID 0000.0001)  ploadbar=  1.01083994374585E+05
 cg2d: Sum(rhs),rhsMax =  -7.90647937888138E+01  1.46749404598670E+00
(PID.TID 0000.0001)  ploadbar=  1.01084598883538E+05
 cg2d: Sum(rhs),rhsMax =  -7.85499619040919E+01  1.47642914138549E+00
(PID.TID 0000.0001)  ploadbar=  1.01085203392491E+05
 cg2d: Sum(rhs),rhsMax =  -7.79835525801317E+01  1.48649365248128E+00
(PID.TID 0000.0001)  ploadbar=  1.01085876466224E+05
 cg2d: Sum(rhs),rhsMax =  -7.73942176578389E+01  1.49717081906404E+00
(PID.TID 0000.0001)  ploadbar=  1.01086549539957E+05
 cg2d: Sum(rhs),rhsMax =  -7.68338787302880E+01  1.50745942160438E+00
(PID.TID 0000.0001)  ploadbar=  1.01087222613690E+05
 cg2d: Sum(rhs),rhsMax =  -7.63015940185108E+01  1.51735556784115E+00
(PID.TID 0000.0001)  ploadbar=  1.01087895687423E+05
 cg2d: Sum(rhs),rhsMax =  -7.57957128357584E+01  1.52686741815627E+00
(PID.TID 0000.0001)  ploadbar=  1.01088568761156E+05
 cg2d: Sum(rhs),rhsMax =  -7.53127994026889E+01  1.53604310282151E+00
(PID.TID 0000.0001)  ploadbar=  1.01089241834889E+05
 cg2d: Sum(rhs),rhsMax =  -7.48289998777132E+01  1.54535664392764E+00
(PID.TID 0000.0001)  ploadbar=  1.01088694311032E+05
 cg2d: Sum(rhs),rhsMax =  -7.43312193374841E+01  1.55508466978472E+00
(PID.TID 0000.0001)  ploadbar=  1.01088146787176E+05
 cg2d: Sum(rhs),rhsMax =  -7.38113200167146E+01  1.56541144304221E+00
(PID.TID 0000.0001)  ploadbar=  1.01087599263319E+05
 cg2d: Sum(rhs),rhsMax =  -7.32717525569310E+01  1.57630484830912E+00
(PID.TID 0000.0001)  ploadbar=  1.01087051739463E+05
 cg2d: Sum(rhs),rhsMax =  -7.27285705164109E+01  1.58743589298193E+00
(PID.TID 0000.0001)  ploadbar=  1.01086504215607E+05
 cg2d: Sum(rhs),rhsMax =  -7.23828480380856E+01  1.59437195261958E+00
(PID.TID 0000.0001)  ploadbar=  1.01085956691750E+05
 cg2d: Sum(rhs),rhsMax =  -7.25353983677456E+01  1.59041804012212E+00
(PID.TID 0000.0001)  ploadbar=  1.01085289453685E+05
 cg2d: Sum(rhs),rhsMax =  -7.25795366444585E+01  1.58888372548801E+00
(PID.TID 0000.0001)  ploadbar=  1.01084622215621E+05
 cg2d: Sum(rhs),rhsMax =  -7.25700121744466E+01  1.58855213314003E+00
(PID.TID 0000.0001)  ploadbar=  1.01083954977556E+05
 cg2d: Sum(rhs),rhsMax =  -7.25674186370496E+01  1.58808947669569E+00
(PID.TID 0000.0001)  ploadbar=  1.01083287739491E+05
 cg2d: Sum(rhs),rhsMax =  -7.25959094851836E+01  1.58696101334296E+00
(PID.TID 0000.0001)  ploadbar=  1.01082620501426E+05
 cg2d: Sum(rhs),rhsMax =  -7.27152482013750E+01  1.58385993139547E+00
(PID.TID 0000.0001)  ploadbar=  1.01081953263362E+05
 cg2d: Sum(rhs),rhsMax =  -7.29417595650481E+01  1.57840833795949E+00
(PID.TID 0000.0001)  ploadbar=  1.01081310934051E+05
 cg2d: Sum(rhs),rhsMax =  -7.33584326838748E+01  1.56887144697672E+00
(PID.TID 0000.0001)  ploadbar=  1.01080668604740E+05
 cg2d: Sum(rhs),rhsMax =  -7.39385131844620E+01  1.55595246736586E+00
(PID.TID 0000.0001)  ploadbar=  1.01080026275429E+05
 cg2d: Sum(rhs),rhsMax =  -7.46116685049592E+01  1.54126251889611E+00
(PID.TID 0000.0001)  ploadbar=  1.01079383946119E+05
 cg2d: Sum(rhs),rhsMax =  -7.53341293038012E+01  1.52578349536552E+00
(PID.TID 0000.0001)  ploadbar=  1.01078741616808E+05
 cg2d: Sum(rhs),rhsMax =  -7.60738707676716E+01  1.51019937467334E+00
(PID.TID 0000.0001)  ploadbar=  1.01078099287497E+05
 cg2d: Sum(rhs),rhsMax =  -7.56047013874537E+01  1.51883469632711E+00
(PID.TID 0000.0001)  ploadbar=  1.01077135315459E+05
 cg2d: Sum(rhs),rhsMax =  -7.48880806395013E+01  1.53263838995556E+00
(PID.TID 0000.0001)  ploadbar=  1.01076171343420E+05
 cg2d: Sum(rhs),rhsMax =  -7.42265826354952E+01  1.54557029549714E+00
(PID.TID 0000.0001)  ploadbar=  1.01075207371382E+05
 cg2d: Sum(rhs),rhsMax =  -7.36048024108927E+01  1.55789958751394E+00
(PID.TID 0000.0001)  ploadbar=  1.01074243399343E+05
 cg2d: Sum(rhs),rhsMax =  -7.30000931063971E+01  1.57007222447229E+00
(PID.TID 0000.0001)  ploadbar=  1.01073279427305E+05
 cg2d: Sum(rhs),rhsMax =  -7.23834689889724E+01  1.58270324541911E+00
(PID.TID 0000.0001)  ploadbar=  1.01072315455266E+05
 cg2d: Sum(rhs),rhsMax =  -7.17583977978639E+01  1.59573989365650E+00
(PID.TID 0000.0001)  ploadbar=  1.01071801707993E+05
 cg2d: Sum(rhs),rhsMax =  -7.11374819315719E+01  1.60891109447231E+00
(PID.TID 0000.0001)  ploadbar=  1.01071287960721E+05
 cg2d: Sum(rhs),rhsMax =  -7.21139644312179E+01  1.58637760126131E+00
(PID.TID 0000.0001)  ploadbar=  1.01070774213448E+05
 cg2d: Sum(rhs),rhsMax =  -7.31232999315910E+01  1.56373793721479E+00
(PID.TID 0000.0001)  ploadbar=  1.01070260466175E+05
 cg2d: Sum(rhs),rhsMax =  -7.41440943382184E+01  1.54146657261361E+00
(PID.TID 0000.0001)  ploadbar=  1.01069746718902E+05
 cg2d: Sum(rhs),rhsMax =  -7.51593873648621E+01  1.51989942302868E+00
(PID.TID 0000.0001)  ploadbar=  1.01069232971630E+05
 cg2d: Sum(rhs),rhsMax =  -7.60725534534828E+01  1.50094667973666E+00
(PID.TID 0000.0001)  ploadbar=  1.01070592397653E+05
 cg2d: Sum(rhs),rhsMax =  -7.68636150595287E+01  1.48482017723408E+00
(PID.TID 0000.0001)  ploadbar=  1.01071951823676E+05
 cg2d: Sum(rhs),rhsMax =  -7.75301098606863E+01  1.47139948807330E+00
(PID.TID 0000.0001)  ploadbar=  1.01073311249699E+05
 cg2d: Sum(rhs),rhsMax =  -7.80815526310562E+01  1.46036861222174E+00
(PID.TID 0000.0001)  ploadbar=  1.01074670675722E+05
 cg2d: Sum(rhs),rhsMax =  -7.84976495564406E+01  1.45199917295625E+00
(PID.TID 0000.0001)  ploadbar=  1.01076030101745E+05
 cg2d: Sum(rhs),rhsMax =  -7.88855212649345E+01  1.44423629210477E+00
(PID.TID 0000.0001)  ploadbar=  1.01077389527768E+05
 cg2d: Sum(rhs),rhsMax =  -7.86520134400127E+01  1.44790616053703E+00
(PID.TID 0000.0001)  ploadbar=  1.01078453210284E+05
 cg2d: Sum(rhs),rhsMax =  -7.81747386391369E+01  1.45612743896877E+00
(PID.TID 0000.0001)  ploadbar=  1.01079516892800E+05
 cg2d: Sum(rhs),rhsMax =  -7.77017110589247E+01  1.46436972092783E+00
(PID.TID 0000.0001)  ploadbar=  1.01080580575317E+05
 cg2d: Sum(rhs),rhsMax =  -7.72177952180551E+01  1.47291810312048E+00
(PID.TID 0000.0001)  ploadbar=  1.01081644257833E+05
 cg2d: Sum(rhs),rhsMax =  -7.75065741347565E+01  1.46679555136995E+00
(PID.TID 0000.0001)  ploadbar=  1.01082707940349E+05
 cg2d: Sum(rhs),rhsMax =  -7.79593357437631E+01  1.45763319664140E+00
(PID.TID 0000.0001)  ploadbar=  1.01083771622865E+05
 cg2d: Sum(rhs),rhsMax =  -7.84474341650910E+01  1.44797459056734E+00
(PID.TID 0000.0001)  ploadbar=  1.01084557799130E+05
 cg2d: Sum(rhs),rhsMax =  -7.88783254900237E+01  1.43952404164420E+00
(PID.TID 0000.0001)  ploadbar=  1.01085343975394E+05
 cg2d: Sum(rhs),rhsMax =  -7.81766750191740E+01  1.45194030901747E+00
(PID.TID 0000.0001)  ploadbar=  1.01086130151659E+05
 cg2d: Sum(rhs),rhsMax =  -7.75392222623743E+01  1.46340640997396E+00
(PID.TID 0000.0001)  ploadbar=  1.01086916327923E+05
 cg2d: Sum(rhs),rhsMax =  -7.69570162827814E+01  1.47403660417250E+00
(PID.TID 0000.0001)  ploadbar=  1.01087702504188E+05
 cg2d: Sum(rhs),rhsMax =  -7.64169365308015E+01  1.48403556899672E+00
(PID.TID 0000.0001)  ploadbar=  1.01088488680452E+05
 cg2d: Sum(rhs),rhsMax =  -7.58876457771350E+01  1.49397007667885E+00
(PID.TID 0000.0001)  ploadbar=  1.01088141120850E+05
 cg2d: Sum(rhs),rhsMax =  -7.53696183076630E+01  1.50382285850619E+00
(PID.TID 0000.0001)  ploadbar=  1.01087793561248E+05
 cg2d: Sum(rhs),rhsMax =  -7.48595040010398E+01  1.51365640049518E+00
(PID.TID 0000.0001)  ploadbar=  1.01087446001646E+05
 cg2d: Sum(rhs),rhsMax =  -7.43599461721152E+01  1.52341395374218E+00
(PID.TID 0000.0001)  ploadbar=  1.01087098442044E+05
 cg2d: Sum(rhs),rhsMax =  -7.38772317013781E+01  1.53295938525244E+00
(PID.TID 0000.0001)  ploadbar=  1.01086750882442E+05
 cg2d: Sum(rhs),rhsMax =  -7.34211378197957E+01  1.54207888393069E+00
(PID.TID 0000.0001)  ploadbar=  1.01086403322840E+05
 cg2d: Sum(rhs),rhsMax =  -7.29954265903164E+01  1.55071593748936E+00
(PID.TID 0000.0001)  ploadbar=  1.01084754634727E+05
 cg2d: Sum(rhs),rhsMax =  -7.26208983871702E+01  1.55839746275540E+00
(PID.TID 0000.0001)  ploadbar=  1.01083105946614E+05
 cg2d: Sum(rhs),rhsMax =  -7.23075560237100E+01  1.56487095105366E+00
(PID.TID 0000.0001)  ploadbar=  1.01081457258501E+05
 cg2d: Sum(rhs),rhsMax =  -7.20598246135344E+01  1.57000455592269E+00
(PID.TID 0000.0001)  ploadbar=  1.01079808570388E+05
 cg2d: Sum(rhs),rhsMax =  -7.19360935402135E+01  1.57248873185295E+00
(PID.TID 0000.0001)  ploadbar=  1.01078159882275E+05
 cg2d: Sum(rhs),rhsMax =  -7.24614623229974E+01  1.56089812199402E+00
(PID.TID 0000.0001)  ploadbar=  1.01076511194162E+05
 cg2d: Sum(rhs),rhsMax =  -7.27866883559406E+01  1.55369739631933E+00
(PID.TID 0000.0001)  ploadbar=  1.01074940063146E+05
 cg2d: Sum(rhs),rhsMax =  -7.31169067154352E+01  1.54641584861314E+00
(PID.TID 0000.0001)  ploadbar=  1.01073368932129E+05
 cg2d: Sum(rhs),rhsMax =  -7.34475548366188E+01  1.53915088878975E+00
(PID.TID 0000.0001)  ploadbar=  1.01071797801113E+05
 cg2d: Sum(rhs),rhsMax =  -7.37661104664083E+01  1.53215678149885E+00
(PID.TID 0000.0001)  ploadbar=  1.01070226670097E+05
 cg2d: Sum(rhs),rhsMax =  -7.40565559093576E+01  1.52575453958042E+00
(PID.TID 0000.0001)  ploadbar=  1.01068655539081E+05
 cg2d: Sum(rhs),rhsMax =  -7.43102186919195E+01  1.52010426689135E+00
(PID.TID 0000.0001)  ploadbar=  1.01067084408065E+05
 cg2d: Sum(rhs),rhsMax =  -7.43845120804111E+01  1.51817988268573E+00
(PID.TID 0000.0001)  ploadbar=  1.01065520475315E+05
 cg2d: Sum(rhs),rhsMax =  -7.46209725286729E+01  1.51299558009500E+00
(PID.TID 0000.0001)  ploadbar=  1.01063956542565E+05
 cg2d: Sum(rhs),rhsMax =  -7.49171438012930E+01  1.50666989411179E+00
(PID.TID 0000.0001)  ploadbar=  1.01062392609814E+05
 cg2d: Sum(rhs),rhsMax =  -7.52684576921623E+01  1.49931911828370E+00
(PID.TID 0000.0001)  ploadbar=  1.01060828677064E+05
 cg2d: Sum(rhs),rhsMax =  -7.55909837650106E+01  1.49262434285420E+00
(PID.TID 0000.0001)  ploadbar=  1.01059264744314E+05
 cg2d: Sum(rhs),rhsMax =  -7.59005599926019E+01  1.48625237272783E+00
(PID.TID 0000.0001)  ploadbar=  1.01057700811564E+05
 cg2d: Sum(rhs),rhsMax =  -7.61745739915569E+01  1.48060501915479E+00
(PID.TID 0000.0001)  ploadbar=  1.01058365519147E+05
 cg2d: Sum(rhs),rhsMax =  -7.58265069865622E+01  1.48707761762526E+00
(PID.TID 0000.0001)  ploadbar=  1.01059030226730E+05
 cg2d: Sum(rhs),rhsMax =  -7.52580939812148E+01  1.49796031746141E+00
(PID.TID 0000.0001)  ploadbar=  1.01059694934313E+05
 cg2d: Sum(rhs),rhsMax =  -7.46245316293020E+01  1.51030045529800E+00
(PID.TID 0000.0001)  ploadbar=  1.01060359641897E+05
 cg2d: Sum(rhs),rhsMax =  -7.40301836388035E+01  1.52201650640907E+00
(PID.TID 0000.0001)  ploadbar=  1.01061024349480E+05
 cg2d: Sum(rhs),rhsMax =  -7.35014949683069E+01  1.53252475858394E+00
(PID.TID 0000.0001)  ploadbar=  1.01061689057063E+05
 cg2d: Sum(rhs),rhsMax =  -7.30963196771179E+01  1.54061702930090E+00
(PID.TID 0000.0001)  ploadbar=  1.01063808913747E+05
 cg2d: Sum(rhs),rhsMax =  -7.28282649027597E+01  1.54591436166957E+00
(PID.TID 0000.0001)  ploadbar=  1.01065928770430E+05
 cg2d: Sum(rhs),rhsMax =  -7.26938355156854E+01  1.54842296301503E+00
(PID.TID 0000.0001)  ploadbar=  1.01068048627114E+05
 cg2d: Sum(rhs),rhsMax =  -7.27701878427624E+01  1.54646685266997E+00
(PID.TID 0000.0001)  ploadbar=  1.01070168483798E+05
 cg2d: Sum(rhs),rhsMax =  -7.29708493566522E+01  1.54189786798561E+00
(PID.TID 0000.0001)  ploadbar=  1.01072288340482E+05
 cg2d: Sum(rhs),rhsMax =  -7.32997706871704E+01  1.53467167343296E+00
(PID.TID 0000.0001)  ploadbar=  1.01074408197165E+05
 cg2d: Sum(rhs),rhsMax =  -7.36449089412380E+01  1.52714571172767E+00
(PID.TID 0000.0001)  ploadbar=  1.01075107250117E+05
 cg2d: Sum(rhs),rhsMax =  -7.39715459578366E+01  1.52003968820285E+00
(PID.TID 0000.0001)  ploadbar=  1.01075806303068E+05
 cg2d: Sum(rhs),rhsMax =  -7.42583798668842E+01  1.51377575883723E+00
(PID.TID 0000.0001)  ploadbar=  1.01076505356020E+05
 cg2d: Sum(rhs),rhsMax =  -7.44973090063878E+01  1.50849291472682E+00
(PID.TID 0000.0001)  ploadbar=  1.01077204408971E+05
 cg2d: Sum(rhs),rhsMax =  -7.46945580879092E+01  1.50404307203749E+00
(PID.TID 0000.0001)  ploadbar=  1.01077903461923E+05
 cg2d: Sum(rhs),rhsMax =  -7.48672024704973E+01  1.50006462894492E+00
(PID.TID 0000.0001)  ploadbar=  1.01078602514874E+05
 cg2d: Sum(rhs),rhsMax =  -7.49624201947157E+01  1.49769784757158E+00
(PID.TID 0000.0001)  ploadbar=  1.01079164083469E+05
 cg2d: Sum(rhs),rhsMax =  -7.50205397203514E+01  1.49612112371520E+00
(PID.TID 0000.0001)  ploadbar=  1.01079725652063E+05
 cg2d: Sum(rhs),rhsMax =  -7.51321015569004E+01  1.49352334185587E+00
(PID.TID 0000.0001)  ploadbar=  1.01080287220658E+05
 cg2d: Sum(rhs),rhsMax =  -7.53253100516846E+01  1.48935049909971E+00
(PID.TID 0000.0001)  ploadbar=  1.01080848789253E+05
 cg2d: Sum(rhs),rhsMax =  -7.55942972374789E+01  1.48373746107811E+00
(PID.TID 0000.0001)  ploadbar=  1.01081410357848E+05
 cg2d: Sum(rhs),rhsMax =  -7.59250746833363E+01  1.47698467609755E+00
(PID.TID 0000.0001)  ploadbar=  1.01081971926443E+05
 cg2d: Sum(rhs),rhsMax =  -7.62824169585940E+01  1.46976597236744E+00
(PID.TID 0000.0001)  ploadbar=  1.01082644169216E+05
 cg2d: Sum(rhs),rhsMax =  -7.66150707130929E+01  1.46306912476285E+00
(PID.TID 0000.0001)  ploadbar=  1.01083316411990E+05
 cg2d: Sum(rhs),rhsMax =  -7.68917799043145E+01  1.45747029078983E+00
(PID.TID 0000.0001)  ploadbar=  1.01083988654763E+05
 cg2d: Sum(rhs),rhsMax =  -7.70899069812619E+01  1.45337067793737E+00
(PID.TID 0000.0001)  ploadbar=  1.01084660897537E+05
 cg2d: Sum(rhs),rhsMax =  -7.72018596608383E+01  1.45088447549571E+00
(PID.TID 0000.0001)  ploadbar=  1.01085333140311E+05
 cg2d: Sum(rhs),rhsMax =  -7.72391930494965E+01  1.44977659227648E+00
(PID.TID 0000.0001)  ploadbar=  1.01086005383084E+05
 cg2d: Sum(rhs),rhsMax =  -7.72391875519574E+01  1.44939578317470E+00
(PID.TID 0000.0001)  ploadbar=  1.01085508674435E+05
 cg2d: Sum(rhs),rhsMax =  -7.72466870830596E+01  1.44889282780454E+00
(PID.TID 0000.0001)  ploadbar=  1.01085011965787E+05
 cg2d: Sum(rhs),rhsMax =  -7.73005562917908E+01  1.44753492051071E+00
(PID.TID 0000.0001)  ploadbar=  1.01084515257138E+05
 cg2d: Sum(rhs),rhsMax =  -7.74131055137935E+01  1.44509251072271E+00
(PID.TID 0000.0001)  ploadbar=  1.01084018548489E+05
 cg2d: Sum(rhs),rhsMax =  -7.76335289644738E+01  1.44065769644507E+00
(PID.TID 0000.0001)  ploadbar=  1.01083521839840E+05
 cg2d: Sum(rhs),rhsMax =  -7.80356483409150E+01  1.43290281881837E+00
(PID.TID 0000.0001)  ploadbar=  1.01083025131191E+05
 cg2d: Sum(rhs),rhsMax =  -7.85140131171702E+01  1.42379555883527E+00
(PID.TID 0000.0001)  ploadbar=  1.01083241680365E+05
 cg2d: Sum(rhs),rhsMax =  -7.90191855836422E+01  1.41426892897668E+00
(PID.TID 0000.0001)  ploadbar=  1.01083458229539E+05
 cg2d: Sum(rhs),rhsMax =  -7.95118117726296E+01  1.40503468073571E+00
(PID.TID 0000.0001)  ploadbar=  1.01083674778713E+05
 cg2d: Sum(rhs),rhsMax =  -7.96488182727045E+01  1.40209640573989E+00
(PID.TID 0000.0001)  ploadbar=  1.01083891327887E+05
 cg2d: Sum(rhs),rhsMax =  -7.94768678838563E+01  1.40455317381789E+00
(PID.TID 0000.0001)  ploadbar=  1.01084107877061E+05
 cg2d: Sum(rhs),rhsMax =  -7.94123832242257E+01  1.40505724768616E+00
(PID.TID 0000.0001)  ploadbar=  1.01084324426235E+05
 cg2d: Sum(rhs),rhsMax =  -7.94617520888030E+01  1.40357365514954E+00
(PID.TID 0000.0001)  ploadbar=  1.01084214018831E+05
 cg2d: Sum(rhs),rhsMax =  -7.95415661855307E+01  1.40157693676873E+00
(PID.TID 0000.0001)  ploadbar=  1.01084103611428E+05
 cg2d: Sum(rhs),rhsMax =  -7.94751714714356E+01  1.40217550861958E+00
(PID.TID 0000.0001)  ploadbar=  1.01083993204025E+05
 cg2d: Sum(rhs),rhsMax =  -7.93799651340443E+01  1.40329369303605E+00
(PID.TID 0000.0001)  ploadbar=  1.01083882796622E+05
 cg2d: Sum(rhs),rhsMax =  -7.92576097955769E+01  1.40490129220674E+00
(PID.TID 0000.0001)  ploadbar=  1.01083772389218E+05
 cg2d: Sum(rhs),rhsMax =  -7.91396805303494E+01  1.40643839248088E+00
(PID.TID 0000.0001)  ploadbar=  1.01083661981815E+05
 cg2d: Sum(rhs),rhsMax =  -7.90362553116142E+01  1.40773271926377E+00
(PID.TID 0000.0001)  ploadbar=  1.01083797359954E+05
 cg2d: Sum(rhs),rhsMax =  -7.89397877516956E+01  1.40891283293550E+00
(PID.TID 0000.0001)  ploadbar=  1.01083932738092E+05
 cg2d: Sum(rhs),rhsMax =  -7.88532813535500E+01  1.40992153829319E+00
(PID.TID 0000.0001)  ploadbar=  1.01084068116230E+05
 cg2d: Sum(rhs),rhsMax =  -7.87765042457225E+01  1.41076073923165E+00
(PID.TID 0000.0001)  ploadbar=  1.01084203494369E+05
 cg2d: Sum(rhs),rhsMax =  -7.87076291707672E+01  1.41145800861014E+00
(PID.TID 0000.0001)  ploadbar=  1.01084338872507E+05
 cg2d: Sum(rhs),rhsMax =  -7.86432175809884E+01  1.41207125787020E+00
(PID.TID 0000.0001)  ploadbar=  1.01084474250646E+05
 cg2d: Sum(rhs),rhsMax =  -7.85850899393678E+01  1.41260097169765E+00
(PID.TID 0000.0001)  ploadbar=  1.01083923930261E+05
 cg2d: Sum(rhs),rhsMax =  -7.85311992755030E+01  1.41308074076074E+00
(PID.TID 0000.0001)  ploadbar=  1.01083373609875E+05
 cg2d: Sum(rhs),rhsMax =  -7.84677103189945E+01  1.41375659435853E+00
(PID.TID 0000.0001)  ploadbar=  1.01082823289490E+05
 cg2d: Sum(rhs),rhsMax =  -7.83980535991460E+01  1.41456150729877E+00
(PID.TID 0000.0001)  ploadbar=  1.01082272969105E+05
 cg2d: Sum(rhs),rhsMax =  -7.83147312363303E+01  1.41562603847514E+00
(PID.TID 0000.0001)  ploadbar=  1.01081722648720E+05
 cg2d: Sum(rhs),rhsMax =  -7.83764107918219E+01  1.41407933986676E+00
(PID.TID 0000.0001)  ploadbar=  1.01081172328334E+05
 cg2d: Sum(rhs),rhsMax =  -7.85066423827849E+01  1.41128643333209E+00
(PID.TID 0000.0001)  ploadbar=  1.01080458736695E+05
 cg2d: Sum(rhs),rhsMax =  -7.86854802696126E+01  1.40761476168951E+00
(PID.TID 0000.0001)  ploadbar=  1.01079745145055E+05
 cg2d: Sum(rhs),rhsMax =  -7.88956571361493E+01  1.40338288894863E+00
(PID.TID 0000.0001)  ploadbar=  1.01079031553415E+05
 cg2d: Sum(rhs),rhsMax =  -7.91172990688451E+01  1.39895001492740E+00
(PID.TID 0000.0001)  ploadbar=  1.01078317961775E+05
 cg2d: Sum(rhs),rhsMax =  -7.93319080139788E+01  1.39464168084410E+00
(PID.TID 0000.0001)  ploadbar=  1.01077604370135E+05
 cg2d: Sum(rhs),rhsMax =  -7.95280667252214E+01  1.39064911691341E+00
(PID.TID 0000.0001)  ploadbar=  1.01076890778496E+05
 cg2d: Sum(rhs),rhsMax =  -7.95590878417946E+01  1.38958147567263E+00
(PID.TID 0000.0001)  ploadbar=  1.01075661769660E+05
 cg2d: Sum(rhs),rhsMax =  -7.94919025601080E+01  1.39025070759449E+00
(PID.TID 0000.0001)  ploadbar=  1.01074432760825E+05
 cg2d: Sum(rhs),rhsMax =  -7.94095706082094E+01  1.39120328273523E+00
(PID.TID 0000.0001)  ploadbar=  1.01073203751990E+05
 cg2d: Sum(rhs),rhsMax =  -7.93276625002039E+01  1.39216220482641E+00
(PID.TID 0000.0001)  ploadbar=  1.01071974743155E+05
 cg2d: Sum(rhs),rhsMax =  -7.92570717001615E+01  1.39293181691720E+00
(PID.TID 0000.0001)  ploadbar=  1.01070745734320E+05
 cg2d: Sum(rhs),rhsMax =  -7.92069524897461E+01  1.39334668464561E+00
(PID.TID 0000.0001)  ploadbar=  1.01069516725484E+05
 cg2d: Sum(rhs),rhsMax =  -7.91527713981396E+01  1.39383620280807E+00
(PID.TID 0000.0001)  ploadbar=  1.01068671553139E+05
 cg2d: Sum(rhs),rhsMax =  -7.90974750037025E+01  1.39434477245262E+00
(PID.TID 0000.0001)  ploadbar=  1.01067826380793E+05
 cg2d: Sum(rhs),rhsMax =  -7.90283633841180E+01  1.39509213083063E+00
(PID.TID 0000.0001)  ploadbar=  1.01066981208447E+05
 cg2d: Sum(rhs),rhsMax =  -7.89301351320115E+01  1.39634598926964E+00
(PID.TID 0000.0001)  ploadbar=  1.01066136036101E+05
 cg2d: Sum(rhs),rhsMax =  -7.87841242419054E+01  1.39843837329532E+00
(PID.TID 0000.0001)  ploadbar=  1.01065290863755E+05
 cg2d: Sum(rhs),rhsMax =  -7.85713452118384E+01  1.40171528090820E+00
(PID.TID 0000.0001)  ploadbar=  1.01064445691409E+05
 cg2d: Sum(rhs),rhsMax =  -7.83173992091728E+01  1.40577604648982E+00
(PID.TID 0000.0001)  ploadbar=  1.01063985439184E+05
 cg2d: Sum(rhs),rhsMax =  -7.79859870926174E+01  1.41128813736656E+00
(PID.TID 0000.0001)  ploadbar=  1.01063525186959E+05
 cg2d: Sum(rhs),rhsMax =  -7.75677843227261E+01  1.41845390546284E+00
(PID.TID 0000.0001)  ploadbar=  1.01063064934733E+05
 cg2d: Sum(rhs),rhsMax =  -7.71611109053571E+01  1.42550180600148E+00
(PID.TID 0000.0001)  ploadbar=  1.01062604682508E+05
 cg2d: Sum(rhs),rhsMax =  -7.69437347011955E+01  1.42911372971827E+00
(PID.TID 0000.0001)  ploadbar=  1.01062144430282E+05
 cg2d: Sum(rhs),rhsMax =  -7.68821841326573E+01  1.42984988260899E+00
(PID.TID 0000.0001)  ploadbar=  1.01061684178057E+05
 cg2d: Sum(rhs),rhsMax =  -7.68919867936567E+01  1.42923494338281E+00
(PID.TID 0000.0001)  ploadbar=  1.01061323178530E+05
 cg2d: Sum(rhs),rhsMax =  -7.69050417766588E+01  1.42853227851003E+00
(PID.TID 0000.0001)  ploadbar=  1.01060962179003E+05
 cg2d: Sum(rhs),rhsMax =  -7.69226064577878E+01  1.42771630278381E+00
(PID.TID 0000.0001)  ploadbar=  1.01060601179476E+05
 cg2d: Sum(rhs),rhsMax =  -7.69467615624571E+01  1.42674621735016E+00
(PID.TID 0000.0001)  ploadbar=  1.01060240179949E+05
 cg2d: Sum(rhs),rhsMax =  -7.69763810791359E+01  1.42563912182332E+00
(PID.TID 0000.0001)  ploadbar=  1.01059879180422E+05
 cg2d: Sum(rhs),rhsMax =  -7.70023264636312E+01  1.42456118724310E+00
(PID.TID 0000.0001)  ploadbar=  1.01059518180895E+05
 cg2d: Sum(rhs),rhsMax =  -7.68928533245932E+01  1.42600723664386E+00
(PID.TID 0000.0001)  ploadbar=  1.01059196101286E+05
 cg2d: Sum(rhs),rhsMax =  -7.66708865162085E+01  1.42956256595913E+00
(PID.TID 0000.0001)  ploadbar=  1.01058874021676E+05
 cg2d: Sum(rhs),rhsMax =  -7.63880500808603E+01  1.43428775074952E+00
(PID.TID 0000.0001)  ploadbar=  1.01058551942067E+05
 cg2d: Sum(rhs),rhsMax =  -7.60461181452509E+01  1.44016876251602E+00
(PID.TID 0000.0001)  ploadbar=  1.01058229862457E+05
 cg2d: Sum(rhs),rhsMax =  -7.59522620286171E+01  1.44137831866078E+00
(PID.TID 0000.0001)  ploadbar=  1.01057907782848E+05
 cg2d: Sum(rhs),rhsMax =  -7.60003235778198E+01  1.43989475651499E+00
(PID.TID 0000.0001)  ploadbar=  1.01057585703238E+05
 cg2d: Sum(rhs),rhsMax =  -7.60369024876424E+01  1.43862603082337E+00
(PID.TID 0000.0001)  ploadbar=  1.01057533362643E+05
 cg2d: Sum(rhs),rhsMax =  -7.60625089374552E+01  1.43755770911400E+00
(PID.TID 0000.0001)  ploadbar=  1.01057481022049E+05
 cg2d: Sum(rhs),rhsMax =  -7.60898677958525E+01  1.43644347842409E+00
(PID.TID 0000.0001)  ploadbar=  1.01057428681454E+05
 cg2d: Sum(rhs),rhsMax =  -7.61355759416822E+01  1.43496706576540E+00
(PID.TID 0000.0001)  ploadbar=  1.01057376340859E+05
 cg2d: Sum(rhs),rhsMax =  -7.62067342687865E+01  1.43299425147705E+00
(PID.TID 0000.0001)  ploadbar=  1.01057324000264E+05
 cg2d: Sum(rhs),rhsMax =  -7.63111118684052E+01  1.43038157766803E+00
(PID.TID 0000.0001)  ploadbar=  1.01057271659669E+05
 cg2d: Sum(rhs),rhsMax =  -7.63821391100414E+01  1.42841162260180E+00
(PID.TID 0000.0001)  ploadbar=  1.01057496868366E+05
 cg2d: Sum(rhs),rhsMax =  -7.60850777050010E+01  1.43335527608899E+00
(PID.TID 0000.0001)  ploadbar=  1.01057722077062E+05
 cg2d: Sum(rhs),rhsMax =  -7.58736441194757E+01  1.43672068358634E+00
(PID.TID 0000.0001)  ploadbar=  1.01057947285758E+05
 cg2d: Sum(rhs),rhsMax =  -7.58434237572364E+01  1.43666558298202E+00
(PID.TID 0000.0001)  ploadbar=  1.01058172494454E+05
 cg2d: Sum(rhs),rhsMax =  -7.57778520248488E+01  1.43727604313575E+00
(PID.TID 0000.0001)  ploadbar=  1.01058397703150E+05
 cg2d: Sum(rhs),rhsMax =  -7.59004382128724E+01  1.43431271593844E+00
(PID.TID 0000.0001)  ploadbar=  1.01058622911846E+05
 cg2d: Sum(rhs),rhsMax =  -7.60385487406751E+01  1.43103183175263E+00
(PID.TID 0000.0001)  ploadbar=  1.01058934046051E+05
 cg2d: Sum(rhs),rhsMax =  -7.61230338445162E+01  1.42873139669253E+00
(PID.TID 0000.0001)  ploadbar=  1.01059245180256E+05
 cg2d: Sum(rhs),rhsMax =  -7.61923593049603E+01  1.42668009131591E+00
(PID.TID 0000.0001)  ploadbar=  1.01059556314461E+05
 cg2d: Sum(rhs),rhsMax =  -7.62466289564240E+01  1.42486850200314E+00
(PID.TID 0000.0001)  ploadbar=  1.01059867448665E+05
 cg2d: Sum(rhs),rhsMax =  -7.61593108075069E+01  1.42565194730699E+00
(PID.TID 0000.0001)  ploadbar=  1.01060178582870E+05
 cg2d: Sum(rhs),rhsMax =  -7.61788366358581E+01  1.42437810555024E+00
(PID.TID 0000.0001)  ploadbar=  1.01060489717075E+05
 cg2d: Sum(rhs),rhsMax =  -7.59075121304009E+01  1.42857435710879E+00
(PID.TID 0000.0001)  ploadbar=  1.01061365889884E+05
 cg2d: Sum(rhs),rhsMax =  -7.58130448440585E+01  1.42947018086948E+00
(PID.TID 0000.0001)  ploadbar=  1.01062242062693E+05
 cg2d: Sum(rhs),rhsMax =  -7.61209587664945E+01  1.42281611154759E+00
(PID.TID 0000.0001)  ploadbar=  1.01063118235502E+05
 cg2d: Sum(rhs),rhsMax =  -7.64235364876557E+01  1.41631919051492E+00
(PID.TID 0000.0001)  ploadbar=  1.01063994408311E+05
 cg2d: Sum(rhs),rhsMax =  -7.67234753916226E+01  1.40992300820944E+00
(PID.TID 0000.0001)  ploadbar=  1.01064870581120E+05
 cg2d: Sum(rhs),rhsMax =  -7.70305469194834E+01  1.40344514217883E+00
(PID.TID 0000.0001)  ploadbar=  1.01065746753929E+05
 cg2d: Sum(rhs),rhsMax =  -7.74168979466545E+01  1.39560059509018E+00
(PID.TID 0000.0001)  ploadbar=  1.01066322470980E+05
 cg2d: Sum(rhs),rhsMax =  -7.78194857668571E+01  1.38755330436261E+00
(PID.TID 0000.0001)  ploadbar=  1.01066898188031E+05
 cg2d: Sum(rhs),rhsMax =  -7.82367665411680E+01  1.37933665999441E+00
(PID.TID 0000.0001)  ploadbar=  1.01067473905082E+05
 cg2d: Sum(rhs),rhsMax =  -7.86692595231470E+01  1.37094811130127E+00
(PID.TID 0000.0001)  ploadbar=  1.01068049622134E+05
 cg2d: Sum(rhs),rhsMax =  -7.89875267537441E+01  1.36462788701197E+00
(PID.TID 0000.0001)  ploadbar=  1.01068625339185E+05
 cg2d: Sum(rhs),rhsMax =  -7.92400032900056E+01  1.35949119767276E+00
(PID.TID 0000.0001)  ploadbar=  1.01069201056236E+05
 cg2d: Sum(rhs),rhsMax =  -7.94524403426075E+01  1.35512735990920E+00
(PID.TID 0000.0001)  ploadbar=  1.01068503020724E+05
 cg2d: Sum(rhs),rhsMax =  -7.96294692057039E+01  1.35144158073524E+00
(PID.TID 0000.0001)  ploadbar=  1.01067804985212E+05
 cg2d: Sum(rhs),rhsMax =  -7.97897226548739E+01  1.34810430406314E+00
(PID.TID 0000.0001)  ploadbar=  1.01067106949701E+05
 cg2d: Sum(rhs),rhsMax =  -7.99454810295417E+01  1.34490004738263E+00
(PID.TID 0000.0001)  ploadbar=  1.01066408914189E+05
 cg2d: Sum(rhs),rhsMax =  -8.00933331653382E+01  1.34187962806441E+00
(PID.TID 0000.0001)  ploadbar=  1.01065710878677E+05
 cg2d: Sum(rhs),rhsMax =  -8.02833892051062E+01  1.33820165681235E+00
(PID.TID 0000.0001)  ploadbar=  1.01065012843166E+05
 cg2d: Sum(rhs),rhsMax =  -8.04003434701548E+01  1.33571336364383E+00
(PID.TID 0000.0001)  ploadbar=  1.01065579141623E+05
 cg2d: Sum(rhs),rhsMax =  -8.05358470768983E+01  1.33288199449113E+00
(PID.TID 0000.0001)  ploadbar=  1.01066145440080E+05
 cg2d: Sum(rhs),rhsMax =  -8.06892016278374E+01  1.32971794012023E+00
(PID.TID 0000.0001)  ploadbar=  1.01066711738537E+05
 cg2d: Sum(rhs),rhsMax =  -8.08574481990304E+01  1.32626689391916E+00
(PID.TID 0000.0001)  ploadbar=  1.01067278036994E+05
 cg2d: Sum(rhs),rhsMax =  -8.10357509201715E+01  1.32260393775102E+00
(PID.TID 0000.0001)  ploadbar=  1.01067844335451E+05
 cg2d: Sum(rhs),rhsMax =  -8.12172315167277E+01  1.31883765930336E+00
(PID.TID 0000.0001)  ploadbar=  1.01068410633908E+05
 cg2d: Sum(rhs),rhsMax =  -8.13262558194120E+01  1.31631149922030E+00
(PID.TID 0000.0001)  ploadbar=  1.01069754451575E+05
 cg2d: Sum(rhs),rhsMax =  -8.15406462671696E+01  1.31214163793666E+00
(PID.TID 0000.0001)  ploadbar=  1.01071098269242E+05
 cg2d: Sum(rhs),rhsMax =  -8.17324559338243E+01  1.30839802011878E+00
(PID.TID 0000.0001)  ploadbar=  1.01072442086909E+05
 cg2d: Sum(rhs),rhsMax =  -8.19038206937140E+01  1.30503799525757E+00
(PID.TID 0000.0001)  ploadbar=  1.01073785904577E+05
 cg2d: Sum(rhs),rhsMax =  -8.20627453308946E+01  1.30192427346529E+00
(PID.TID 0000.0001)  ploadbar=  1.01075129722244E+05
 cg2d: Sum(rhs),rhsMax =  -8.22138590013350E+01  1.29897378015487E+00
(PID.TID 0000.0001)  ploadbar=  1.01076473539911E+05
 cg2d: Sum(rhs),rhsMax =  -8.23556642781395E+01  1.29621608114221E+00
(PID.TID 0000.0001)  ploadbar=  1.01076271380659E+05
 cg2d: Sum(rhs),rhsMax =  -8.24869524351561E+01  1.29366613405452E+00
(PID.TID 0000.0001)  ploadbar=  1.01076069221407E+05
 cg2d: Sum(rhs),rhsMax =  -8.26080861862366E+01  1.29131495540290E+00
(PID.TID 0000.0001)  ploadbar=  1.01075867062156E+05
 cg2d: Sum(rhs),rhsMax =  -8.27160738699286E+01  1.28920512408241E+00
(PID.TID 0000.0001)  ploadbar=  1.01075664902904E+05
 cg2d: Sum(rhs),rhsMax =  -8.28071034775097E+01  1.28739116831326E+00
(PID.TID 0000.0001)  ploadbar=  1.01075462743652E+05
 cg2d: Sum(rhs),rhsMax =  -8.28768614210404E+01  1.28593676988016E+00
(PID.TID 0000.0001)  ploadbar=  1.01075260584401E+05
 cg2d: Sum(rhs),rhsMax =  -8.29002745099291E+01  1.28522990614112E+00
(PID.TID 0000.0001)  ploadbar=  1.01074254091532E+05
 cg2d: Sum(rhs),rhsMax =  -8.28970060128620E+01  1.28496076957732E+00
(PID.TID 0000.0001)  ploadbar=  1.01073247598663E+05
 cg2d: Sum(rhs),rhsMax =  -8.28716988497371E+01  1.28505496306249E+00
(PID.TID 0000.0001)  ploadbar=  1.01072241105795E+05
 cg2d: Sum(rhs),rhsMax =  -8.28237766446973E+01  1.28551908136085E+00
(PID.TID 0000.0001)  ploadbar=  1.01071234612926E+05
 cg2d: Sum(rhs),rhsMax =  -8.27534650678822E+01  1.28634569079258E+00
(PID.TID 0000.0001)  ploadbar=  1.01070228120057E+05
 cg2d: Sum(rhs),rhsMax =  -8.26420358149984E+01  1.28782577495448E+00
(PID.TID 0000.0001)  ploadbar=  1.01069221627189E+05
 cg2d: Sum(rhs),rhsMax =  -8.25312397875044E+01  1.28929527667795E+00
(PID.TID 0000.0001)  ploadbar=  1.01068798223003E+05
 cg2d: Sum(rhs),rhsMax =  -8.24265879596084E+01  1.29066665652812E+00
(PID.TID 0000.0001)  ploadbar=  1.01068374818817E+05
 cg2d: Sum(rhs),rhsMax =  -8.23057853341578E+01  1.29228692521183E+00
(PID.TID 0000.0001)  ploadbar=  1.01067951414631E+05
 cg2d: Sum(rhs),rhsMax =  -8.21673775004238E+01  1.29417607852637E+00
(PID.TID 0000.0001)  ploadbar=  1.01067528010444E+05
 cg2d: Sum(rhs),rhsMax =  -8.20055375773214E+01  1.29642225326292E+00
(PID.TID 0000.0001)  ploadbar=  1.01067104606258E+05
 cg2d: Sum(rhs),rhsMax =  -8.18125440667380E+01  1.29914706148254E+00
(PID.TID 0000.0001)  ploadbar=  1.01066681202072E+05
 cg2d: Sum(rhs),rhsMax =  -8.15866215922203E+01  1.30243525680169E+00
(PID.TID 0000.0001)  ploadbar=  1.01065163704410E+05
 cg2d: Sum(rhs),rhsMax =  -8.15164408374765E+01  1.30326591389127E+00
(PID.TID 0000.0001)  ploadbar=  1.01063646206747E+05
 cg2d: Sum(rhs),rhsMax =  -8.14176719687047E+01  1.30457299187070E+00
(PID.TID 0000.0001)  ploadbar=  1.01062128709085E+05
 cg2d: Sum(rhs),rhsMax =  -8.13097183552689E+01  1.30604443450261E+00
(PID.TID 0000.0001)  ploadbar=  1.01060611211422E+05
 cg2d: Sum(rhs),rhsMax =  -8.11986603806463E+01  1.30757925919468E+00
(PID.TID 0000.0001)  ploadbar=  1.01059093713760E+05
 cg2d: Sum(rhs),rhsMax =  -8.10896775043028E+01  1.30908949555489E+00
(PID.TID 0000.0001)  ploadbar=  1.01057576216098E+05
 cg2d: Sum(rhs),rhsMax =  -8.10055836412586E+01  1.31020177735681E+00
(PID.TID 0000.0001)  ploadbar=  1.01057825060987E+05
 cg2d: Sum(rhs),rhsMax =  -8.09405770128882E+01  1.31100290944003E+00
(PID.TID 0000.0001)  ploadbar=  1.01058073905877E+05
 cg2d: Sum(rhs),rhsMax =  -8.08894703935650E+01  1.31157308846938E+00
(PID.TID 0000.0001)  ploadbar=  1.01058322750767E+05
 cg2d: Sum(rhs),rhsMax =  -8.08448671460762E+01  1.31202872445675E+00
(PID.TID 0000.0001)  ploadbar=  1.01058571595656E+05
 cg2d: Sum(rhs),rhsMax =  -8.07982845211653E+01  1.31250429815793E+00
(PID.TID 0000.0001)  ploadbar=  1.01058820440546E+05
 cg2d: Sum(rhs),rhsMax =  -8.07409489889934E+01  1.31314357923298E+00
(PID.TID 0000.0001)  ploadbar=  1.01059069285436E+05
 cg2d: Sum(rhs),rhsMax =  -8.06712771042463E+01  1.31399454692881E+00
(PID.TID 0000.0001)  ploadbar=  1.01059468948495E+05
 cg2d: Sum(rhs),rhsMax =  -8.06028159302548E+01  1.31483446461772E+00
(PID.TID 0000.0001)  ploadbar=  1.01059868611554E+05
 cg2d: Sum(rhs),rhsMax =  -8.05450091132239E+01  1.31550552547940E+00
(PID.TID 0000.0001)  ploadbar=  1.01060268274613E+05
 cg2d: Sum(rhs),rhsMax =  -8.05164425134483E+01  1.31569937300875E+00
(PID.TID 0000.0001)  ploadbar=  1.01060667937673E+05
 cg2d: Sum(rhs),rhsMax =  -8.04879176308076E+01  1.31588578219250E+00
(PID.TID 0000.0001)  ploadbar=  1.01061067600732E+05
 cg2d: Sum(rhs),rhsMax =  -8.05294151424307E+01  1.31491600862084E+00
(PID.TID 0000.0001)  ploadbar=  1.01061467263791E+05
 cg2d: Sum(rhs),rhsMax =  -8.05599632918782E+01  1.31409705862203E+00
(PID.TID 0000.0001)  ploadbar=  1.01060064957541E+05
 cg2d: Sum(rhs),rhsMax =  -8.05888799451307E+01  1.31327338396230E+00
(PID.TID 0000.0001)  ploadbar=  1.01058662651292E+05
 cg2d: Sum(rhs),rhsMax =  -8.06022498202278E+01  1.31266945552913E+00
(PID.TID 0000.0001)  ploadbar=  1.01057260345042E+05
 cg2d: Sum(rhs),rhsMax =  -8.07214110969016E+01  1.31030570865702E+00
(PID.TID 0000.0001)  ploadbar=  1.01055858038793E+05
 cg2d: Sum(rhs),rhsMax =  -8.08190442279412E+01  1.30824795248315E+00
(PID.TID 0000.0001)  ploadbar=  1.01054455732543E+05
 cg2d: Sum(rhs),rhsMax =  -8.08461921667718E+01  1.30728031864099E+00
(PID.TID 0000.0001)  ploadbar=  1.01053053426294E+05
 cg2d: Sum(rhs),rhsMax =  -8.08323139878284E+01  1.30702441082363E+00
(PID.TID 0000.0001)  ploadbar=  1.01051635466751E+05
 cg2d: Sum(rhs),rhsMax =  -8.08069490120457E+01  1.30699769447869E+00
(PID.TID 0000.0001)  ploadbar=  1.01050217507208E+05
 cg2d: Sum(rhs),rhsMax =  -8.07692734120733E+01  1.30721191969655E+00
(PID.TID 0000.0001)  ploadbar=  1.01048799547666E+05
 cg2d: Sum(rhs),rhsMax =  -8.07246776689062E+01  1.30757785455741E+00
(PID.TID 0000.0001)  ploadbar=  1.01047381588123E+05
 cg2d: Sum(rhs),rhsMax =  -8.07571041134956E+01  1.30673015860960E+00
(PID.TID 0000.0001)  ploadbar=  1.01045963628580E+05
 cg2d: Sum(rhs),rhsMax =  -8.08346125407966E+01  1.30518750206550E+00
(PID.TID 0000.0001)  ploadbar=  1.01044545669038E+05
 cg2d: Sum(rhs),rhsMax =  -8.09044839352286E+01  1.30378019005597E+00
(PID.TID 0000.0001)  ploadbar=  1.01044066425975E+05
 cg2d: Sum(rhs),rhsMax =  -8.09185759957909E+01  1.30327847683124E+00
(PID.TID 0000.0001)  ploadbar=  1.01043587182913E+05
 cg2d: Sum(rhs),rhsMax =  -8.08323157508349E+01  1.30439592934550E+00
(PID.TID 0000.0001)  ploadbar=  1.01043107939850E+05
 cg2d: Sum(rhs),rhsMax =  -8.06749550056751E+01  1.30666447360133E+00
(PID.TID 0000.0001)  ploadbar=  1.01042628696788E+05
 cg2d: Sum(rhs),rhsMax =  -8.04869642592536E+01  1.30943717601879E+00
(PID.TID 0000.0001)  ploadbar=  1.01042149453725E+05
 cg2d: Sum(rhs),rhsMax =  -8.03978244463195E+01  1.31060227708243E+00
(PID.TID 0000.0001)  ploadbar=  1.01041670210663E+05
 cg2d: Sum(rhs),rhsMax =  -8.02668374821310E+01  1.31247912288070E+00
(PID.TID 0000.0001)  ploadbar=  1.01041686990095E+05
 cg2d: Sum(rhs),rhsMax =  -8.01045401771593E+01  1.31489757922040E+00
(PID.TID 0000.0001)  ploadbar=  1.01041703769527E+05
 cg2d: Sum(rhs),rhsMax =  -7.99673669833621E+01  1.31693177989585E+00
(PID.TID 0000.0001)  ploadbar=  1.01041720548960E+05
 cg2d: Sum(rhs),rhsMax =  -7.98850059073411E+01  1.31808199371439E+00
(PID.TID 0000.0001)  ploadbar=  1.01041737328392E+05
 cg2d: Sum(rhs),rhsMax =  -7.98786247856861E+01  1.31798651777990E+00
(PID.TID 0000.0001)  ploadbar=  1.01041754107825E+05
 cg2d: Sum(rhs),rhsMax =  -8.00278810645415E+01  1.31532681721306E+00
(PID.TID 0000.0001)  ploadbar=  1.01041770887257E+05
 cg2d: Sum(rhs),rhsMax =  -8.02743149782514E+01  1.31105023315694E+00
(PID.TID 0000.0001)  ploadbar=  1.01042964656445E+05
 cg2d: Sum(rhs),rhsMax =  -8.05538444967219E+01  1.30622083991451E+00
(PID.TID 0000.0001)  ploadbar=  1.01044158425632E+05
 cg2d: Sum(rhs),rhsMax =  -8.08591136764632E+01  1.30096450275058E+00
(PID.TID 0000.0001)  ploadbar=  1.01045352194819E+05
 cg2d: Sum(rhs),rhsMax =  -8.11826806933198E+01  1.29540630152315E+00
(PID.TID 0000.0001)  ploadbar=  1.01046545964006E+05
 cg2d: Sum(rhs),rhsMax =  -8.15310512778207E+01  1.28944604582284E+00
(PID.TID 0000.0001)  ploadbar=  1.01047739733194E+05
 cg2d: Sum(rhs),rhsMax =  -8.19081263343043E+01  1.28302880061910E+00
(PID.TID 0000.0001)  ploadbar=  1.01048933502381E+05
 cg2d: Sum(rhs),rhsMax =  -8.20520568227604E+01  1.28033727244735E+00
(PID.TID 0000.0001)  ploadbar=  1.01050796568339E+05
 cg2d: Sum(rhs),rhsMax =  -8.21013786452722E+01  1.27916443615069E+00
(PID.TID 0000.0001)  ploadbar=  1.01052659634297E+05
 cg2d: Sum(rhs),rhsMax =  -8.21349464070362E+01  1.27827238229075E+00
(PID.TID 0000.0001)  ploadbar=  1.01054522700256E+05
 cg2d: Sum(rhs),rhsMax =  -8.21671955331238E+01  1.27743258074386E+00
(PID.TID 0000.0001)  ploadbar=  1.01056385766214E+05
 cg2d: Sum(rhs),rhsMax =  -8.22108397451887E+01  1.27644096938624E+00
(PID.TID 0000.0001)  ploadbar=  1.01058248832172E+05
 cg2d: Sum(rhs),rhsMax =  -8.22754733217043E+01  1.27514350741649E+00
(PID.TID 0000.0001)  ploadbar=  1.01060111898130E+05
 cg2d: Sum(rhs),rhsMax =  -8.24293832747893E+01  1.27248598508011E+00
(PID.TID 0000.0001)  ploadbar=  1.01061742330815E+05
 cg2d: Sum(rhs),rhsMax =  -8.22395591228406E+01  1.27515827843707E+00
(PID.TID 0000.0001)  ploadbar=  1.01063372763500E+05
 cg2d: Sum(rhs),rhsMax =  -8.19403794335397E+01  1.27955794179773E+00
(PID.TID 0000.0001)  ploadbar=  1.01065003196185E+05
 cg2d: Sum(rhs),rhsMax =  -8.16697137074920E+01  1.28354741840488E+00
(PID.TID 0000.0001)  ploadbar=  1.01066633628870E+05
 cg2d: Sum(rhs),rhsMax =  -8.14228169361590E+01  1.28718898119170E+00
(PID.TID 0000.0001)  ploadbar=  1.01068264061555E+05
 cg2d: Sum(rhs),rhsMax =  -8.11976932289552E+01  1.29050465085297E+00
(PID.TID 0000.0001)  ploadbar=  1.01069894494240E+05
 cg2d: Sum(rhs),rhsMax =  -8.10195483735734E+01  1.29311165035701E+00
(PID.TID 0000.0001)  ploadbar=  1.01070321501862E+05
 cg2d: Sum(rhs),rhsMax =  -8.08602029347172E+01  1.29544767953557E+00
(PID.TID 0000.0001)  ploadbar=  1.01070748509484E+05
 cg2d: Sum(rhs),rhsMax =  -8.07118743618691E+01  1.29763179336446E+00
(PID.TID 0000.0001)  ploadbar=  1.01071175517106E+05
 cg2d: Sum(rhs),rhsMax =  -8.05590997638399E+01  1.29990339829375E+00
(PID.TID 0000.0001)  ploadbar=  1.01071602524728E+05
 cg2d: Sum(rhs),rhsMax =  -8.03894726718003E+01  1.30245596985159E+00
(PID.TID 0000.0001)  ploadbar=  1.01072029532350E+05
 cg2d: Sum(rhs),rhsMax =  -8.01971053335768E+01  1.30538591621963E+00
(PID.TID 0000.0001)  ploadbar=  1.01072456539972E+05
 cg2d: Sum(rhs),rhsMax =  -7.99191011871831E+01  1.30969866276992E+00
(PID.TID 0000.0001)  ploadbar=  1.01073729460970E+05
 cg2d: Sum(rhs),rhsMax =  -7.96218260643386E+01  1.31431982617307E+00
(PID.TID 0000.0001)  ploadbar=  1.01075002381969E+05
 cg2d: Sum(rhs),rhsMax =  -7.92906612360225E+01  1.31949539685990E+00
(PID.TID 0000.0001)  ploadbar=  1.01076275302967E+05
 cg2d: Sum(rhs),rhsMax =  -7.89187499596224E+01  1.32535244912199E+00
(PID.TID 0000.0001)  ploadbar=  1.01077548223966E+05
 cg2d: Sum(rhs),rhsMax =  -7.85021532368947E+01  1.33197067285848E+00
(PID.TID 0000.0001)  ploadbar=  1.01078821144964E+05
 cg2d: Sum(rhs),rhsMax =  -7.80360775361126E+01  1.33945094500824E+00
(PID.TID 0000.0001)  ploadbar=  1.01080094065963E+05
 cg2d: Sum(rhs),rhsMax =  -7.75738648196683E+01  1.34698413179987E+00
(PID.TID 0000.0001)  ploadbar=  1.01080066865373E+05
 cg2d: Sum(rhs),rhsMax =  -7.70768430883831E+01  1.35524844553392E+00
(PID.TID 0000.0001)  ploadbar=  1.01080039664782E+05
 cg2d: Sum(rhs),rhsMax =  -7.65402339679146E+01  1.36435109202514E+00
(PID.TID 0000.0001)  ploadbar=  1.01080012464192E+05
 cg2d: Sum(rhs),rhsMax =  -7.59736645417736E+01  1.37414423475827E+00
(PID.TID 0000.0001)  ploadbar=  1.01079985263602E+05
 cg2d: Sum(rhs),rhsMax =  -7.53857498343201E+01  1.38448872723361E+00
(PID.TID 0000.0001)  ploadbar=  1.01079958063012E+05
 cg2d: Sum(rhs),rhsMax =  -7.47833244466040E+01  1.39527331171281E+00
(PID.TID 0000.0001)  ploadbar=  1.01079930862422E+05
 cg2d: Sum(rhs),rhsMax =  -7.41696585938095E+01  1.40644490344047E+00
(PID.TID 0000.0001)  ploadbar=  1.01079400343692E+05
 cg2d: Sum(rhs),rhsMax =  -7.35396054564516E+01  1.41811197798082E+00
(PID.TID 0000.0001)  ploadbar=  1.01078869824963E+05
 cg2d: Sum(rhs),rhsMax =  -7.28904796867518E+01  1.43034223526816E+00
(PID.TID 0000.0001)  ploadbar=  1.01078339306233E+05
 cg2d: Sum(rhs),rhsMax =  -7.22231877686283E+01  1.44313944016410E+00
(PID.TID 0000.0001)  ploadbar=  1.01077808787504E+05
 cg2d: Sum(rhs),rhsMax =  -7.15375816777663E+01  1.45652801841725E+00
(PID.TID 0000.0001)  ploadbar=  1.01077278268774E+05
 cg2d: Sum(rhs),rhsMax =  -7.08330746040546E+01  1.47054434236733E+00
(PID.TID 0000.0001)  ploadbar=  1.01076747750045E+05
 cg2d: Sum(rhs),rhsMax =  -7.01069537506388E+01  1.48536251125928E+00
(PID.TID 0000.0001)  ploadbar=  1.01076482304981E+05
 cg2d: Sum(rhs),rhsMax =  -6.93793712943755E+01  1.50058500169527E+00
(PID.TID 0000.0001)  ploadbar=  1.01076216859917E+05
 cg2d: Sum(rhs),rhsMax =  -6.86628903815369E+01  1.51594537151047E+00
(PID.TID 0000.0001)  ploadbar=  1.01075951414852E+05
 cg2d: Sum(rhs),rhsMax =  -6.79664192953008E+01  1.53123476858514E+00
(PID.TID 0000.0001)  ploadbar=  1.01075685969788E+05
 cg2d: Sum(rhs),rhsMax =  -6.72975996539651E+01  1.54625785465395E+00
(PID.TID 0000.0001)  ploadbar=  1.01075420524724E+05
 cg2d: Sum(rhs),rhsMax =  -6.66611807791070E+01  1.56087100975772E+00
(PID.TID 0000.0001)  ploadbar=  1.01075155079660E+05
 cg2d: Sum(rhs),rhsMax =  -6.60621108960070E+01  1.57482967523403E+00
(PID.TID 0000.0001)  ploadbar=  1.01074560683551E+05
 cg2d: Sum(rhs),rhsMax =  -6.54873858112619E+01  1.58839907857817E+00
(PID.TID 0000.0001)  ploadbar=  1.01073966287441E+05
 cg2d: Sum(rhs),rhsMax =  -6.49427204224093E+01  1.60140565949953E+00
(PID.TID 0000.0001)  ploadbar=  1.01073371891332E+05
 cg2d: Sum(rhs),rhsMax =  -6.44362362267771E+01  1.61360714458984E+00
(PID.TID 0000.0001)  ploadbar=  1.01072777495223E+05
 cg2d: Sum(rhs),rhsMax =  -6.39727234281672E+01  1.62483644287871E+00
(PID.TID 0000.0001)  ploadbar=  1.01072183099114E+05
 cg2d: Sum(rhs),rhsMax =  -6.35569619468326E+01  1.63492182765127E+00
(PID.TID 0000.0001)  ploadbar=  1.01071588703005E+05
 cg2d: Sum(rhs),rhsMax =  -6.31953827084180E+01  1.64377108279177E+00
(PID.TID 0000.0001)  ploadbar=  1.01070485035033E+05
 cg2d: Sum(rhs),rhsMax =  -6.28887291355363E+01  1.65131607486169E+00
(PID.TID 0000.0001)  ploadbar=  1.01069381367061E+05
 cg2d: Sum(rhs),rhsMax =  -6.26413447701434E+01  1.65739368425283E+00
(PID.TID 0000.0001)  ploadbar=  1.01068277699090E+05
 cg2d: Sum(rhs),rhsMax =  -6.24539238695905E+01  1.66194737609634E+00
(PID.TID 0000.0001)  ploadbar=  1.01067174031118E+05
 cg2d: Sum(rhs),rhsMax =  -6.23200994551094E+01  1.66511394265305E+00
(PID.TID 0000.0001)  ploadbar=  1.01066070363146E+05
 cg2d: Sum(rhs),rhsMax =  -6.22304087556357E+01  1.66712409410254E+00
(PID.TID 0000.0001)  ploadbar=  1.01064966695175E+05
 cg2d: Sum(rhs),rhsMax =  -6.21805730021408E+01  1.66808618186676E+00
(PID.TID 0000.0001)  ploadbar=  1.01064870717161E+05
 cg2d: Sum(rhs),rhsMax =  -6.21594905997241E+01  1.66828820876582E+00
(PID.TID 0000.0001)  ploadbar=  1.01064774739148E+05
 cg2d: Sum(rhs),rhsMax =  -6.21670794922696E+01  1.66772459457138E+00
(PID.TID 0000.0001)  ploadbar=  1.01064678761135E+05
 cg2d: Sum(rhs),rhsMax =  -6.21998340690938E+01  1.66648706501538E+00
(PID.TID 0000.0001)  ploadbar=  1.01064582783122E+05
 cg2d: Sum(rhs),rhsMax =  -6.22523863071218E+01  1.66471681009245E+00
(PID.TID 0000.0001)  ploadbar=  1.01064486805108E+05
 cg2d: Sum(rhs),rhsMax =  -6.23225709205653E+01  1.66247316377965E+00
(PID.TID 0000.0001)  ploadbar=  1.01064390827095E+05
 cg2d: Sum(rhs),rhsMax =  -6.24088285422772E+01  1.65983502619162E+00
(PID.TID 0000.0001)  ploadbar=  1.01064498451587E+05
 cg2d: Sum(rhs),rhsMax =  -6.25041607858261E+01  1.65698705701561E+00
(PID.TID 0000.0001)  ploadbar=  1.01064606076078E+05
 cg2d: Sum(rhs),rhsMax =  -6.26127001611903E+01  1.65381726159425E+00
(PID.TID 0000.0001)  ploadbar=  1.01064713700570E+05
 cg2d: Sum(rhs),rhsMax =  -6.27280585433034E+01  1.65048708080923E+00
(PID.TID 0000.0001)  ploadbar=  1.01064821325061E+05
 cg2d: Sum(rhs),rhsMax =  -6.28438162117374E+01  1.64715772226902E+00
(PID.TID 0000.0001)  ploadbar=  1.01064928949553E+05
 cg2d: Sum(rhs),rhsMax =  -6.29553432127827E+01  1.64394051255644E+00
(PID.TID 0000.0001)  ploadbar=  1.01065036574044E+05
 cg2d: Sum(rhs),rhsMax =  -6.30521029425744E+01  1.64103685861018E+00
(PID.TID 0000.0001)  ploadbar=  1.01065396407990E+05
 cg2d: Sum(rhs),rhsMax =  -6.31405398248930E+01  1.63826992233880E+00
(PID.TID 0000.0001)  ploadbar=  1.01065756241936E+05
 cg2d: Sum(rhs),rhsMax =  -6.32164724176405E+01  1.63574196295282E+00
(PID.TID 0000.0001)  ploadbar=  1.01066116075882E+05
 cg2d: Sum(rhs),rhsMax =  -6.32754135427976E+01  1.63355906241177E+00
(PID.TID 0000.0001)  ploadbar=  1.01066475909828E+05
 cg2d: Sum(rhs),rhsMax =  -6.33170786055157E+01  1.63172328816802E+00
(PID.TID 0000.0001)  ploadbar=  1.01066835743774E+05
 cg2d: Sum(rhs),rhsMax =  -6.33421421922147E+01  1.63020788486332E+00
(PID.TID 0000.0001)  ploadbar=  1.01067195577720E+05
 cg2d: Sum(rhs),rhsMax =  -6.33833834734005E+01  1.62835089241023E+00
(PID.TID 0000.0001)  ploadbar=  1.01067726597111E+05
 cg2d: Sum(rhs),rhsMax =  -6.34263718909282E+01  1.62652089275312E+00
(PID.TID 0000.0001)  ploadbar=  1.01068257616503E+05
 cg2d: Sum(rhs),rhsMax =  -6.34681800712612E+01  1.62478535858221E+00
(PID.TID 0000.0001)  ploadbar=  1.01068788635894E+05
 cg2d: Sum(rhs),rhsMax =  -6.35110799190500E+01  1.62307793400156E+00
(PID.TID 0000.0001)  ploadbar=  1.01069319655285E+05
 cg2d: Sum(rhs),rhsMax =  -6.35552721016711E+01  1.62138432540423E+00
(PID.TID 0000.0001)  ploadbar=  1.01069850674676E+05
 cg2d: Sum(rhs),rhsMax =  -6.36031665739508E+01  1.61963528418035E+00
(PID.TID 0000.0001)  ploadbar=  1.01070381694067E+05
 cg2d: Sum(rhs),rhsMax =  -6.36468667074929E+01  1.61798842655424E+00
(PID.TID 0000.0001)  ploadbar=  1.01070616515185E+05
 cg2d: Sum(rhs),rhsMax =  -6.36949183013426E+01  1.61621566644080E+00
(PID.TID 0000.0001)  ploadbar=  1.01070851336303E+05
 cg2d: Sum(rhs),rhsMax =  -6.37419838803404E+01  1.61444625953218E+00
(PID.TID 0000.0001)  ploadbar=  1.01071086157421E+05
 cg2d: Sum(rhs),rhsMax =  -6.37862621427553E+01  1.61272232317469E+00
(PID.TID 0000.0001)  ploadbar=  1.01071320978539E+05
 cg2d: Sum(rhs),rhsMax =  -6.38303348285692E+01  1.61097475978752E+00
(PID.TID 0000.0001)  ploadbar=  1.01071555799657E+05
 cg2d: Sum(rhs),rhsMax =  -6.37067696539242E+01  1.61343252065503E+00
(PID.TID 0000.0001)  ploadbar=  1.01071790620775E+05
 cg2d: Sum(rhs),rhsMax =  -6.24744810368284E+01  1.64460580432233E+00
(PID.TID 0000.0001)  ploadbar=  1.01072157285476E+05
 cg2d: Sum(rhs),rhsMax =  -6.11949395164609E+01  1.67835156048746E+00
(PID.TID 0000.0001)  ploadbar=  1.01072523950178E+05
 cg2d: Sum(rhs),rhsMax =  -5.98627001135259E+01  1.71506503289458E+00
(PID.TID 0000.0001)  ploadbar=  1.01072890614880E+05
 cg2d: Sum(rhs),rhsMax =  -5.84299644341467E+01  1.75647710403519E+00
(PID.TID 0000.0001)  ploadbar=  1.01073257279581E+05
 cg2d: Sum(rhs),rhsMax =  -5.68890400849268E+01  1.80339694512490E+00
(PID.TID 0000.0001)  ploadbar=  1.01073623944283E+05
 cg2d: Sum(rhs),rhsMax =  -5.52633663302408E+01  1.85576298845128E+00
(PID.TID 0000.0001)  ploadbar=  1.01073990608985E+05
 cg2d: Sum(rhs),rhsMax =  -5.37633631771803E+01  1.90681014779386E+00
(PID.TID 0000.0001)  ploadbar=  1.01074588390674E+05
 cg2d: Sum(rhs),rhsMax =  -5.23025158834847E+01  1.95928811176515E+00
(PID.TID 0000.0001)  ploadbar=  1.01075186172363E+05
 cg2d: Sum(rhs),rhsMax =  -5.08876193109339E+01  2.01292460710214E+00
(PID.TID 0000.0001)  ploadbar=  1.01075783954053E+05
 cg2d: Sum(rhs),rhsMax =  -4.95587097520452E+01  2.06599498195347E+00
(PID.TID 0000.0001)  ploadbar=  1.01076381735742E+05
 cg2d: Sum(rhs),rhsMax =  -4.84841924776501E+01  2.11080215646014E+00
(PID.TID 0000.0001)  ploadbar=  1.01076979517431E+05
 cg2d: Sum(rhs),rhsMax =  -4.78439517337266E+01  2.13799417045959E+00
(PID.TID 0000.0001)  ploadbar=  1.01077577299121E+05
 cg2d: Sum(rhs),rhsMax =  -4.73527929333550E+01  2.15918662627593E+00
(PID.TID 0000.0001)  ploadbar=  1.01079120518597E+05
 cg2d: Sum(rhs),rhsMax =  -4.68607060499445E+01  2.18094117604043E+00
(PID.TID 0000.0001)  ploadbar=  1.01080663738074E+05
 cg2d: Sum(rhs),rhsMax =  -4.62811309650737E+01  2.20738702708640E+00
(PID.TID 0000.0001)  ploadbar=  1.01082206957551E+05
 cg2d: Sum(rhs),rhsMax =  -4.55991332759200E+01  2.23957771331887E+00
(PID.TID 0000.0001)  ploadbar=  1.01083750177028E+05
 cg2d: Sum(rhs),rhsMax =  -4.48412409502852E+01  2.27663853386798E+00
(PID.TID 0000.0001)  ploadbar=  1.01085293396505E+05
 cg2d: Sum(rhs),rhsMax =  -4.40839661198478E+01  2.31497763435757E+00
(PID.TID 0000.0001)  ploadbar=  1.01086836615981E+05
 cg2d: Sum(rhs),rhsMax =  -4.33570078119305E+01  2.35296213837825E+00
(PID.TID 0000.0001)  ploadbar=  1.01087362639198E+05
 cg2d: Sum(rhs),rhsMax =  -4.27522089672961E+01  2.38534607176114E+00
(PID.TID 0000.0001)  ploadbar=  1.01087888662415E+05
 cg2d: Sum(rhs),rhsMax =  -4.22929527338901E+01  2.41026703885333E+00
(PID.TID 0000.0001)  ploadbar=  1.01088414685632E+05
 cg2d: Sum(rhs),rhsMax =  -4.19741001472260E+01  2.42751130145059E+00
(PID.TID 0000.0001)  ploadbar=  1.01088940708849E+05
 cg2d: Sum(rhs),rhsMax =  -4.17724244198138E+01  2.43808198334242E+00
(PID.TID 0000.0001)  ploadbar=  1.01089466732066E+05
 cg2d: Sum(rhs),rhsMax =  -4.16368561062018E+01  2.44478284147189E+00
(PID.TID 0000.0001)  ploadbar=  1.01089992755283E+05
 cg2d: Sum(rhs),rhsMax =  -4.15525500219827E+01  2.44856223168207E+00
(PID.TID 0000.0001)  ploadbar=  1.01089010222588E+05
 cg2d: Sum(rhs),rhsMax =  -4.14235097016794E+01  2.45505412348517E+00
(PID.TID 0000.0001)  ploadbar=  1.01088027689894E+05
 cg2d: Sum(rhs),rhsMax =  -4.12551141189968E+01  2.46397594791777E+00
(PID.TID 0000.0001)  ploadbar=  1.01087045157200E+05
 cg2d: Sum(rhs),rhsMax =  -4.10635944949794E+01  2.47439815803056E+00
(PID.TID 0000.0001)  ploadbar=  1.01086062624506E+05
 cg2d: Sum(rhs),rhsMax =  -4.08710988918682E+01  2.48499926715121E+00
(PID.TID 0000.0001)  ploadbar=  1.01085080091811E+05
 cg2d: Sum(rhs),rhsMax =  -4.06680395859982E+01  2.49635106561290E+00
(PID.TID 0000.0001)  ploadbar=  1.01084097559117E+05
 cg2d: Sum(rhs),rhsMax =  -4.05429833668590E+01  2.50293537715363E+00
(PID.TID 0000.0001)  ploadbar=  1.01083947224312E+05
 cg2d: Sum(rhs),rhsMax =  -4.04893735140386E+01  2.50506440049301E+00
(PID.TID 0000.0001)  ploadbar=  1.01083796889506E+05
 cg2d: Sum(rhs),rhsMax =  -4.05105285631047E+01  2.50249170064347E+00
(PID.TID 0000.0001)  ploadbar=  1.01083646554701E+05
 cg2d: Sum(rhs),rhsMax =  -4.05895889078210E+01  2.49626368043694E+00
(PID.TID 0000.0001)  ploadbar=  1.01083496219896E+05
 cg2d: Sum(rhs),rhsMax =  -4.07159685060669E+01  2.48706388192191E+00
(PID.TID 0000.0001)  ploadbar=  1.01083345885091E+05
 cg2d: Sum(rhs),rhsMax =  -4.08693475288990E+01  2.47616810024324E+00
(PID.TID 0000.0001)  ploadbar=  1.01083195550286E+05
 cg2d: Sum(rhs),rhsMax =  -4.09548993323712E+01  2.46952452435885E+00
(PID.TID 0000.0001)  ploadbar=  1.01082952337915E+05
 cg2d: Sum(rhs),rhsMax =  -4.10274003351252E+01  2.46377587633625E+00
(PID.TID 0000.0001)  ploadbar=  1.01082709125544E+05
 cg2d: Sum(rhs),rhsMax =  -4.10972397001741E+01  2.45828208448034E+00
(PID.TID 0000.0001)  ploadbar=  1.01082465913174E+05
 cg2d: Sum(rhs),rhsMax =  -4.11638988841012E+01  2.45306213095340E+00
(PID.TID 0000.0001)  ploadbar=  1.01082222700803E+05
 cg2d: Sum(rhs),rhsMax =  -4.12354974458064E+01  2.44762514926886E+00
(PID.TID 0000.0001)  ploadbar=  1.01081979488433E+05
 cg2d: Sum(rhs),rhsMax =  -4.13265040969490E+01  2.44111069973158E+00
(PID.TID 0000.0001)  ploadbar=  1.01081736276062E+05
 cg2d: Sum(rhs),rhsMax =  -4.14070777661037E+01  2.43525371334900E+00
(PID.TID 0000.0001)  ploadbar=  1.01081417971938E+05
 cg2d: Sum(rhs),rhsMax =  -4.14851567445070E+01  2.42956893894241E+00
(PID.TID 0000.0001)  ploadbar=  1.01081099667813E+05
 cg2d: Sum(rhs),rhsMax =  -4.15728993090557E+01  2.42333226100354E+00
(PID.TID 0000.0001)  ploadbar=  1.01080781363688E+05
 cg2d: Sum(rhs),rhsMax =  -4.16797663613644E+01  2.41599257259149E+00
(PID.TID 0000.0001)  ploadbar=  1.01080463059564E+05
 cg2d: Sum(rhs),rhsMax =  -4.18149988735877E+01  2.40702845773278E+00
(PID.TID 0000.0001)  ploadbar=  1.01080144755439E+05
 cg2d: Sum(rhs),rhsMax =  -4.19866995091552E+01  2.39600892801524E+00
(PID.TID 0000.0001)  ploadbar=  1.01079826451314E+05
 cg2d: Sum(rhs),rhsMax =  -4.21803964500318E+01  2.38387562676982E+00
(PID.TID 0000.0001)  ploadbar=  1.01078690949841E+05
 cg2d: Sum(rhs),rhsMax =  -4.23914730025946E+01  2.37091810416523E+00
(PID.TID 0000.0001)  ploadbar=  1.01077555448368E+05
 cg2d: Sum(rhs),rhsMax =  -4.26162658460316E+01  2.35736388825334E+00
(PID.TID 0000.0001)  ploadbar=  1.01076419946895E+05
 cg2d: Sum(rhs),rhsMax =  -4.28487972685574E+01  2.34355556235345E+00
(PID.TID 0000.0001)  ploadbar=  1.01075284445422E+05
 cg2d: Sum(rhs),rhsMax =  -4.30803426029291E+01  2.32996669167506E+00
(PID.TID 0000.0001)  ploadbar=  1.01074148943949E+05
 cg2d: Sum(rhs),rhsMax =  -4.33063520849260E+01  2.31682709376342E+00
(PID.TID 0000.0001)  ploadbar=  1.01073013442476E+05
 cg2d: Sum(rhs),rhsMax =  -4.35316649440320E+01  2.30380560500966E+00
(PID.TID 0000.0001)  ploadbar=  1.01071170097209E+05
 cg2d: Sum(rhs),rhsMax =  -4.37434437132314E+01  2.29155924675214E+00
(PID.TID 0000.0001)  ploadbar=  1.01069326751941E+05
 cg2d: Sum(rhs),rhsMax =  -4.39489532242461E+01  2.27968533088487E+00
(PID.TID 0000.0001)  ploadbar=  1.01067483406673E+05
 cg2d: Sum(rhs),rhsMax =  -4.41482656346497E+01  2.26816792320059E+00
(PID.TID 0000.0001)  ploadbar=  1.01065640061405E+05
 cg2d: Sum(rhs),rhsMax =  -4.43238069737277E+01  2.25789014544959E+00
(PID.TID 0000.0001)  ploadbar=  1.01063796716138E+05
 cg2d: Sum(rhs),rhsMax =  -4.44760776139287E+01  2.24879081943861E+00
(PID.TID 0000.0001)  ploadbar=  1.01061953370870E+05
 cg2d: Sum(rhs),rhsMax =  -4.46427980190035E+01  2.23912500098212E+00
(PID.TID 0000.0001)  ploadbar=  1.01059779527537E+05
 cg2d: Sum(rhs),rhsMax =  -4.48090867127312E+01  2.22964430580774E+00
(PID.TID 0000.0001)  ploadbar=  1.01057605684204E+05
 cg2d: Sum(rhs),rhsMax =  -4.49792106409190E+01  2.22012793839505E+00
(PID.TID 0000.0001)  ploadbar=  1.01055431840872E+05
 cg2d: Sum(rhs),rhsMax =  -4.51524982662779E+01  2.21060068594984E+00
(PID.TID 0000.0001)  ploadbar=  1.01053257997539E+05
 cg2d: Sum(rhs),rhsMax =  -4.53303349946485E+01  2.20098884633424E+00
(PID.TID 0000.0001)  ploadbar=  1.01051084154206E+05
 cg2d: Sum(rhs),rhsMax =  -4.55175888925517E+01  2.19104882457673E+00
(PID.TID 0000.0001)  ploadbar=  1.01048910310873E+05
 cg2d: Sum(rhs),rhsMax =  -4.57117110979051E+01  2.18091086880281E+00
(PID.TID 0000.0001)  ploadbar=  1.01047445781008E+05
 cg2d: Sum(rhs),rhsMax =  -4.59152363483680E+01  2.17044960435997E+00
(PID.TID 0000.0001)  ploadbar=  1.01045981251144E+05
 cg2d: Sum(rhs),rhsMax =  -4.61195736553786E+01  2.16006793019482E+00
(PID.TID 0000.0001)  ploadbar=  1.01044516721280E+05
 cg2d: Sum(rhs),rhsMax =  -4.63294214016364E+01  2.14953948899497E+00
(PID.TID 0000.0001)  ploadbar=  1.01043052191415E+05
 cg2d: Sum(rhs),rhsMax =  -4.65450833625902E+01  2.13884630025635E+00
(PID.TID 0000.0001)  ploadbar=  1.01041587661550E+05
 cg2d: Sum(rhs),rhsMax =  -4.67666702283341E+01  2.12797987005723E+00
(PID.TID 0000.0001)  ploadbar=  1.01040123131686E+05
 cg2d: Sum(rhs),rhsMax =  -4.70080008996429E+01  2.11640145283534E+00
(PID.TID 0000.0001)  ploadbar=  1.01038754553247E+05
 cg2d: Sum(rhs),rhsMax =  -4.72811424196264E+01  2.10359806467589E+00
(PID.TID 0000.0001)  ploadbar=  1.01037385974808E+05
 cg2d: Sum(rhs),rhsMax =  -4.75968815793268E+01  2.08913812103526E+00
(PID.TID 0000.0001)  ploadbar=  1.01036017396369E+05
 cg2d: Sum(rhs),rhsMax =  -4.79707497837765E+01  2.07241283683768E+00
(PID.TID 0000.0001)  ploadbar=  1.01034648817930E+05
 cg2d: Sum(rhs),rhsMax =  -4.84106648735058E+01  2.05319796130590E+00
(PID.TID 0000.0001)  ploadbar=  1.01033280239491E+05
 cg2d: Sum(rhs),rhsMax =  -4.89285039225273E+01  2.03113904236081E+00
(PID.TID 0000.0001)  ploadbar=  1.01031911661052E+05
 cg2d: Sum(rhs),rhsMax =  -4.95085599732365E+01  2.00699766956288E+00
(PID.TID 0000.0001)  ploadbar=  1.01031162485320E+05
 cg2d: Sum(rhs),rhsMax =  -5.01381167886731E+01  1.98142857656113E+00
(PID.TID 0000.0001)  ploadbar=  1.01030413309589E+05
 cg2d: Sum(rhs),rhsMax =  -5.08065227362673E+01  1.95496261337047E+00
(PID.TID 0000.0001)  ploadbar=  1.01029664133857E+05
 cg2d: Sum(rhs),rhsMax =  -5.15045375710496E+01  1.92803576272768E+00
(PID.TID 0000.0001)  ploadbar=  1.01028914958125E+05
 cg2d: Sum(rhs),rhsMax =  -5.22326720727745E+01  1.90068927617402E+00
(PID.TID 0000.0001)  ploadbar=  1.01028165782393E+05
 cg2d: Sum(rhs),rhsMax =  -5.29980627927672E+01  1.87272933470586E+00
(PID.TID 0000.0001)  ploadbar=  1.01027416606662E+05
 cg2d: Sum(rhs),rhsMax =  -5.38266640973182E+01  1.84345625769151E+00
(PID.TID 0000.0001)  ploadbar=  1.01027138953624E+05
 cg2d: Sum(rhs),rhsMax =  -5.47288953557176E+01  1.81268392985096E+00
(PID.TID 0000.0001)  ploadbar=  1.01026861300586E+05
 cg2d: Sum(rhs),rhsMax =  -5.57677446370095E+01  1.77859046058340E+00
(PID.TID 0000.0001)  ploadbar=  1.01026583647548E+05
 cg2d: Sum(rhs),rhsMax =  -5.69782549393268E+01  1.74052675648479E+00
(PID.TID 0000.0001)  ploadbar=  1.01026305994510E+05
 cg2d: Sum(rhs),rhsMax =  -5.83722594579011E+01  1.69872414023626E+00
(PID.TID 0000.0001)  ploadbar=  1.01026028341472E+05
 cg2d: Sum(rhs),rhsMax =  -5.99579675451421E+01  1.65359409082639E+00
(PID.TID 0000.0001)  ploadbar=  1.01025750688434E+05
 cg2d: Sum(rhs),rhsMax =  -6.17530114461750E+01  1.60530775330781E+00
(PID.TID 0000.0001)  ploadbar=  1.01026486745797E+05
 cg2d: Sum(rhs),rhsMax =  -6.37109257846147E+01  1.55573498765871E+00
(PID.TID 0000.0001)  ploadbar=  1.01027222803159E+05
 cg2d: Sum(rhs),rhsMax =  -6.57918248008264E+01  1.50626655860918E+00
(PID.TID 0000.0001)  ploadbar=  1.01027958860521E+05
 cg2d: Sum(rhs),rhsMax =  -6.79622035618586E+01  1.45787719553657E+00
(PID.TID 0000.0001)  ploadbar=  1.01028694917884E+05
 cg2d: Sum(rhs),rhsMax =  -7.02101769372555E+01  1.41088640734477E+00
(PID.TID 0000.0001)  ploadbar=  1.01029430975246E+05
 cg2d: Sum(rhs),rhsMax =  -7.14571157179899E+01  1.38591883222687E+00
(PID.TID 0000.0001)  ploadbar=  1.01030167032609E+05
 cg2d: Sum(rhs),rhsMax =  -7.09740594087636E+01  1.39502058207576E+00
(PID.TID 0000.0001)  ploadbar=  1.01030258964243E+05
 cg2d: Sum(rhs),rhsMax =  -7.05982608493810E+01  1.40213086827932E+00
(PID.TID 0000.0001)  ploadbar=  1.01030350895878E+05
 cg2d: Sum(rhs),rhsMax =  -7.03289631775016E+01  1.40719968871950E+00
(PID.TID 0000.0001)  ploadbar=  1.01030442827512E+05
 cg2d: Sum(rhs),rhsMax =  -7.01390961340749E+01  1.41072242141163E+00
(PID.TID 0000.0001)  ploadbar=  1.01030534759147E+05
 cg2d: Sum(rhs),rhsMax =  -7.00194424519925E+01  1.41285625077494E+00
(PID.TID 0000.0001)  ploadbar=  1.01030626690781E+05
 cg2d: Sum(rhs),rhsMax =  -6.92714365283420E+01  1.42783969982178E+00
(PID.TID 0000.0001)  ploadbar=  1.01030718622416E+05
 cg2d: Sum(rhs),rhsMax =  -6.82758135136431E+01  1.44834140426674E+00
(PID.TID 0000.0001)  ploadbar=  1.01032181263946E+05
 cg2d: Sum(rhs),rhsMax =  -6.75327254015814E+01  1.46390771296885E+00
(PID.TID 0000.0001)  ploadbar=  1.01033643905477E+05
 cg2d: Sum(rhs),rhsMax =  -6.70302359974863E+01  1.47445450428290E+00
(PID.TID 0000.0001)  ploadbar=  1.01035106547008E+05
 cg2d: Sum(rhs),rhsMax =  -6.67245253991376E+01  1.48071893086445E+00
(PID.TID 0000.0001)  ploadbar=  1.01036569188538E+05
 cg2d: Sum(rhs),rhsMax =  -6.65515266147883E+01  1.48401137949547E+00
(PID.TID 0000.0001)  ploadbar=  1.01038031830069E+05
 cg2d: Sum(rhs),rhsMax =  -6.64367838990935E+01  1.48594951910187E+00
(PID.TID 0000.0001)  ploadbar=  1.01039494471600E+05
 cg2d: Sum(rhs),rhsMax =  -6.63287539002918E+01  1.48780325370695E+00
(PID.TID 0000.0001)  ploadbar=  1.01041084945959E+05
 cg2d: Sum(rhs),rhsMax =  -6.61278864710772E+01  1.49181466653582E+00
(PID.TID 0000.0001)  ploadbar=  1.01042675420319E+05
 cg2d: Sum(rhs),rhsMax =  -6.57843645517468E+01  1.49915495249529E+00
(PID.TID 0000.0001)  ploadbar=  1.01044265894679E+05
 cg2d: Sum(rhs),rhsMax =  -6.53133575386839E+01  1.50957367852318E+00
(PID.TID 0000.0001)  ploadbar=  1.01045856369039E+05
 cg2d: Sum(rhs),rhsMax =  -6.47684055979012E+01  1.52193749829901E+00
(PID.TID 0000.0001)  ploadbar=  1.01047446843399E+05
 cg2d: Sum(rhs),rhsMax =  -6.42075961754584E+01  1.53494702120172E+00
(PID.TID 0000.0001)  ploadbar=  1.01049037317758E+05
 cg2d: Sum(rhs),rhsMax =  -6.36970033698605E+01  1.54695457239826E+00
(PID.TID 0000.0001)  ploadbar=  1.01049491038180E+05
 cg2d: Sum(rhs),rhsMax =  -6.33058889262407E+01  1.55619429902618E+00
(PID.TID 0000.0001)  ploadbar=  1.01049944758602E+05
 cg2d: Sum(rhs),rhsMax =  -6.30634745268096E+01  1.56182995452818E+00
(PID.TID 0000.0001)  ploadbar=  1.01050398479024E+05
 cg2d: Sum(rhs),rhsMax =  -6.29449991275023E+01  1.56438778297985E+00
(PID.TID 0000.0001)  ploadbar=  1.01050852199446E+05
 cg2d: Sum(rhs),rhsMax =  -6.29032409213322E+01  1.56500403955772E+00
(PID.TID 0000.0001)  ploadbar=  1.01051305919868E+05
 cg2d: Sum(rhs),rhsMax =  -6.28755930345504E+01  1.56521921498728E+00
(PID.TID 0000.0001)  ploadbar=  1.01051759640290E+05
 cg2d: Sum(rhs),rhsMax =  -6.27206482730883E+01  1.56862002179228E+00
(PID.TID 0000.0001)  ploadbar=  1.01050387641339E+05
 cg2d: Sum(rhs),rhsMax =  -6.23818780887541E+01  1.57667558806702E+00
(PID.TID 0000.0001)  ploadbar=  1.01049015642389E+05
 cg2d: Sum(rhs),rhsMax =  -6.18581504899905E+01  1.58956379446987E+00
(PID.TID 0000.0001)  ploadbar=  1.01047643643438E+05
 cg2d: Sum(rhs),rhsMax =  -6.11809856381868E+01  1.60669511140093E+00
(PID.TID 0000.0001)  ploadbar=  1.01046271644487E+05
 cg2d: Sum(rhs),rhsMax =  -6.04524141627648E+01  1.62558751867933E+00
(PID.TID 0000.0001)  ploadbar=  1.01044899645537E+05
 cg2d: Sum(rhs),rhsMax =  -5.97794528024537E+01  1.64340130786864E+00
(PID.TID 0000.0001)  ploadbar=  1.01043527646586E+05
 cg2d: Sum(rhs),rhsMax =  -5.91521170267113E+01  1.66031834112016E+00
(PID.TID 0000.0001)  ploadbar=  1.01043069521883E+05
 cg2d: Sum(rhs),rhsMax =  -5.85791999078568E+01  1.67601405371730E+00
(PID.TID 0000.0001)  ploadbar=  1.01042611397180E+05
 cg2d: Sum(rhs),rhsMax =  -5.80579759001973E+01  1.69048086284122E+00
(PID.TID 0000.0001)  ploadbar=  1.01042153272477E+05
 cg2d: Sum(rhs),rhsMax =  -5.75793752881028E+01  1.70390799146153E+00
(PID.TID 0000.0001)  ploadbar=  1.01041695147774E+05
 cg2d: Sum(rhs),rhsMax =  -5.71311880568202E+01  1.71659837786009E+00
(PID.TID 0000.0001)  ploadbar=  1.01041237023071E+05
 cg2d: Sum(rhs),rhsMax =  -5.68529022293161E+01  1.72426884891640E+00
(PID.TID 0000.0001)  ploadbar=  1.01040778898368E+05
 cg2d: Sum(rhs),rhsMax =  -5.66138959241352E+01  1.73085689923942E+00
(PID.TID 0000.0001)  ploadbar=  1.01040997870372E+05
 cg2d: Sum(rhs),rhsMax =  -5.63557571795486E+01  1.73813094824563E+00
(PID.TID 0000.0001)  ploadbar=  1.01041216842375E+05
 cg2d: Sum(rhs),rhsMax =  -5.60557251455143E+01  1.74681343140272E+00
(PID.TID 0000.0001)  ploadbar=  1.01041435814379E+05
 cg2d: Sum(rhs),rhsMax =  -5.57159059120633E+01  1.75687687216080E+00
(PID.TID 0000.0001)  ploadbar=  1.01041654786382E+05
 cg2d: Sum(rhs),rhsMax =  -5.53571845463321E+01  1.76770347693293E+00
(PID.TID 0000.0001)  ploadbar=  1.01041873758386E+05
 cg2d: Sum(rhs),rhsMax =  -5.50118934740716E+01  1.77826707430691E+00
(PID.TID 0000.0001)  ploadbar=  1.01042092730389E+05
 cg2d: Sum(rhs),rhsMax =  -5.47245598755054E+01  1.78707797335085E+00
(PID.TID 0000.0001)  ploadbar=  1.01041289880972E+05
 cg2d: Sum(rhs),rhsMax =  -5.45350271136586E+01  1.79276216629949E+00
(PID.TID 0000.0001)  ploadbar=  1.01040487031554E+05
 cg2d: Sum(rhs),rhsMax =  -5.44529117024682E+01  1.79493420044600E+00
(PID.TID 0000.0001)  ploadbar=  1.01039684182136E+05
 cg2d: Sum(rhs),rhsMax =  -5.44675095570636E+01  1.79391650305406E+00
(PID.TID 0000.0001)  ploadbar=  1.01038881332718E+05
 cg2d: Sum(rhs),rhsMax =  -5.45543836327803E+01  1.79051192490373E+00
(PID.TID 0000.0001)  ploadbar=  1.01038078483300E+05
 cg2d: Sum(rhs),rhsMax =  -5.46854982627288E+01  1.78565249023827E+00
(PID.TID 0000.0001)  ploadbar=  1.01037275633882E+05
 cg2d: Sum(rhs),rhsMax =  -5.47973000629478E+01  1.78143520720961E+00
(PID.TID 0000.0001)  ploadbar=  1.01035219069191E+05
 cg2d: Sum(rhs),rhsMax =  -5.48436125793304E+01  1.77934814938837E+00
(PID.TID 0000.0001)  ploadbar=  1.01033162504499E+05
 cg2d: Sum(rhs),rhsMax =  -5.48054257260143E+01  1.77999940955468E+00
(PID.TID 0000.0001)  ploadbar=  1.01031105939808E+05
 cg2d: Sum(rhs),rhsMax =  -5.46636406137764E+01  1.78401993695509E+00
(PID.TID 0000.0001)  ploadbar=  1.01029049375116E+05
 cg2d: Sum(rhs),rhsMax =  -5.44328100524346E+01  1.79097603919747E+00
(PID.TID 0000.0001)  ploadbar=  1.01026992810425E+05
 cg2d: Sum(rhs),rhsMax =  -5.42147319232635E+01  1.79755279142582E+00
(PID.TID 0000.0001)  ploadbar=  1.01024936245733E+05
 cg2d: Sum(rhs),rhsMax =  -5.39997952725646E+01  1.80404251437497E+00
(PID.TID 0000.0001)  ploadbar=  1.01023398794708E+05
 cg2d: Sum(rhs),rhsMax =  -5.37935780689875E+01  1.81024591866387E+00
(PID.TID 0000.0001)  ploadbar=  1.01021861343683E+05
 cg2d: Sum(rhs),rhsMax =  -5.36018510760543E+01  1.81595594875590E+00
(PID.TID 0000.0001)  ploadbar=  1.01020323892658E+05
 cg2d: Sum(rhs),rhsMax =  -5.34247114246624E+01  1.82115467392130E+00
(PID.TID 0000.0001)  ploadbar=  1.01018786441632E+05
 cg2d: Sum(rhs),rhsMax =  -5.32572992724113E+01  1.82599086567845E+00
(PID.TID 0000.0001)  ploadbar=  1.01017248990607E+05
 cg2d: Sum(rhs),rhsMax =  -5.30931919855070E+01  1.83067450711889E+00
(PID.TID 0000.0001)  ploadbar=  1.01015711539582E+05
 cg2d: Sum(rhs),rhsMax =  -5.28640118179024E+01  1.83766236084914E+00
(PID.TID 0000.0001)  ploadbar=  1.01015914720811E+05
 cg2d: Sum(rhs),rhsMax =  -5.26085968752464E+01  1.84564832588495E+00
(PID.TID 0000.0001)  ploadbar=  1.01016117902041E+05
 cg2d: Sum(rhs),rhsMax =  -5.23525687989968E+01  1.85374795418697E+00
(PID.TID 0000.0001)  ploadbar=  1.01016321083270E+05
 cg2d: Sum(rhs),rhsMax =  -5.20981083977582E+01  1.86187936546872E+00
(PID.TID 0000.0001)  ploadbar=  1.01016524264499E+05
 cg2d: Sum(rhs),rhsMax =  -5.18490346869039E+01  1.86990082210621E+00
(PID.TID 0000.0001)  ploadbar=  1.01016727445728E+05
 cg2d: Sum(rhs),rhsMax =  -5.16923564185829E+01  1.87464346126126E+00
(PID.TID 0000.0001)  ploadbar=  1.01016930626958E+05
 cg2d: Sum(rhs),rhsMax =  -5.16697226151260E+01  1.87455918612541E+00
(PID.TID 0000.0001)  ploadbar=  1.01017855824590E+05
 cg2d: Sum(rhs),rhsMax =  -5.17472516257365E+01  1.87085865326209E+00
(PID.TID 0000.0001)  ploadbar=  1.01018781022222E+05
 cg2d: Sum(rhs),rhsMax =  -5.19389484315185E+01  1.86307344726171E+00
(PID.TID 0000.0001)  ploadbar=  1.01019706219854E+05
 cg2d: Sum(rhs),rhsMax =  -5.22307884611775E+01  1.85179460170111E+00
(PID.TID 0000.0001)  ploadbar=  1.01020631417486E+05
 cg2d: Sum(rhs),rhsMax =  -5.26002823543696E+01  1.83792505235417E+00
(PID.TID 0000.0001)  ploadbar=  1.01021556615118E+05
 cg2d: Sum(rhs),rhsMax =  -5.30179297166039E+01  1.82258943077361E+00
(PID.TID 0000.0001)  ploadbar=  1.01022481812751E+05
 cg2d: Sum(rhs),rhsMax =  -5.33914665413982E+01  1.80899576735710E+00
(PID.TID 0000.0001)  ploadbar=  1.01023954267499E+05
 cg2d: Sum(rhs),rhsMax =  -5.36703153953551E+01  1.79876549719999E+00
(PID.TID 0000.0001)  ploadbar=  1.01025426722248E+05
 cg2d: Sum(rhs),rhsMax =  -5.38328718598881E+01  1.79250846624846E+00
(PID.TID 0000.0001)  ploadbar=  1.01026899176997E+05
 cg2d: Sum(rhs),rhsMax =  -5.38829491273208E+01  1.79001689503823E+00
(PID.TID 0000.0001)  ploadbar=  1.01028371631745E+05
 cg2d: Sum(rhs),rhsMax =  -5.38419366918123E+01  1.79054799357450E+00
(PID.TID 0000.0001)  ploadbar=  1.01029844086494E+05
 cg2d: Sum(rhs),rhsMax =  -5.37618477051220E+01  1.79236978128082E+00
(PID.TID 0000.0001)  ploadbar=  1.01031316541243E+05
 cg2d: Sum(rhs),rhsMax =  -5.36558236327749E+01  1.79502109598143E+00
(PID.TID 0000.0001)  ploadbar=  1.01032351071995E+05
 cg2d: Sum(rhs),rhsMax =  -5.35302626463561E+01  1.79828887913543E+00
(PID.TID 0000.0001)  ploadbar=  1.01033385602747E+05
 cg2d: Sum(rhs),rhsMax =  -5.34609248610977E+01  1.79962320305051E+00
(PID.TID 0000.0001)  ploadbar=  1.01034420133500E+05
 cg2d: Sum(rhs),rhsMax =  -5.34305716446199E+01  1.79958910743198E+00
(PID.TID 0000.0001)  ploadbar=  1.01035454664252E+05
 cg2d: Sum(rhs),rhsMax =  -5.34351970054288E+01  1.79831229423579E+00
(PID.TID 0000.0001)  ploadbar=  1.01036489195005E+05
 cg2d: Sum(rhs),rhsMax =  -5.34512029793762E+01  1.79658184438458E+00
(PID.TID 0000.0001)  ploadbar=  1.01037523725757E+05
 cg2d: Sum(rhs),rhsMax =  -5.34548178007744E+01  1.79536413931618E+00
(PID.TID 0000.0001)  ploadbar=  1.01038023440727E+05
 cg2d: Sum(rhs),rhsMax =  -5.34377534835569E+01  1.79493569104642E+00
(PID.TID 0000.0001)  ploadbar=  1.01038523155697E+05
 cg2d: Sum(rhs),rhsMax =  -5.33975116954563E+01  1.79537714412295E+00
(PID.TID 0000.0001)  ploadbar=  1.01039022870667E+05
 cg2d: Sum(rhs),rhsMax =  -5.33470767506944E+01  1.79624966815372E+00
(PID.TID 0000.0001)  ploadbar=  1.01039522585636E+05
 cg2d: Sum(rhs),rhsMax =  -5.33107169927532E+01  1.79673249169149E+00
(PID.TID 0000.0001)  ploadbar=  1.01040022300606E+05
 cg2d: Sum(rhs),rhsMax =  -5.33186377661774E+01  1.79580236729806E+00
(PID.TID 0000.0001)  ploadbar=  1.01040522015576E+05
 cg2d: Sum(rhs),rhsMax =  -5.34350818788690E+01  1.79126485442411E+00
(PID.TID 0000.0001)  ploadbar=  1.01041189394084E+05
 cg2d: Sum(rhs),rhsMax =  -5.36638020386557E+01  1.78304149341954E+00
(PID.TID 0000.0001)  ploadbar=  1.01041856772592E+05
 cg2d: Sum(rhs),rhsMax =  -5.40006866962580E+01  1.77136234897240E+00
(PID.TID 0000.0001)  ploadbar=  1.01042524151100E+05
 cg2d: Sum(rhs),rhsMax =  -5.44213056577213E+01  1.75714501787857E+00
(PID.TID 0000.0001)  ploadbar=  1.01043191529608E+05
 cg2d: Sum(rhs),rhsMax =  -5.48921369194780E+01  1.74157424589688E+00
(PID.TID 0000.0001)  ploadbar=  1.01043858908116E+05
 cg2d: Sum(rhs),rhsMax =  -5.53717148794347E+01  1.72600874100122E+00
(PID.TID 0000.0001)  ploadbar=  1.01044526286624E+05
 cg2d: Sum(rhs),rhsMax =  -5.58373667610056E+01  1.71116708756380E+00
(PID.TID 0000.0001)  ploadbar=  1.01046031227134E+05
 cg2d: Sum(rhs),rhsMax =  -5.62493567489555E+01  1.69821417638222E+00
(PID.TID 0000.0001)  ploadbar=  1.01047536167645E+05
 cg2d: Sum(rhs),rhsMax =  -5.65823036157167E+01  1.68782573806799E+00
(PID.TID 0000.0001)  ploadbar=  1.01049041108155E+05
 cg2d: Sum(rhs),rhsMax =  -5.68205902327399E+01  1.68036959055313E+00
(PID.TID 0000.0001)  ploadbar=  1.01050546048665E+05
 cg2d: Sum(rhs),rhsMax =  -5.69687359583884E+01  1.67562697172333E+00
(PID.TID 0000.0001)  ploadbar=  1.01052050989175E+05
 cg2d: Sum(rhs),rhsMax =  -5.70455644472963E+01  1.67299091554119E+00
(PID.TID 0000.0001)  ploadbar=  1.01053555929685E+05
 cg2d: Sum(rhs),rhsMax =  -5.71081076455499E+01  1.67076776377357E+00
(PID.TID 0000.0001)  ploadbar=  1.01054064872729E+05
 cg2d: Sum(rhs),rhsMax =  -5.71997192677819E+01  1.66768124819462E+00
(PID.TID 0000.0001)  ploadbar=  1.01054573815773E+05
 cg2d: Sum(rhs),rhsMax =  -5.73274260035775E+01  1.66352996515982E+00
(PID.TID 0000.0001)  ploadbar=  1.01055082758817E+05
 cg2d: Sum(rhs),rhsMax =  -5.74779163114911E+01  1.65870647852358E+00
(PID.TID 0000.0001)  ploadbar=  1.01055591701861E+05
 cg2d: Sum(rhs),rhsMax =  -5.76229419070011E+01  1.65402086462918E+00
(PID.TID 0000.0001)  ploadbar=  1.01056100644904E+05
 cg2d: Sum(rhs),rhsMax =  -5.77246383746367E+01  1.65054626192591E+00
(PID.TID 0000.0001)  ploadbar=  1.01056609587948E+05
 cg2d: Sum(rhs),rhsMax =  -5.77614075233686E+01  1.64900398476022E+00
(PID.TID 0000.0001)  ploadbar=  1.01056359265517E+05
 cg2d: Sum(rhs),rhsMax =  -5.77257243078110E+01  1.64959775791741E+00
(PID.TID 0000.0001)  ploadbar=  1.01056108943085E+05
 cg2d: Sum(rhs),rhsMax =  -5.76017536022390E+01  1.65278125681791E+00
(PID.TID 0000.0001)  ploadbar=  1.01055858620653E+05
 cg2d: Sum(rhs),rhsMax =  -5.74227852249760E+01  1.65761933197594E+00
(PID.TID 0000.0001)  ploadbar=  1.01055608298222E+05
 cg2d: Sum(rhs),rhsMax =  -5.72316498657674E+01  1.66289175956824E+00
(PID.TID 0000.0001)  ploadbar=  1.01055357975790E+05
 cg2d: Sum(rhs),rhsMax =  -5.70776401858029E+01  1.66716053786426E+00
(PID.TID 0000.0001)  ploadbar=  1.01055107653358E+05
 cg2d: Sum(rhs),rhsMax =  -5.70241743276603E+01  1.66850296976349E+00
(PID.TID 0000.0001)  ploadbar=  1.01054738303831E+05
 cg2d: Sum(rhs),rhsMax =  -5.71188583118182E+01  1.66550852722261E+00
(PID.TID 0000.0001)  ploadbar=  1.01054368954303E+05
 cg2d: Sum(rhs),rhsMax =  -5.73691858537842E+01  1.65800079316804E+00
(PID.TID 0000.0001)  ploadbar=  1.01053999604775E+05
 cg2d: Sum(rhs),rhsMax =  -5.77511440858097E+01  1.64677942534616E+00
(PID.TID 0000.0001)  ploadbar=  1.01053630255248E+05
 cg2d: Sum(rhs),rhsMax =  -5.82222874552148E+01  1.63317805566253E+00
(PID.TID 0000.0001)  ploadbar=  1.01053260905720E+05
 cg2d: Sum(rhs),rhsMax =  -5.87278880642307E+01  1.61881653052484E+00
(PID.TID 0000.0001)  ploadbar=  1.01052891556192E+05
 cg2d: Sum(rhs),rhsMax =  -5.91858044841456E+01  1.60598757115719E+00
(PID.TID 0000.0001)  ploadbar=  1.01051776696970E+05
 cg2d: Sum(rhs),rhsMax =  -5.95167514228292E+01  1.59674546547765E+00
(PID.TID 0000.0001)  ploadbar=  1.01050661837748E+05
 cg2d: Sum(rhs),rhsMax =  -5.96997135893461E+01  1.59152844736919E+00
(PID.TID 0000.0001)  ploadbar=  1.01049546978526E+05
 cg2d: Sum(rhs),rhsMax =  -5.97599033057275E+01  1.58958487923969E+00
(PID.TID 0000.0001)  ploadbar=  1.01048432119304E+05
 cg2d: Sum(rhs),rhsMax =  -5.97476983159269E+01  1.58954405813541E+00
(PID.TID 0000.0001)  ploadbar=  1.01047317260082E+05
 cg2d: Sum(rhs),rhsMax =  -5.97247601665794E+01  1.58975740785123E+00
(PID.TID 0000.0001)  ploadbar=  1.01046202400860E+05
 cg2d: Sum(rhs),rhsMax =  -5.97565523340310E+01  1.58848681811751E+00
(PID.TID 0000.0001)  ploadbar=  1.01045408133791E+05
 cg2d: Sum(rhs),rhsMax =  -5.98788322542346E+01  1.58478347969985E+00
(PID.TID 0000.0001)  ploadbar=  1.01044613866723E+05
 cg2d: Sum(rhs),rhsMax =  -6.01106068358771E+01  1.57817306421278E+00
(PID.TID 0000.0001)  ploadbar=  1.01043819599654E+05
 cg2d: Sum(rhs),rhsMax =  -6.04519782802947E+01  1.56871839369479E+00
(PID.TID 0000.0001)  ploadbar=  1.01043025332586E+05
 cg2d: Sum(rhs),rhsMax =  -6.08766604950413E+01  1.55718338307352E+00
(PID.TID 0000.0001)  ploadbar=  1.01042231065517E+05
 cg2d: Sum(rhs),rhsMax =  -6.13423333136174E+01  1.54472067251924E+00
(PID.TID 0000.0001)  ploadbar=  1.01041436798448E+05
 cg2d: Sum(rhs),rhsMax =  -6.18565772991850E+01  1.53129800896515E+00
(PID.TID 0000.0001)  ploadbar=  1.01040403991755E+05
 cg2d: Sum(rhs),rhsMax =  -6.23629938327328E+01  1.51833934610464E+00
(PID.TID 0000.0001)  ploadbar=  1.01039371185061E+05
 cg2d: Sum(rhs),rhsMax =  -6.28192556490275E+01  1.50683956854227E+00
(PID.TID 0000.0001)  ploadbar=  1.01038338378367E+05
 cg2d: Sum(rhs),rhsMax =  -6.32360732095702E+01  1.49648258369108E+00
(PID.TID 0000.0001)  ploadbar=  1.01037305571673E+05
 cg2d: Sum(rhs),rhsMax =  -6.36435808607957E+01  1.48652185915496E+00
(PID.TID 0000.0001)  ploadbar=  1.01036272764980E+05
 cg2d: Sum(rhs),rhsMax =  -6.40866923088029E+01  1.47590772117847E+00
(PID.TID 0000.0001)  ploadbar=  1.01035239958286E+05
 cg2d: Sum(rhs),rhsMax =  -6.45718985686698E+01  1.46445820573949E+00
(PID.TID 0000.0001)  ploadbar=  1.01034331151968E+05
 cg2d: Sum(rhs),rhsMax =  -6.51197629347869E+01  1.45175179912323E+00
(PID.TID 0000.0001)  ploadbar=  1.01033422345651E+05
 cg2d: Sum(rhs),rhsMax =  -6.46492855043898E+01  1.46189473873594E+00
(PID.TID 0000.0001)  ploadbar=  1.01032513539333E+05
 cg2d: Sum(rhs),rhsMax =  -6.38744125111141E+01  1.47916541722197E+00
(PID.TID 0000.0001)  ploadbar=  1.01031604733015E+05
 cg2d: Sum(rhs),rhsMax =  -6.32353577190018E+01  1.49360492997100E+00
(PID.TID 0000.0001)  ploadbar=  1.01030695926697E+05
 cg2d: Sum(rhs),rhsMax =  -6.27384357871471E+01  1.50487774601627E+00
(PID.TID 0000.0001)  ploadbar=  1.01029787120379E+05
 cg2d: Sum(rhs),rhsMax =  -6.23627395947577E+01  1.51340577747884E+00
(PID.TID 0000.0001)  ploadbar=  1.01029636507982E+05
 cg2d: Sum(rhs),rhsMax =  -6.20931611076012E+01  1.51945511436418E+00
(PID.TID 0000.0001)  ploadbar=  1.01029485895584E+05
 cg2d: Sum(rhs),rhsMax =  -6.18912947990577E+01  1.52390216123439E+00
(PID.TID 0000.0001)  ploadbar=  1.01029335283186E+05
 cg2d: Sum(rhs),rhsMax =  -6.17664893806349E+01  1.52647969264996E+00
(PID.TID 0000.0001)  ploadbar=  1.01029184670788E+05
 cg2d: Sum(rhs),rhsMax =  -6.17361036372323E+01  1.52673050478781E+00
(PID.TID 0000.0001)  ploadbar=  1.01029034058391E+05
 cg2d: Sum(rhs),rhsMax =  -6.17976636812425E+01  1.52470517636021E+00
(PID.TID 0000.0001)  ploadbar=  1.01028883445993E+05
 cg2d: Sum(rhs),rhsMax =  -6.18602585914814E+01  1.52264821361596E+00
(PID.TID 0000.0001)  ploadbar=  1.01028459848973E+05
 cg2d: Sum(rhs),rhsMax =  -6.18721810347947E+01  1.52182354903560E+00
(PID.TID 0000.0001)  ploadbar=  1.01028036251953E+05
 cg2d: Sum(rhs),rhsMax =  -6.18501464271244E+01  1.52180983113052E+00
(PID.TID 0000.0001)  ploadbar=  1.01027612654933E+05
 cg2d: Sum(rhs),rhsMax =  -6.18193715694339E+01  1.52198434011906E+00
(PID.TID 0000.0001)  ploadbar=  1.01027189057912E+05
 cg2d: Sum(rhs),rhsMax =  -6.18045188157022E+01  1.52173803753212E+00
(PID.TID 0000.0001)  ploadbar=  1.01026765460892E+05
 cg2d: Sum(rhs),rhsMax =  -6.18232948143887E+01  1.52062843062048E+00
(PID.TID 0000.0001)  ploadbar=  1.01026341863872E+05
 cg2d: Sum(rhs),rhsMax =  -6.18312597643348E+01  1.51982550088829E+00
(PID.TID 0000.0001)  ploadbar=  1.01026216747816E+05
 cg2d: Sum(rhs),rhsMax =  -6.17797669153303E+01  1.52052434420897E+00
(PID.TID 0000.0001)  ploadbar=  1.01026091631760E+05
 cg2d: Sum(rhs),rhsMax =  -6.19609879223500E+01  1.51554649182264E+00
(PID.TID 0000.0001)  ploadbar=  1.01025966515704E+05
 cg2d: Sum(rhs),rhsMax =  -6.24037553328421E+01  1.50429817496417E+00
(PID.TID 0000.0001)  ploadbar=  1.01025841399648E+05
 cg2d: Sum(rhs),rhsMax =  -6.28383060467382E+01  1.49343051241690E+00
(PID.TID 0000.0001)  ploadbar=  1.01025716283592E+05
 cg2d: Sum(rhs),rhsMax =  -6.32821090224826E+01  1.48251985806248E+00
(PID.TID 0000.0001)  ploadbar=  1.01025591167537E+05
 cg2d: Sum(rhs),rhsMax =  -6.37447191955277E+01  1.47133033985969E+00
(PID.TID 0000.0001)  ploadbar=  1.01026907586526E+05
 cg2d: Sum(rhs),rhsMax =  -6.42174898481232E+01  1.46006961590929E+00
(PID.TID 0000.0001)  ploadbar=  1.01028224005516E+05
 cg2d: Sum(rhs),rhsMax =  -6.46942094082036E+01  1.44887946618102E+00
(PID.TID 0000.0001)  ploadbar=  1.01029540424505E+05
 cg2d: Sum(rhs),rhsMax =  -6.51651787484301E+01  1.43797170457990E+00
(PID.TID 0000.0001)  ploadbar=  1.01030856843495E+05
 cg2d: Sum(rhs),rhsMax =  -6.56235125148727E+01  1.42748411742467E+00
(PID.TID 0000.0001)  ploadbar=  1.01032173262484E+05
 cg2d: Sum(rhs),rhsMax =  -6.60641352672234E+01  1.41750745012503E+00
(PID.TID 0000.0001)  ploadbar=  1.01033489681474E+05
 cg2d: Sum(rhs),rhsMax =  -6.64733348641595E+01  1.40832640296216E+00
(PID.TID 0000.0001)  ploadbar=  1.01034110115420E+05
 cg2d: Sum(rhs),rhsMax =  -6.65519795788708E+01  1.40619919865857E+00
(PID.TID 0000.0001)  ploadbar=  1.01034730549365E+05
 cg2d: Sum(rhs),rhsMax =  -6.66506085403621E+01  1.40364135083300E+00
(PID.TID 0000.0001)  ploadbar=  1.01035350983311E+05
 cg2d: Sum(rhs),rhsMax =  -6.68603191752280E+01  1.39874147982529E+00
(PID.TID 0000.0001)  ploadbar=  1.01035971417257E+05
 cg2d: Sum(rhs),rhsMax =  -6.71552700832772E+01  1.39207477601675E+00
(PID.TID 0000.0001)  ploadbar=  1.01036591851203E+05
 cg2d: Sum(rhs),rhsMax =  -6.75130022683435E+01  1.38414352524061E+00
(PID.TID 0000.0001)  ploadbar=  1.01037212285149E+05
 cg2d: Sum(rhs),rhsMax =  -6.78556021820175E+01  1.37658789683321E+00
(PID.TID 0000.0001)  ploadbar=  1.01037278496460E+05
 cg2d: Sum(rhs),rhsMax =  -6.81753098885781E+01  1.36955006932321E+00
(PID.TID 0000.0001)  ploadbar=  1.01037344707772E+05
 cg2d: Sum(rhs),rhsMax =  -6.84672435018168E+01  1.36310569406253E+00
(PID.TID 0000.0001)  ploadbar=  1.01037410919083E+05
 cg2d: Sum(rhs),rhsMax =  -6.87287582904924E+01  1.35728875910925E+00
(PID.TID 0000.0001)  ploadbar=  1.01037477130394E+05
 cg2d: Sum(rhs),rhsMax =  -6.89454166579066E+01  1.35236373879422E+00
(PID.TID 0000.0001)  ploadbar=  1.01037543341706E+05
 cg2d: Sum(rhs),rhsMax =  -6.91383560838393E+01  1.34789356585630E+00
(PID.TID 0000.0001)  ploadbar=  1.01037609553017E+05
 cg2d: Sum(rhs),rhsMax =  -6.92601112172605E+01  1.34487420633629E+00
(PID.TID 0000.0001)  ploadbar=  1.01036062398609E+05
 cg2d: Sum(rhs),rhsMax =  -6.94348775404903E+01  1.34088311228348E+00
(PID.TID 0000.0001)  ploadbar=  1.01034515244201E+05
 cg2d: Sum(rhs),rhsMax =  -6.96795700156657E+01  1.33560822802147E+00
(PID.TID 0000.0001)  ploadbar=  1.01032968089792E+05
 cg2d: Sum(rhs),rhsMax =  -7.00423196452384E+01  1.32816196501840E+00
(PID.TID 0000.0001)  ploadbar=  1.01031420935384E+05
 cg2d: Sum(rhs),rhsMax =  -7.06169828771366E+01  1.31686092074416E+00
(PID.TID 0000.0001)  ploadbar=  1.01029873780976E+05
 cg2d: Sum(rhs),rhsMax =  -7.13323891903760E+01  1.30319416353044E+00
(PID.TID 0000.0001)  ploadbar=  1.01028326626568E+05
 cg2d: Sum(rhs),rhsMax =  -7.07972475484274E+01  1.31259944994373E+00
(PID.TID 0000.0001)  ploadbar=  1.01028130041051E+05
 cg2d: Sum(rhs),rhsMax =  -7.02621256118843E+01  1.32216112546540E+00
(PID.TID 0000.0001)  ploadbar=  1.01027933455534E+05
 cg2d: Sum(rhs),rhsMax =  -6.97771454380854E+01  1.33092370269909E+00
(PID.TID 0000.0001)  ploadbar=  1.01027736870018E+05
 cg2d: Sum(rhs),rhsMax =  -6.93374293828479E+01  1.33894151915867E+00
(PID.TID 0000.0001)  ploadbar=  1.01027540284501E+05
 cg2d: Sum(rhs),rhsMax =  -6.89423120782206E+01  1.34619125794083E+00
(PID.TID 0000.0001)  ploadbar=  1.01027343698984E+05
 cg2d: Sum(rhs),rhsMax =  -6.85934781673592E+01  1.35260497694886E+00
(PID.TID 0000.0001)  ploadbar=  1.01027147113467E+05
 cg2d: Sum(rhs),rhsMax =  -6.88993420541871E+01  1.34617715845138E+00
(PID.TID 0000.0001)  ploadbar=  1.01025685098762E+05
 cg2d: Sum(rhs),rhsMax =  -6.98668975994619E+01  1.32712022895178E+00
(PID.TID 0000.0001)  ploadbar=  1.01024223084057E+05
 cg2d: Sum(rhs),rhsMax =  -7.09564703378832E+01  1.30633325488237E+00
(PID.TID 0000.0001)  ploadbar=  1.01022761069352E+05
 cg2d: Sum(rhs),rhsMax =  -7.21358502627233E+01  1.28457007051338E+00
(PID.TID 0000.0001)  ploadbar=  1.01021299054647E+05
 cg2d: Sum(rhs),rhsMax =  -7.33524356628970E+01  1.26285832263917E+00
(PID.TID 0000.0001)  ploadbar=  1.01019837039942E+05
 cg2d: Sum(rhs),rhsMax =  -7.45566902857564E+01  1.24204893423653E+00
(PID.TID 0000.0001)  ploadbar=  1.01018375025237E+05
 cg2d: Sum(rhs),rhsMax =  -7.56751966777692E+01  1.22329380405626E+00
(PID.TID 0000.0001)  ploadbar=  1.01017781457338E+05
 cg2d: Sum(rhs),rhsMax =  -7.61334082908552E+01  1.21554110691250E+00
(PID.TID 0000.0001)  ploadbar=  1.01017187889439E+05
 cg2d: Sum(rhs),rhsMax =  -7.55963979448574E+01  1.22378341894515E+00
(PID.TID 0000.0001)  ploadbar=  1.01016594321540E+05
 cg2d: Sum(rhs),rhsMax =  -7.51118080210167E+01  1.23127738685695E+00
(PID.TID 0000.0001)  ploadbar=  1.01016000753641E+05
 cg2d: Sum(rhs),rhsMax =  -7.46764609744112E+01  1.23803952904517E+00
(PID.TID 0000.0001)  ploadbar=  1.01015407185742E+05
 cg2d: Sum(rhs),rhsMax =  -7.36767698576541E+01  1.25439765152691E+00
(PID.TID 0000.0001)  ploadbar=  1.01014813617843E+05
 cg2d: Sum(rhs),rhsMax =  -7.27905899820964E+01  1.26927497323947E+00
(PID.TID 0000.0001)  ploadbar=  1.01012779750481E+05
 cg2d: Sum(rhs),rhsMax =  -7.19438834395804E+01  1.28386272592796E+00
(PID.TID 0000.0001)  ploadbar=  1.01010745883119E+05
 cg2d: Sum(rhs),rhsMax =  -7.12200958367339E+01  1.29659989519059E+00
(PID.TID 0000.0001)  ploadbar=  1.01008712015757E+05
 cg2d: Sum(rhs),rhsMax =  -7.06351673185153E+01  1.30706210735008E+00
(PID.TID 0000.0001)  ploadbar=  1.01006678148394E+05
 cg2d: Sum(rhs),rhsMax =  -7.01446005721510E+01  1.31596151223963E+00
(PID.TID 0000.0001)  ploadbar=  1.01004644281032E+05
 cg2d: Sum(rhs),rhsMax =  -6.97389970926959E+01  1.32340411154101E+00
(PID.TID 0000.0001)  ploadbar=  1.01002610413670E+05
 cg2d: Sum(rhs),rhsMax =  -6.94050484102900E+01  1.32954614297884E+00
(PID.TID 0000.0001)  ploadbar=  1.01001064189936E+05
 cg2d: Sum(rhs),rhsMax =  -6.91272899562741E+01  1.33464583303452E+00
(PID.TID 0000.0001)  ploadbar=  1.00999517966202E+05
 cg2d: Sum(rhs),rhsMax =  -6.88964243230390E+01  1.33885638633166E+00
(PID.TID 0000.0001)  ploadbar=  1.00997971742467E+05
 cg2d: Sum(rhs),rhsMax =  -6.87043176056656E+01  1.34231485005127E+00
(PID.TID 0000.0001)  ploadbar=  1.00996425518733E+05
 cg2d: Sum(rhs),rhsMax =  -6.85438589378470E+01  1.34514565279021E+00
(PID.TID 0000.0001)  ploadbar=  1.00994879294999E+05
 cg2d: Sum(rhs),rhsMax =  -6.84079040243474E+01  1.34747750794314E+00
(PID.TID 0000.0001)  ploadbar=  1.00993333071264E+05
 cg2d: Sum(rhs),rhsMax =  -6.83598257923917E+01  1.34808996826473E+00
(PID.TID 0000.0001)  ploadbar=  1.00992178829276E+05
 cg2d: Sum(rhs),rhsMax =  -6.83553216289943E+01  1.34784862033377E+00
(PID.TID 0000.0001)  ploadbar=  1.00991024587287E+05
 cg2d: Sum(rhs),rhsMax =  -6.83871490680754E+01  1.34689359230506E+00
(PID.TID 0000.0001)  ploadbar=  1.00989870345299E+05
 cg2d: Sum(rhs),rhsMax =  -6.84480326833667E+01  1.34536765057669E+00
(PID.TID 0000.0001)  ploadbar=  1.00988716103310E+05
 cg2d: Sum(rhs),rhsMax =  -6.89188572688078E+01  1.33584549808104E+00
(PID.TID 0000.0001)  ploadbar=  1.00987561861322E+05
 cg2d: Sum(rhs),rhsMax =  -6.90271853529542E+01  1.33340919223394E+00
(PID.TID 0000.0001)  ploadbar=  1.00986407619333E+05
 cg2d: Sum(rhs),rhsMax =  -6.86926530825593E+01  1.33949612021865E+00
(PID.TID 0000.0001)  ploadbar=  1.00984567320329E+05
 cg2d: Sum(rhs),rhsMax =  -6.83502530898684E+01  1.34572629226448E+00
(PID.TID 0000.0001)  ploadbar=  1.00982727021324E+05
 cg2d: Sum(rhs),rhsMax =  -6.80062977704393E+01  1.35197107149538E+00
(PID.TID 0000.0001)  ploadbar=  1.00980886722320E+05
 cg2d: Sum(rhs),rhsMax =  -6.73769709763525E+01  1.36394588739503E+00
(PID.TID 0000.0001)  ploadbar=  1.00979046423315E+05
 cg2d: Sum(rhs),rhsMax =  -6.63653719059984E+01  1.38398275711263E+00
(PID.TID 0000.0001)  ploadbar=  1.00977206124311E+05
 cg2d: Sum(rhs),rhsMax =  -6.54377343972710E+01  1.40274135067718E+00
(PID.TID 0000.0001)  ploadbar=  1.00975365825306E+05
 cg2d: Sum(rhs),rhsMax =  -6.45696092533484E+01  1.42081540336681E+00
(PID.TID 0000.0001)  ploadbar=  1.00975145213454E+05
 cg2d: Sum(rhs),rhsMax =  -6.37413198996928E+01  1.43856815519937E+00
(PID.TID 0000.0001)  ploadbar=  1.00974924601602E+05
 cg2d: Sum(rhs),rhsMax =  -6.29567657913344E+01  1.45586014917840E+00
(PID.TID 0000.0001)  ploadbar=  1.00974703989749E+05
 cg2d: Sum(rhs),rhsMax =  -6.22354346696635E+01  1.47217075754591E+00
(PID.TID 0000.0001)  ploadbar=  1.00974483377897E+05
 cg2d: Sum(rhs),rhsMax =  -6.15656491929173E+01  1.48769118462705E+00
(PID.TID 0000.0001)  ploadbar=  1.00974262766044E+05
 cg2d: Sum(rhs),rhsMax =  -6.09413115310413E+01  1.50250141453508E+00
(PID.TID 0000.0001)  ploadbar=  1.00974042154192E+05
 cg2d: Sum(rhs),rhsMax =  -6.03899101984789E+01  1.51577187170119E+00
(PID.TID 0000.0001)  ploadbar=  1.00975387966979E+05
 cg2d: Sum(rhs),rhsMax =  -5.99127525132373E+01  1.52737322295327E+00
(PID.TID 0000.0001)  ploadbar=  1.00976733779766E+05
 cg2d: Sum(rhs),rhsMax =  -5.95442057818305E+01  1.53632711987327E+00
(PID.TID 0000.0001)  ploadbar=  1.00978079592553E+05
 cg2d: Sum(rhs),rhsMax =  -5.93392565840365E+01  1.54110248501306E+00
(PID.TID 0000.0001)  ploadbar=  1.00979425405340E+05
 cg2d: Sum(rhs),rhsMax =  -5.93001160478638E+01  1.54155285366001E+00
(PID.TID 0000.0001)  ploadbar=  1.00980771218127E+05
 cg2d: Sum(rhs),rhsMax =  -5.94855412103708E+01  1.53614526653241E+00
(PID.TID 0000.0001)  ploadbar=  1.00982117030914E+05
 cg2d: Sum(rhs),rhsMax =  -5.97127130314085E+01  1.52971541090497E+00
(PID.TID 0000.0001)  ploadbar=  1.00984263034414E+05
 cg2d: Sum(rhs),rhsMax =  -5.99564600496213E+01  1.52292484488567E+00
(PID.TID 0000.0001)  ploadbar=  1.00986409037914E+05
 cg2d: Sum(rhs),rhsMax =  -6.01868677894858E+01  1.51653490657911E+00
(PID.TID 0000.0001)  ploadbar=  1.00988555041414E+05
 cg2d: Sum(rhs),rhsMax =  -6.03917962850944E+01  1.51083485660794E+00
(PID.TID 0000.0001)  ploadbar=  1.00990701044914E+05
 cg2d: Sum(rhs),rhsMax =  -6.05857451514223E+01  1.50544169703134E+00
(PID.TID 0000.0001)  ploadbar=  1.00992847048414E+05
 cg2d: Sum(rhs),rhsMax =  -6.07730846796674E+01  1.50023597839114E+00
(PID.TID 0000.0001)  ploadbar=  1.00994993051914E+05
 cg2d: Sum(rhs),rhsMax =  -6.09217430227859E+01  1.49596969124253E+00
(PID.TID 0000.0001)  ploadbar=  1.00996302107022E+05
 cg2d: Sum(rhs),rhsMax =  -6.10531596604213E+01  1.49209711488479E+00
(PID.TID 0000.0001)  ploadbar=  1.00997611162131E+05
 cg2d: Sum(rhs),rhsMax =  -6.11882440990419E+01  1.48809741200567E+00
(PID.TID 0000.0001)  ploadbar=  1.00998920217239E+05
 cg2d: Sum(rhs),rhsMax =  -6.13463578167170E+01  1.48349843118013E+00
(PID.TID 0000.0001)  ploadbar=  1.01000229272348E+05
 cg2d: Sum(rhs),rhsMax =  -6.15430206264268E+01  1.47793279335888E+00
(PID.TID 0000.0001)  ploadbar=  1.01001538327456E+05
 cg2d: Sum(rhs),rhsMax =  -6.17788757644346E+01  1.47140051906755E+00
(PID.TID 0000.0001)  ploadbar=  1.01002847382564E+05
 cg2d: Sum(rhs),rhsMax =  -6.19480344245428E+01  1.46657825450176E+00
(PID.TID 0000.0001)  ploadbar=  1.01003602346497E+05
 cg2d: Sum(rhs),rhsMax =  -6.20072214943842E+01  1.46445388172846E+00
(PID.TID 0000.0001)  ploadbar=  1.01004357310430E+05
 cg2d: Sum(rhs),rhsMax =  -6.19453471731569E+01  1.46526778758407E+00
(PID.TID 0000.0001)  ploadbar=  1.01005112274362E+05
 cg2d: Sum(rhs),rhsMax =  -6.18577905546482E+01  1.46676183343788E+00
(PID.TID 0000.0001)  ploadbar=  1.01005867238295E+05
 cg2d: Sum(rhs),rhsMax =  -6.17091631812608E+01  1.46977696771387E+00
(PID.TID 0000.0001)  ploadbar=  1.01006622202228E+05
 cg2d: Sum(rhs),rhsMax =  -6.15218834083051E+01  1.47379307667631E+00
(PID.TID 0000.0001)  ploadbar=  1.01007377166160E+05
 cg2d: Sum(rhs),rhsMax =  -6.13198561100933E+01  1.47817416284096E+00
(PID.TID 0000.0001)  ploadbar=  1.01007678338238E+05
 cg2d: Sum(rhs),rhsMax =  -6.10862677719439E+01  1.48333006985096E+00
(PID.TID 0000.0001)  ploadbar=  1.01007979510316E+05
 cg2d: Sum(rhs),rhsMax =  -6.07373688513669E+01  1.49132780302503E+00
(PID.TID 0000.0001)  ploadbar=  1.01008280682394E+05
 cg2d: Sum(rhs),rhsMax =  -6.04588870104073E+01  1.49764577945357E+00
(PID.TID 0000.0001)  ploadbar=  1.01008581854472E+05
 cg2d: Sum(rhs),rhsMax =  -6.02523721632773E+01  1.50219357698206E+00
(PID.TID 0000.0001)  ploadbar=  1.01008883026550E+05
 cg2d: Sum(rhs),rhsMax =  -6.01140298868136E+01  1.50503087184979E+00
(PID.TID 0000.0001)  ploadbar=  1.01009184198628E+05
 cg2d: Sum(rhs),rhsMax =  -6.00863204914444E+01  1.50513107681663E+00
(PID.TID 0000.0001)  ploadbar=  1.01010346408673E+05
 cg2d: Sum(rhs),rhsMax =  -6.01568860797673E+01  1.50279625529687E+00
(PID.TID 0000.0001)  ploadbar=  1.01011508618718E+05
 cg2d: Sum(rhs),rhsMax =  -6.03535437012666E+01  1.49735098491519E+00
(PID.TID 0000.0001)  ploadbar=  1.01012670828764E+05
 cg2d: Sum(rhs),rhsMax =  -6.06333131989680E+01  1.48991356888207E+00
(PID.TID 0000.0001)  ploadbar=  1.01013833038809E+05
 cg2d: Sum(rhs),rhsMax =  -6.09706296433954E+01  1.48116022294385E+00
(PID.TID 0000.0001)  ploadbar=  1.01014995248855E+05
 cg2d: Sum(rhs),rhsMax =  -6.13527229475711E+01  1.47144110286162E+00
(PID.TID 0000.0001)  ploadbar=  1.01016157458900E+05
 cg2d: Sum(rhs),rhsMax =  -6.17165473894468E+01  1.46224084214222E+00
(PID.TID 0000.0001)  ploadbar=  1.01016220913864E+05
 cg2d: Sum(rhs),rhsMax =  -6.20765605606289E+01  1.45319955917796E+00
(PID.TID 0000.0001)  ploadbar=  1.01016284368828E+05
 cg2d: Sum(rhs),rhsMax =  -6.24330889719281E+01  1.44430088223050E+00
(PID.TID 0000.0001)  ploadbar=  1.01016347823792E+05
 cg2d: Sum(rhs),rhsMax =  -6.27926598438653E+01  1.43538738723294E+00
(PID.TID 0000.0001)  ploadbar=  1.01016411278756E+05
 cg2d: Sum(rhs),rhsMax =  -6.27493504558126E+01  1.43568531274830E+00
(PID.TID 0000.0001)  ploadbar=  1.01016474733720E+05
 cg2d: Sum(rhs),rhsMax =  -6.25858947182446E+01  1.43868880255275E+00
(PID.TID 0000.0001)  ploadbar=  1.01016538188684E+05
 cg2d: Sum(rhs),rhsMax =  -6.24711930868155E+01  1.44066667785461E+00
(PID.TID 0000.0001)  ploadbar=  1.01016526352173E+05
 cg2d: Sum(rhs),rhsMax =  -6.24359673031855E+01  1.44089917178055E+00
(PID.TID 0000.0001)  ploadbar=  1.01016514515662E+05
 cg2d: Sum(rhs),rhsMax =  -6.25141460751675E+01  1.43859411060294E+00
(PID.TID 0000.0001)  ploadbar=  1.01016502679151E+05
 cg2d: Sum(rhs),rhsMax =  -6.25409086143396E+01  1.43754689302567E+00
(PID.TID 0000.0001)  ploadbar=  1.01016490842640E+05
 cg2d: Sum(rhs),rhsMax =  -6.25448277189338E+01  1.43709019112639E+00
(PID.TID 0000.0001)  ploadbar=  1.01016479006129E+05
 cg2d: Sum(rhs),rhsMax =  -6.25467509279276E+01  1.43674174747417E+00
(PID.TID 0000.0001)  ploadbar=  1.01016467169618E+05
 cg2d: Sum(rhs),rhsMax =  -6.24408988501739E+01  1.43883158399405E+00
(PID.TID 0000.0001)  ploadbar=  1.01016464372037E+05
 cg2d: Sum(rhs),rhsMax =  -6.22106014364287E+01  1.44376740287747E+00
(PID.TID 0000.0001)  ploadbar=  1.01016461574456E+05
 cg2d: Sum(rhs),rhsMax =  -6.19625472435010E+01  1.44910892898642E+00
(PID.TID 0000.0001)  ploadbar=  1.01016458776876E+05
 cg2d: Sum(rhs),rhsMax =  -6.17294689673778E+01  1.45409345987566E+00
(PID.TID 0000.0001)  ploadbar=  1.01016455979295E+05
 cg2d: Sum(rhs),rhsMax =  -6.15078372550714E+01  1.45879412471653E+00
(PID.TID 0000.0001)  ploadbar=  1.01016453181714E+05
 cg2d: Sum(rhs),rhsMax =  -6.13089103259224E+01  1.46293295547850E+00
(PID.TID 0000.0001)  ploadbar=  1.01016450384134E+05
 cg2d: Sum(rhs),rhsMax =  -6.11959899899530E+01  1.46504850087400E+00
(PID.TID 0000.0001)  ploadbar=  1.01016073625951E+05
 cg2d: Sum(rhs),rhsMax =  -6.08195434505098E+01  1.47353785874389E+00
(PID.TID 0000.0001)  ploadbar=  1.01015696867767E+05
 cg2d: Sum(rhs),rhsMax =  -6.03723879178110E+01  1.48387231505413E+00
(PID.TID 0000.0001)  ploadbar=  1.01015320109584E+05
 cg2d: Sum(rhs),rhsMax =  -5.99755902372291E+01  1.49310479507243E+00
(PID.TID 0000.0001)  ploadbar=  1.01014943351401E+05
 cg2d: Sum(rhs),rhsMax =  -5.96148335463168E+01  1.50154577151348E+00
(PID.TID 0000.0001)  ploadbar=  1.01014566593218E+05
 cg2d: Sum(rhs),rhsMax =  -5.93052939870687E+01  1.50877040283823E+00
(PID.TID 0000.0001)  ploadbar=  1.01014189835035E+05
 cg2d: Sum(rhs),rhsMax =  -5.90736309040537E+01  1.51399092753947E+00
(PID.TID 0000.0001)  ploadbar=  1.01014384518494E+05
 cg2d: Sum(rhs),rhsMax =  -5.89480251203121E+01  1.51643516416947E+00
(PID.TID 0000.0001)  ploadbar=  1.01014579201953E+05
 cg2d: Sum(rhs),rhsMax =  -5.89422872876123E+01  1.51571266700839E+00
(PID.TID 0000.0001)  ploadbar=  1.01014773885412E+05
 cg2d: Sum(rhs),rhsMax =  -5.90620093353819E+01  1.51167923049313E+00
(PID.TID 0000.0001)  ploadbar=  1.01014968568870E+05
 cg2d: Sum(rhs),rhsMax =  -5.93093031158082E+01  1.50432176310540E+00
(PID.TID 0000.0001)  ploadbar=  1.01015163252329E+05
 cg2d: Sum(rhs),rhsMax =  -5.96838694646029E+01  1.49373055698485E+00
(PID.TID 0000.0001)  ploadbar=  1.01015357935788E+05
 cg2d: Sum(rhs),rhsMax =  -6.01131245036416E+01  1.48201177073238E+00
(PID.TID 0000.0001)  ploadbar=  1.01017287262426E+05
 cg2d: Sum(rhs),rhsMax =  -6.05769990946293E+01  1.46970549169227E+00
(PID.TID 0000.0001)  ploadbar=  1.01019216589063E+05
 cg2d: Sum(rhs),rhsMax =  -6.10657735595808E+01  1.45707468656818E+00
(PID.TID 0000.0001)  ploadbar=  1.01021145915701E+05
 cg2d: Sum(rhs),rhsMax =  -6.15784548272651E+01  1.44415948487736E+00
(PID.TID 0000.0001)  ploadbar=  1.01023075242338E+05
 cg2d: Sum(rhs),rhsMax =  -6.21267689466079E+01  1.43070527763550E+00
(PID.TID 0000.0001)  ploadbar=  1.01025004568976E+05
 cg2d: Sum(rhs),rhsMax =  -6.27341976434639E+01  1.41621354302081E+00
(PID.TID 0000.0001)  ploadbar=  1.01026933895614E+05
 cg2d: Sum(rhs),rhsMax =  -6.33582239221764E+01  1.40162994218011E+00
(PID.TID 0000.0001)  ploadbar=  1.01027798362240E+05
 cg2d: Sum(rhs),rhsMax =  -6.40147234248696E+01  1.38662034452039E+00
(PID.TID 0000.0001)  ploadbar=  1.01028662828866E+05
 cg2d: Sum(rhs),rhsMax =  -6.47071802942564E+01  1.37114294927845E+00
(PID.TID 0000.0001)  ploadbar=  1.01029527295493E+05
 cg2d: Sum(rhs),rhsMax =  -6.54415647413358E+01  1.35511005814556E+00
(PID.TID 0000.0001)  ploadbar=  1.01030391762119E+05
 cg2d: Sum(rhs),rhsMax =  -6.62172617016637E+01  1.33857942422684E+00
(PID.TID 0000.0001)  ploadbar=  1.01031256228745E+05
 cg2d: Sum(rhs),rhsMax =  -6.70285343435891E+01  1.32170757484248E+00
(PID.TID 0000.0001)  ploadbar=  1.01032120695372E+05
 cg2d: Sum(rhs),rhsMax =  -6.78602862383188E+01  1.30485890806141E+00
(PID.TID 0000.0001)  ploadbar=  1.01032101010373E+05
 cg2d: Sum(rhs),rhsMax =  -6.87208529893973E+01  1.28788722731203E+00
(PID.TID 0000.0001)  ploadbar=  1.01032081325375E+05
 cg2d: Sum(rhs),rhsMax =  -6.95982479254495E+01  1.27103047570841E+00
(PID.TID 0000.0001)  ploadbar=  1.01032061640376E+05
 cg2d: Sum(rhs),rhsMax =  -7.05079760798121E+01  1.25401160093085E+00
(PID.TID 0000.0001)  ploadbar=  1.01032041955377E+05
 cg2d: Sum(rhs),rhsMax =  -7.14380551972755E+01  1.23706018661112E+00
(PID.TID 0000.0001)  ploadbar=  1.01032022270379E+05
 cg2d: Sum(rhs),rhsMax =  -7.23833972006542E+01  1.22026625379825E+00
(PID.TID 0000.0001)  ploadbar=  1.01032002585380E+05
 cg2d: Sum(rhs),rhsMax =  -7.33345119772455E+01  1.20379582064447E+00
(PID.TID 0000.0001)  ploadbar=  1.01031874190495E+05
 cg2d: Sum(rhs),rhsMax =  -7.35355266175948E+01  1.19984400935341E+00
(PID.TID 0000.0001)  ploadbar=  1.01031745795609E+05
 cg2d: Sum(rhs),rhsMax =  -7.32998476360037E+01  1.20301398282602E+00
(PID.TID 0000.0001)  ploadbar=  1.01031617400723E+05
 cg2d: Sum(rhs),rhsMax =  -7.30597965507993E+01  1.20624690594623E+00
(PID.TID 0000.0001)  ploadbar=  1.01031489005837E+05
 cg2d: Sum(rhs),rhsMax =  -7.28145928859626E+01  1.20955199219797E+00
(PID.TID 0000.0001)  ploadbar=  1.01031360610952E+05
 cg2d: Sum(rhs),rhsMax =  -7.25639274747239E+01  1.21292997813331E+00
(PID.TID 0000.0001)  ploadbar=  1.01031232216066E+05
 cg2d: Sum(rhs),rhsMax =  -7.23246880792239E+01  1.21620135215833E+00
(PID.TID 0000.0001)  ploadbar=  1.01030705536192E+05
 cg2d: Sum(rhs),rhsMax =  -7.20913495013539E+01  1.21945595148856E+00
(PID.TID 0000.0001)  ploadbar=  1.01030178856319E+05
 cg2d: Sum(rhs),rhsMax =  -7.18604167568259E+01  1.22275101195834E+00
(PID.TID 0000.0001)  ploadbar=  1.01029652176445E+05
 cg2d: Sum(rhs),rhsMax =  -7.16362612250108E+01  1.22600617704467E+00
(PID.TID 0000.0001)  ploadbar=  1.01029125496571E+05
 cg2d: Sum(rhs),rhsMax =  -7.14191378366929E+01  1.22921038610961E+00
(PID.TID 0000.0001)  ploadbar=  1.01028598816697E+05
 cg2d: Sum(rhs),rhsMax =  -7.12083670177239E+01  1.23237149732572E+00
(PID.TID 0000.0001)  ploadbar=  1.01028072136824E+05
 cg2d: Sum(rhs),rhsMax =  -7.10079805282978E+01  1.23536972326392E+00
(PID.TID 0000.0001)  ploadbar=  1.01027692275503E+05
 cg2d: Sum(rhs),rhsMax =  -7.08182280005176E+01  1.23819412289893E+00
(PID.TID 0000.0001)  ploadbar=  1.01027312414182E+05
 cg2d: Sum(rhs),rhsMax =  -7.06314250814247E+01  1.24096925152810E+00
(PID.TID 0000.0001)  ploadbar=  1.01026932552861E+05
 cg2d: Sum(rhs),rhsMax =  -7.04469985386127E+01  1.24370087757019E+00
(PID.TID 0000.0001)  ploadbar=  1.01026552691540E+05
 cg2d: Sum(rhs),rhsMax =  -7.02672174115044E+01  1.24634248182188E+00
(PID.TID 0000.0001)  ploadbar=  1.01026172830219E+05
 cg2d: Sum(rhs),rhsMax =  -7.00912725407445E+01  1.24889990921050E+00
(PID.TID 0000.0001)  ploadbar=  1.01025792968898E+05
 cg2d: Sum(rhs),rhsMax =  -6.99056093683163E+01  1.25165448036957E+00
(PID.TID 0000.0001)  ploadbar=  1.01024552631051E+05
 cg2d: Sum(rhs),rhsMax =  -6.97222093315400E+01  1.25438945671172E+00
(PID.TID 0000.0001)  ploadbar=  1.01023312293204E+05
 cg2d: Sum(rhs),rhsMax =  -6.95443132919619E+01  1.25703915125891E+00
(PID.TID 0000.0001)  ploadbar=  1.01022071955357E+05
 cg2d: Sum(rhs),rhsMax =  -6.93675393859017E+01  1.25967714221809E+00
(PID.TID 0000.0001)  ploadbar=  1.01020831617509E+05
 cg2d: Sum(rhs),rhsMax =  -6.91924392440044E+01  1.26229002918306E+00
(PID.TID 0000.0001)  ploadbar=  1.01019591279662E+05
 cg2d: Sum(rhs),rhsMax =  -6.90182580031233E+01  1.26488627512893E+00
(PID.TID 0000.0001)  ploadbar=  1.01018350941815E+05
 cg2d: Sum(rhs),rhsMax =  -6.88511898469500E+01  1.26735454701041E+00
(PID.TID 0000.0001)  ploadbar=  1.01018751714842E+05
 cg2d: Sum(rhs),rhsMax =  -6.86865026854394E+01  1.26977571583090E+00
(PID.TID 0000.0001)  ploadbar=  1.01019152487869E+05
 cg2d: Sum(rhs),rhsMax =  -6.85239055209486E+01  1.27214995421389E+00
(PID.TID 0000.0001)  ploadbar=  1.01019553260897E+05
 cg2d: Sum(rhs),rhsMax =  -6.83614698380593E+01  1.27450379551334E+00
(PID.TID 0000.0001)  ploadbar=  1.01019954033924E+05
 cg2d: Sum(rhs),rhsMax =  -6.81985790406614E+01  1.27684341874868E+00
(PID.TID 0000.0001)  ploadbar=  1.01020354806951E+05
 cg2d: Sum(rhs),rhsMax =  -6.80346340804869E+01  1.27917447901573E+00
(PID.TID 0000.0001)  ploadbar=  1.01020755579978E+05
 cg2d: Sum(rhs),rhsMax =  -6.78009026609527E+01  1.28290437551728E+00
(PID.TID 0000.0001)  ploadbar=  1.01019510264387E+05
 cg2d: Sum(rhs),rhsMax =  -6.68381257763454E+01  1.30076078399519E+00
(PID.TID 0000.0001)  ploadbar=  1.01018264948796E+05
 cg2d: Sum(rhs),rhsMax =  -6.55712738611318E+01  1.32531829021675E+00
(PID.TID 0000.0001)  ploadbar=  1.01017019633205E+05
 cg2d: Sum(rhs),rhsMax =  -6.41027616357133E+01  1.35514883558930E+00
(PID.TID 0000.0001)  ploadbar=  1.01015774317614E+05
 cg2d: Sum(rhs),rhsMax =  -6.25870007122960E+01  1.38747888633918E+00
(PID.TID 0000.0001)  ploadbar=  1.01014529002023E+05
 cg2d: Sum(rhs),rhsMax =  -6.10385279008312E+01  1.42222053208065E+00
(PID.TID 0000.0001)  ploadbar=  1.01013283686432E+05
 cg2d: Sum(rhs),rhsMax =  -5.97542919638085E+01  1.45230035443351E+00
(PID.TID 0000.0001)  ploadbar=  1.01011703777050E+05
 cg2d: Sum(rhs),rhsMax =  -5.87025164487534E+01  1.47780439691170E+00
(PID.TID 0000.0001)  ploadbar=  1.01010123867667E+05
 cg2d: Sum(rhs),rhsMax =  -5.77314814133705E+01  1.50211472810402E+00
(PID.TID 0000.0001)  ploadbar=  1.01008543958284E+05
 cg2d: Sum(rhs),rhsMax =  -5.62952734751556E+01  1.53985057851249E+00
(PID.TID 0000.0001)  ploadbar=  1.01006964048902E+05
 cg2d: Sum(rhs),rhsMax =  -5.51420250907484E+01  1.57143051396137E+00
(PID.TID 0000.0001)  ploadbar=  1.01005384139519E+05
 cg2d: Sum(rhs),rhsMax =  -5.42621810131234E+01  1.59624288096538E+00
(PID.TID 0000.0001)  ploadbar=  1.01003804230136E+05
 cg2d: Sum(rhs),rhsMax =  -5.35717032887938E+01  1.61613490494918E+00
(PID.TID 0000.0001)  ploadbar=  1.01001571121170E+05
 cg2d: Sum(rhs),rhsMax =  -5.30485849826606E+01  1.63137116538575E+00
(PID.TID 0000.0001)  ploadbar=  1.00999338012204E+05
 cg2d: Sum(rhs),rhsMax =  -5.26678485153197E+01  1.64243756067554E+00
(PID.TID 0000.0001)  ploadbar=  1.00997104903238E+05
 cg2d: Sum(rhs),rhsMax =  -5.24085548753201E+01  1.64980459832370E+00
(PID.TID 0000.0001)  ploadbar=  1.00994871794272E+05
 cg2d: Sum(rhs),rhsMax =  -5.22460385378332E+01  1.65413859435560E+00
(PID.TID 0000.0001)  ploadbar=  1.00992638685306E+05
 cg2d: Sum(rhs),rhsMax =  -5.21502037123119E+01  1.65633473484884E+00
(PID.TID 0000.0001)  ploadbar=  1.00990405576339E+05
 cg2d: Sum(rhs),rhsMax =  -5.20547047919863E+01  1.65850951039040E+00
(PID.TID 0000.0001)  ploadbar=  1.00989598455810E+05
 cg2d: Sum(rhs),rhsMax =  -5.16584110862255E+01  1.67034087211062E+00
(PID.TID 0000.0001)  ploadbar=  1.00988791335281E+05
 cg2d: Sum(rhs),rhsMax =  -5.07459858279955E+01  1.69943496095246E+00
(PID.TID 0000.0001)  ploadbar=  1.00987984214751E+05
 cg2d: Sum(rhs),rhsMax =  -5.00229884983840E+01  1.72300535329937E+00
(PID.TID 0000.0001)  ploadbar=  1.00987177094222E+05
 cg2d: Sum(rhs),rhsMax =  -4.95254249696885E+01  1.73926938221430E+00
(PID.TID 0000.0001)  ploadbar=  1.00986369973693E+05
 cg2d: Sum(rhs),rhsMax =  -4.92212285149105E+01  1.74891085088352E+00
(PID.TID 0000.0001)  ploadbar=  1.00985562853164E+05
 cg2d: Sum(rhs),rhsMax =  -4.89587906041001E+01  1.75726340251161E+00
(PID.TID 0000.0001)  ploadbar=  1.00985926816625E+05
 cg2d: Sum(rhs),rhsMax =  -4.87963884960626E+01  1.76217481304326E+00
(PID.TID 0000.0001)  ploadbar=  1.00986290780086E+05
 cg2d: Sum(rhs),rhsMax =  -4.87026558625009E+01  1.76470966477527E+00
(PID.TID 0000.0001)  ploadbar=  1.00986654743547E+05
 cg2d: Sum(rhs),rhsMax =  -4.86613919929215E+01  1.76542403691406E+00
(PID.TID 0000.0001)  ploadbar=  1.00987018707008E+05
 cg2d: Sum(rhs),rhsMax =  -4.86671290930701E+01  1.76450442407343E+00
(PID.TID 0000.0001)  ploadbar=  1.00987382670469E+05
 cg2d: Sum(rhs),rhsMax =  -4.87221857215374E+01  1.76186512575848E+00
(PID.TID 0000.0001)  ploadbar=  1.00987746633929E+05
 cg2d: Sum(rhs),rhsMax =  -4.88054351024876E+01  1.75820045409061E+00
(PID.TID 0000.0001)  ploadbar=  1.00988892783922E+05
 cg2d: Sum(rhs),rhsMax =  -4.88894632806493E+01  1.75449689193367E+00
(PID.TID 0000.0001)  ploadbar=  1.00990038933915E+05
 cg2d: Sum(rhs),rhsMax =  -4.89925042352206E+01  1.75009625677413E+00
(PID.TID 0000.0001)  ploadbar=  1.00991185083907E+05
 cg2d: Sum(rhs),rhsMax =  -4.95357533446178E+01  1.73016648964387E+00
(PID.TID 0000.0001)  ploadbar=  1.00992331233900E+05
 cg2d: Sum(rhs),rhsMax =  -5.01347149269229E+01  1.70872902635510E+00
(PID.TID 0000.0001)  ploadbar=  1.00993477383892E+05
 cg2d: Sum(rhs),rhsMax =  -5.07914741810209E+01  1.68583699611914E+00
(PID.TID 0000.0001)  ploadbar=  1.00994623533885E+05
 cg2d: Sum(rhs),rhsMax =  -5.15513636393776E+01  1.66021581085014E+00
(PID.TID 0000.0001)  ploadbar=  1.00994863360263E+05
 cg2d: Sum(rhs),rhsMax =  -5.21962193326733E+01  1.63895081994280E+00
(PID.TID 0000.0001)  ploadbar=  1.00995103186641E+05
 cg2d: Sum(rhs),rhsMax =  -5.21324010058186E+01  1.64020774409753E+00
(PID.TID 0000.0001)  ploadbar=  1.00995343013020E+05
 cg2d: Sum(rhs),rhsMax =  -5.20928768043668E+01  1.64070063652315E+00
(PID.TID 0000.0001)  ploadbar=  1.00995582839398E+05
 cg2d: Sum(rhs),rhsMax =  -5.20896141944119E+01  1.64004444147888E+00
(PID.TID 0000.0001)  ploadbar=  1.00995822665776E+05
 cg2d: Sum(rhs),rhsMax =  -5.21175054386640E+01  1.63839297407709E+00
(PID.TID 0000.0001)  ploadbar=  1.00996062492154E+05
 cg2d: Sum(rhs),rhsMax =  -5.22642990810942E+01  1.63298624215679E+00
(PID.TID 0000.0001)  ploadbar=  1.00996889994310E+05
 cg2d: Sum(rhs),rhsMax =  -5.25257086047808E+01  1.62401608138542E+00
(PID.TID 0000.0001)  ploadbar=  1.00997717496466E+05
 cg2d: Sum(rhs),rhsMax =  -5.28895978035235E+01  1.61195632766845E+00
(PID.TID 0000.0001)  ploadbar=  1.00998544998622E+05
 cg2d: Sum(rhs),rhsMax =  -5.32633408208816E+01  1.59970589123066E+00
(PID.TID 0000.0001)  ploadbar=  1.00999372500777E+05
 cg2d: Sum(rhs),rhsMax =  -5.36516036570566E+01  1.58712856120831E+00
(PID.TID 0000.0001)  ploadbar=  1.01000200002933E+05
 cg2d: Sum(rhs),rhsMax =  -5.40873669252580E+01  1.57327557840769E+00
(PID.TID 0000.0001)  ploadbar=  1.01001027505089E+05
 cg2d: Sum(rhs),rhsMax =  -5.47531963712317E+01  1.55318150334415E+00
(PID.TID 0000.0001)  ploadbar=  1.01002946391343E+05
 cg2d: Sum(rhs),rhsMax =  -5.56460151342092E+01  1.52740429282110E+00
(PID.TID 0000.0001)  ploadbar=  1.01004865277598E+05
 cg2d: Sum(rhs),rhsMax =  -5.67688007717713E+01  1.49643846639145E+00
(PID.TID 0000.0001)  ploadbar=  1.01006784163853E+05
 cg2d: Sum(rhs),rhsMax =  -5.81372679320025E+01  1.46055397321552E+00
(PID.TID 0000.0001)  ploadbar=  1.01008703050108E+05
 cg2d: Sum(rhs),rhsMax =  -5.97515183850211E+01  1.42052528412179E+00
(PID.TID 0000.0001)  ploadbar=  1.01010621936362E+05
 cg2d: Sum(rhs),rhsMax =  -6.16128295697668E+01  1.37712039525173E+00
(PID.TID 0000.0001)  ploadbar=  1.01012540822617E+05
 cg2d: Sum(rhs),rhsMax =  -6.33030254915317E+01  1.33985513052731E+00
(PID.TID 0000.0001)  ploadbar=  1.01013324178109E+05
 cg2d: Sum(rhs),rhsMax =  -6.48748642811854E+01  1.30688555949634E+00
(PID.TID 0000.0001)  ploadbar=  1.01014107533602E+05
 cg2d: Sum(rhs),rhsMax =  -6.63005851655640E+01  1.27826192136786E+00
(PID.TID 0000.0001)  ploadbar=  1.01014890889094E+05
 cg2d: Sum(rhs),rhsMax =  -6.76260295168095E+01  1.25266879300377E+00
(PID.TID 0000.0001)  ploadbar=  1.01015674244586E+05
 cg2d: Sum(rhs),rhsMax =  -6.89937225263272E+01  1.22727608620429E+00
(PID.TID 0000.0001)  ploadbar=  1.01016457600079E+05
 cg2d: Sum(rhs),rhsMax =  -6.94406081770668E+01  1.21878680791419E+00
(PID.TID 0000.0001)  ploadbar=  1.01017240955571E+05
 cg2d: Sum(rhs),rhsMax =  -6.94116985920130E+01  1.21871914433555E+00
(PID.TID 0000.0001)  ploadbar=  1.01017399538701E+05
 cg2d: Sum(rhs),rhsMax =  -6.93031802945614E+01  1.22006758505761E+00
(PID.TID 0000.0001)  ploadbar=  1.01017558121830E+05
 cg2d: Sum(rhs),rhsMax =  -6.91222021595674E+01  1.22271350488548E+00
(PID.TID 0000.0001)  ploadbar=  1.01017716704960E+05
 cg2d: Sum(rhs),rhsMax =  -6.89170896042087E+01  1.22581071364096E+00
(PID.TID 0000.0001)  ploadbar=  1.01017875288089E+05
 cg2d: Sum(rhs),rhsMax =  -6.88510294432863E+01  1.22645115438448E+00
(PID.TID 0000.0001)  ploadbar=  1.01018033871219E+05
 cg2d: Sum(rhs),rhsMax =  -6.90994602117009E+01  1.22151237970475E+00
(PID.TID 0000.0001)  ploadbar=  1.01018192454348E+05
 cg2d: Sum(rhs),rhsMax =  -6.97809885546996E+01  1.20906463207397E+00
(PID.TID 0000.0001)  ploadbar=  1.01018855723494E+05
 cg2d: Sum(rhs),rhsMax =  -7.06846989348679E+01  1.19309649504353E+00
(PID.TID 0000.0001)  ploadbar=  1.01019518992639E+05
 cg2d: Sum(rhs),rhsMax =  -7.16294477041308E+01  1.17685145217990E+00
(PID.TID 0000.0001)  ploadbar=  1.01020182261785E+05
 cg2d: Sum(rhs),rhsMax =  -7.24384637719920E+01  1.16319247282066E+00
(PID.TID 0000.0001)  ploadbar=  1.01020845530931E+05
 cg2d: Sum(rhs),rhsMax =  -7.31866415705918E+01  1.15077578075168E+00
(PID.TID 0000.0001)  ploadbar=  1.01021508800076E+05
 cg2d: Sum(rhs),rhsMax =  -7.39426754058987E+01  1.13847173593532E+00
(PID.TID 0000.0001)  ploadbar=  1.01022172069222E+05
 cg2d: Sum(rhs),rhsMax =  -7.47501301063012E+01  1.12568301340981E+00
(PID.TID 0000.0001)  ploadbar=  1.01021569659015E+05
 cg2d: Sum(rhs),rhsMax =  -7.55708563723840E+01  1.11301068708717E+00
(PID.TID 0000.0001)  ploadbar=  1.01020967248808E+05
 cg2d: Sum(rhs),rhsMax =  -7.63856248830905E+01  1.10073071893700E+00
(PID.TID 0000.0001)  ploadbar=  1.01020364838602E+05
 cg2d: Sum(rhs),rhsMax =  -7.71912261082486E+01  1.08887072923155E+00
(PID.TID 0000.0001)  ploadbar=  1.01019762428395E+05
 cg2d: Sum(rhs),rhsMax =  -7.79536588946499E+01  1.07788138464121E+00
(PID.TID 0000.0001)  ploadbar=  1.01019160018188E+05
 cg2d: Sum(rhs),rhsMax =  -7.85686970082194E+01  1.06913164786101E+00
(PID.TID 0000.0001)  ploadbar=  1.01018557607981E+05
 cg2d: Sum(rhs),rhsMax =  -7.80868303446277E+01  1.07541181113853E+00
(PID.TID 0000.0001)  ploadbar=  1.01018327185611E+05
 cg2d: Sum(rhs),rhsMax =  -7.75951819702396E+01  1.08190017259052E+00
(PID.TID 0000.0001)  ploadbar=  1.01018096763241E+05
 cg2d: Sum(rhs),rhsMax =  -7.71135447686734E+01  1.08832125775228E+00
(PID.TID 0000.0001)  ploadbar=  1.01017866340871E+05
 cg2d: Sum(rhs),rhsMax =  -7.66572997521609E+01  1.09444884929779E+00
(PID.TID 0000.0001)  ploadbar=  1.01017635918501E+05
 cg2d: Sum(rhs),rhsMax =  -7.62328366017588E+01  1.10017494430422E+00
(PID.TID 0000.0001)  ploadbar=  1.01017405496131E+05
 cg2d: Sum(rhs),rhsMax =  -7.58429116155021E+01  1.10544043630874E+00
(PID.TID 0000.0001)  ploadbar=  1.01017175073761E+05
 cg2d: Sum(rhs),rhsMax =  -7.55016347277250E+01  1.11008224700040E+00
(PID.TID 0000.0001)  ploadbar=  1.01016921467923E+05
 cg2d: Sum(rhs),rhsMax =  -7.51966037403634E+01  1.11426073415811E+00
(PID.TID 0000.0001)  ploadbar=  1.01016667862085E+05
 cg2d: Sum(rhs),rhsMax =  -7.49180759119061E+01  1.11810349087255E+00
(PID.TID 0000.0001)  ploadbar=  1.01016414256248E+05
 cg2d: Sum(rhs),rhsMax =  -7.46608366512255E+01  1.12167661285578E+00
(PID.TID 0000.0001)  ploadbar=  1.01016160650410E+05
 cg2d: Sum(rhs),rhsMax =  -7.44173134344052E+01  1.12508621518886E+00
(PID.TID 0000.0001)  ploadbar=  1.01015907044572E+05
 cg2d: Sum(rhs),rhsMax =  -7.41847120170566E+01  1.12836810236649E+00
(PID.TID 0000.0001)  ploadbar=  1.01015653438734E+05
 cg2d: Sum(rhs),rhsMax =  -7.39716834764444E+01  1.13134516529446E+00
(PID.TID 0000.0001)  ploadbar=  1.01015340709851E+05
 cg2d: Sum(rhs),rhsMax =  -7.37781373617654E+01  1.13400907855504E+00
(PID.TID 0000.0001)  ploadbar=  1.01015027980967E+05
 cg2d: Sum(rhs),rhsMax =  -7.36104016446146E+01  1.13625317307090E+00
(PID.TID 0000.0001)  ploadbar=  1.01014715252083E+05
 cg2d: Sum(rhs),rhsMax =  -7.34701489514068E+01  1.13804124928042E+00
(PID.TID 0000.0001)  ploadbar=  1.01014402523199E+05
 cg2d: Sum(rhs),rhsMax =  -7.33525590908877E+01  1.13943622602156E+00
(PID.TID 0000.0001)  ploadbar=  1.01014089794315E+05
 cg2d: Sum(rhs),rhsMax =  -7.32625446068159E+01  1.14035563028740E+00
(PID.TID 0000.0001)  ploadbar=  1.01013777065432E+05
 cg2d: Sum(rhs),rhsMax =  -7.32115932867900E+01  1.14071333785639E+00
(PID.TID 0000.0001)  ploadbar=  1.01011683268199E+05
 cg2d: Sum(rhs),rhsMax =  -7.31924874860513E+01  1.14061669092172E+00
(PID.TID 0000.0001)  ploadbar=  1.01009589470967E+05
 cg2d: Sum(rhs),rhsMax =  -7.32047613113652E+01  1.14006805489315E+00
(PID.TID 0000.0001)  ploadbar=  1.01007495673734E+05
 cg2d: Sum(rhs),rhsMax =  -7.32465256686529E+01  1.13909463382431E+00
(PID.TID 0000.0001)  ploadbar=  1.01005401876502E+05
 cg2d: Sum(rhs),rhsMax =  -7.33114855697772E+01  1.13779486490094E+00
(PID.TID 0000.0001)  ploadbar=  1.01003308079269E+05
 cg2d: Sum(rhs),rhsMax =  -7.34016610907374E+01  1.13613791190142E+00
(PID.TID 0000.0001)  ploadbar=  1.01001214282037E+05
 cg2d: Sum(rhs),rhsMax =  -7.35041266096799E+01  1.13428669031299E+00
(PID.TID 0000.0001)  ploadbar=  1.01000538071634E+05
 cg2d: Sum(rhs),rhsMax =  -7.36308671194845E+01  1.13205639253239E+00
(PID.TID 0000.0001)  ploadbar=  1.00999861861231E+05
 cg2d: Sum(rhs),rhsMax =  -7.37889062191534E+01  1.12934156949807E+00
(PID.TID 0000.0001)  ploadbar=  1.00999185650828E+05
 cg2d: Sum(rhs),rhsMax =  -7.39848067835455E+01  1.12604400751582E+00
(PID.TID 0000.0001)  ploadbar=  1.00998509440425E+05
 cg2d: Sum(rhs),rhsMax =  -7.42297441855281E+01  1.12199915520086E+00
(PID.TID 0000.0001)  ploadbar=  1.00997833230022E+05
 cg2d: Sum(rhs),rhsMax =  -7.45441181876529E+01  1.11691248713742E+00
(PID.TID 0000.0001)  ploadbar=  1.00997157019619E+05
 cg2d: Sum(rhs),rhsMax =  -7.49416871557576E+01  1.11066306993331E+00
(PID.TID 0000.0001)  ploadbar=  1.00997155143457E+05
 cg2d: Sum(rhs),rhsMax =  -7.54189740984971E+01  1.10333823560836E+00
(PID.TID 0000.0001)  ploadbar=  1.00997153267296E+05
 cg2d: Sum(rhs),rhsMax =  -7.59825163084153E+01  1.09488318550617E+00
(PID.TID 0000.0001)  ploadbar=  1.00997151391135E+05
 cg2d: Sum(rhs),rhsMax =  -7.66404993116776E+01  1.08523443274513E+00
(PID.TID 0000.0001)  ploadbar=  1.00997149514974E+05
 cg2d: Sum(rhs),rhsMax =  -7.73982160354439E+01  1.07438208060307E+00
(PID.TID 0000.0001)  ploadbar=  1.00997147638813E+05
 cg2d: Sum(rhs),rhsMax =  -7.82566282639195E+01  1.06238595735623E+00
(PID.TID 0000.0001)  ploadbar=  1.00997145762652E+05
 cg2d: Sum(rhs),rhsMax =  -7.91477811485471E+01  1.05020619373135E+00
(PID.TID 0000.0001)  ploadbar=  1.00996845375735E+05
 cg2d: Sum(rhs),rhsMax =  -8.00485807081751E+01  1.03815807357518E+00
(PID.TID 0000.0001)  ploadbar=  1.00996544988818E+05
 cg2d: Sum(rhs),rhsMax =  -8.09559276713398E+01  1.02627666670277E+00
(PID.TID 0000.0001)  ploadbar=  1.00996244601901E+05
 cg2d: Sum(rhs),rhsMax =  -8.18819015816612E+01  1.01440688222164E+00
(PID.TID 0000.0001)  ploadbar=  1.00995944214983E+05
 cg2d: Sum(rhs),rhsMax =  -8.28426920091323E+01  1.00235728267794E+00
(PID.TID 0000.0001)  ploadbar=  1.00995643828066E+05
 cg2d: Sum(rhs),rhsMax =  -8.38775636823497E+01  9.89682824609269E-01
(PID.TID 0000.0001)  ploadbar=  1.00995343441149E+05
 cg2d: Sum(rhs),rhsMax =  -8.49592446836855E+01  9.76807117174166E-01
(PID.TID 0000.0001)  ploadbar=  1.00995726503369E+05
 cg2d: Sum(rhs),rhsMax =  -8.39290433331337E+01  9.88544991552253E-01
(PID.TID 0000.0001)  ploadbar=  1.00996109565589E+05
 cg2d: Sum(rhs),rhsMax =  -8.27255938976740E+01  1.00269340976134E+00
(PID.TID 0000.0001)  ploadbar=  1.00996492627809E+05
 cg2d: Sum(rhs),rhsMax =  -8.15961635565165E+01  1.01635655972510E+00
(PID.TID 0000.0001)  ploadbar=  1.00996875690029E+05
 cg2d: Sum(rhs),rhsMax =  -8.06137915836871E+01  1.02854127794289E+00
(PID.TID 0000.0001)  ploadbar=  1.00997258752249E+05
 cg2d: Sum(rhs),rhsMax =  -7.98150276728657E+01  1.03864709893015E+00
(PID.TID 0000.0001)  ploadbar=  1.00997641814469E+05
 cg2d: Sum(rhs),rhsMax =  -7.91183592966867E+01  1.04759585678132E+00
(PID.TID 0000.0001)  ploadbar=  1.00998827148374E+05
 cg2d: Sum(rhs),rhsMax =  -7.85530780024742E+01  1.05492552985216E+00
(PID.TID 0000.0001)  ploadbar=  1.01000012482280E+05
 cg2d: Sum(rhs),rhsMax =  -7.80953467193511E+01  1.06088503278462E+00
(PID.TID 0000.0001)  ploadbar=  1.01001197816185E+05
 cg2d: Sum(rhs),rhsMax =  -7.75749664119164E+01  1.06775983042294E+00
(PID.TID 0000.0001)  ploadbar=  1.01002383150090E+05
 cg2d: Sum(rhs),rhsMax =  -7.69632390197200E+01  1.07598117943104E+00
(PID.TID 0000.0001)  ploadbar=  1.01003568483995E+05
 cg2d: Sum(rhs),rhsMax =  -7.62317999107097E+01  1.08601258614842E+00
(PID.TID 0000.0001)  ploadbar=  1.01004753817900E+05
 cg2d: Sum(rhs),rhsMax =  -7.53821573263327E+01  1.09796516913902E+00
(PID.TID 0000.0001)  ploadbar=  1.01006616038320E+05
 cg2d: Sum(rhs),rhsMax =  -7.44935169989041E+01  1.11077548741258E+00
(PID.TID 0000.0001)  ploadbar=  1.01008478258739E+05
 cg2d: Sum(rhs),rhsMax =  -7.35514807801012E+01  1.12470988505160E+00
(PID.TID 0000.0001)  ploadbar=  1.01010340479159E+05
 cg2d: Sum(rhs),rhsMax =  -7.25612049662323E+01  1.13975571334946E+00
(PID.TID 0000.0001)  ploadbar=  1.01012202699579E+05
 cg2d: Sum(rhs),rhsMax =  -7.15297222621715E+01  1.15587153136702E+00
(PID.TID 0000.0001)  ploadbar=  1.01014064919998E+05
 cg2d: Sum(rhs),rhsMax =  -7.04725077663278E+01  1.17287062281299E+00
(PID.TID 0000.0001)  ploadbar=  1.01015927140418E+05
 cg2d: Sum(rhs),rhsMax =  -6.94481116056578E+01  1.18980551192091E+00
(PID.TID 0000.0001)  ploadbar=  1.01017762508075E+05
 cg2d: Sum(rhs),rhsMax =  -6.84058216501472E+01  1.20753712917316E+00
(PID.TID 0000.0001)  ploadbar=  1.01019597875732E+05
 cg2d: Sum(rhs),rhsMax =  -6.73925091675953E+01  1.22525962497752E+00
(PID.TID 0000.0001)  ploadbar=  1.01021433243390E+05
 cg2d: Sum(rhs),rhsMax =  -6.64317832199793E+01  1.24250311553566E+00
(PID.TID 0000.0001)  ploadbar=  1.01023268611047E+05
 cg2d: Sum(rhs),rhsMax =  -6.55311923084622E+01  1.25905408599580E+00
(PID.TID 0000.0001)  ploadbar=  1.01025103978704E+05
 cg2d: Sum(rhs),rhsMax =  -6.46955794867201E+01  1.27473411488895E+00
(PID.TID 0000.0001)  ploadbar=  1.01026939346362E+05
 cg2d: Sum(rhs),rhsMax =  -6.40360858471825E+01  1.28732629851100E+00
(PID.TID 0000.0001)  ploadbar=  1.01028068267612E+05
 cg2d: Sum(rhs),rhsMax =  -6.34940145137905E+01  1.29782249591763E+00
(PID.TID 0000.0001)  ploadbar=  1.01029197188862E+05
 cg2d: Sum(rhs),rhsMax =  -6.30834266180518E+01  1.30581410987579E+00
(PID.TID 0000.0001)  ploadbar=  1.01030326110112E+05
 cg2d: Sum(rhs),rhsMax =  -6.27973677927446E+01  1.31134260319828E+00
(PID.TID 0000.0001)  ploadbar=  1.01031455031362E+05
 cg2d: Sum(rhs),rhsMax =  -6.26318218295201E+01  1.31442068968343E+00
(PID.TID 0000.0001)  ploadbar=  1.01032583952612E+05
 cg2d: Sum(rhs),rhsMax =  -6.25659384690874E+01  1.31544602297796E+00
(PID.TID 0000.0001)  ploadbar=  1.01033712873863E+05
 cg2d: Sum(rhs),rhsMax =  -6.25091183579789E+01  1.31629024832394E+00
(PID.TID 0000.0001)  ploadbar=  1.01034358757839E+05
 cg2d: Sum(rhs),rhsMax =  -6.24456493794037E+01  1.31727983120806E+00
(PID.TID 0000.0001)  ploadbar=  1.01035004641816E+05
 cg2d: Sum(rhs),rhsMax =  -6.23799268810599E+01  1.31831609657725E+00
(PID.TID 0000.0001)  ploadbar=  1.01035650525793E+05
 cg2d: Sum(rhs),rhsMax =  -6.23311292277130E+01  1.31898759547980E+00
(PID.TID 0000.0001)  ploadbar=  1.01036296409769E+05
 cg2d: Sum(rhs),rhsMax =  -6.23132458943223E+01  1.31898395234676E+00
(PID.TID 0000.0001)  ploadbar=  1.01036942293746E+05
 cg2d: Sum(rhs),rhsMax =  -6.23332062820898E+01  1.31815459999210E+00
(PID.TID 0000.0001)  ploadbar=  1.01037588177723E+05
 cg2d: Sum(rhs),rhsMax =  -6.24302433929585E+01  1.31570502326853E+00
(PID.TID 0000.0001)  ploadbar=  1.01038245893567E+05
 cg2d: Sum(rhs),rhsMax =  -6.25591880822206E+01  1.31259699787936E+00
(PID.TID 0000.0001)  ploadbar=  1.01038903609412E+05
 cg2d: Sum(rhs),rhsMax =  -6.27135281748023E+01  1.30897287737604E+00
(PID.TID 0000.0001)  ploadbar=  1.01039561325256E+05
 cg2d: Sum(rhs),rhsMax =  -6.28858633581763E+01  1.30498804620926E+00
(PID.TID 0000.0001)  ploadbar=  1.01040219041101E+05
 cg2d: Sum(rhs),rhsMax =  -6.30691309736723E+01  1.30078898392140E+00
(PID.TID 0000.0001)  ploadbar=  1.01040876756945E+05
 cg2d: Sum(rhs),rhsMax =  -6.32604579689806E+01  1.29643281082210E+00
(PID.TID 0000.0001)  ploadbar=  1.01041534472790E+05
 cg2d: Sum(rhs),rhsMax =  -6.34316309105618E+01  1.29250112326610E+00
(PID.TID 0000.0001)  ploadbar=  1.01042956337956E+05
 cg2d: Sum(rhs),rhsMax =  -6.35819556224299E+01  1.28899811549046E+00
(PID.TID 0000.0001)  ploadbar=  1.01044378203122E+05
 cg2d: Sum(rhs),rhsMax =  -6.37018174320025E+01  1.28610745438709E+00
(PID.TID 0000.0001)  ploadbar=  1.01045800068289E+05
 cg2d: Sum(rhs),rhsMax =  -6.38033754628502E+01  1.28357062117206E+00
(PID.TID 0000.0001)  ploadbar=  1.01047221933455E+05
 cg2d: Sum(rhs),rhsMax =  -6.38915784529171E+01  1.28127724249139E+00
(PID.TID 0000.0001)  ploadbar=  1.01048643798621E+05
 cg2d: Sum(rhs),rhsMax =  -6.39690504367864E+01  1.27916766692054E+00
(PID.TID 0000.0001)  ploadbar=  1.01050065663787E+05
 cg2d: Sum(rhs),rhsMax =  -6.40309485599591E+01  1.27746577107075E+00
(PID.TID 0000.0001)  ploadbar=  1.01050872219983E+05
 cg2d: Sum(rhs),rhsMax =  -6.41514556613293E+01  1.27468659835522E+00
(PID.TID 0000.0001)  ploadbar=  1.01051678776178E+05
 cg2d: Sum(rhs),rhsMax =  -6.42953166775808E+01  1.27153363247634E+00
(PID.TID 0000.0001)  ploadbar=  1.01052485332374E+05
 cg2d: Sum(rhs),rhsMax =  -6.44473901022773E+01  1.26830453756391E+00
(PID.TID 0000.0001)  ploadbar=  1.01053291888569E+05
 cg2d: Sum(rhs),rhsMax =  -6.45969884830302E+01  1.26520406741651E+00
(PID.TID 0000.0001)  ploadbar=  1.01054098444765E+05
 cg2d: Sum(rhs),rhsMax =  -6.47310832464917E+01  1.26248051914838E+00
(PID.TID 0000.0001)  ploadbar=  1.01054905000961E+05
 cg2d: Sum(rhs),rhsMax =  -6.48191600493018E+01  1.26060661405607E+00
(PID.TID 0000.0001)  ploadbar=  1.01055142205803E+05
 cg2d: Sum(rhs),rhsMax =  -6.49149953876305E+01  1.25852382484411E+00
(PID.TID 0000.0001)  ploadbar=  1.01055379410646E+05
 cg2d: Sum(rhs),rhsMax =  -6.50041445360481E+01  1.25651009988808E+00
(PID.TID 0000.0001)  ploadbar=  1.01055616615489E+05
 cg2d: Sum(rhs),rhsMax =  -6.51137061134082E+01  1.25403868502170E+00
(PID.TID 0000.0001)  ploadbar=  1.01055853820332E+05
 cg2d: Sum(rhs),rhsMax =  -6.52819856244735E+01  1.25037412901482E+00
(PID.TID 0000.0001)  ploadbar=  1.01056091025175E+05
 cg2d: Sum(rhs),rhsMax =  -6.55316543308919E+01  1.24510168726592E+00
(PID.TID 0000.0001)  ploadbar=  1.01056328230017E+05
 cg2d: Sum(rhs),rhsMax =  -6.58011546499488E+01  1.23952011885661E+00
(PID.TID 0000.0001)  ploadbar=  1.01056934558393E+05
 cg2d: Sum(rhs),rhsMax =  -6.61436309439892E+01  1.23264435188863E+00
(PID.TID 0000.0001)  ploadbar=  1.01057540886768E+05
 cg2d: Sum(rhs),rhsMax =  -6.65816496508736E+01  1.22409818367663E+00
(PID.TID 0000.0001)  ploadbar=  1.01058147215144E+05
 cg2d: Sum(rhs),rhsMax =  -6.71112104253530E+01  1.21401853534691E+00
(PID.TID 0000.0001)  ploadbar=  1.01058753543519E+05
 cg2d: Sum(rhs),rhsMax =  -6.77501253406981E+01  1.20216452599791E+00
(PID.TID 0000.0001)  ploadbar=  1.01059359871895E+05
 cg2d: Sum(rhs),rhsMax =  -6.85242543464317E+01  1.18818991745537E+00
(PID.TID 0000.0001)  ploadbar=  1.01059966200270E+05
 cg2d: Sum(rhs),rhsMax =  -6.94640836817465E+01  1.17170152609389E+00
(PID.TID 0000.0001)  ploadbar=  1.01060807202181E+05
 cg2d: Sum(rhs),rhsMax =  -7.04098397975165E+01  1.15552766063784E+00
(PID.TID 0000.0001)  ploadbar=  1.01061648204092E+05
 cg2d: Sum(rhs),rhsMax =  -7.13806735550599E+01  1.13934736877035E+00
(PID.TID 0000.0001)  ploadbar=  1.01062489206003E+05
 cg2d: Sum(rhs),rhsMax =  -7.23303686916378E+01  1.12388800881459E+00
(PID.TID 0000.0001)  ploadbar=  1.01063330207913E+05
 cg2d: Sum(rhs),rhsMax =  -7.32372111707103E+01  1.10943194063966E+00
(PID.TID 0000.0001)  ploadbar=  1.01064171209824E+05
 cg2d: Sum(rhs),rhsMax =  -7.40953476558778E+01  1.09600075377575E+00
(PID.TID 0000.0001)  ploadbar=  1.01065012211735E+05
 cg2d: Sum(rhs),rhsMax =  -7.49376921994013E+01  1.08317289400764E+00
(PID.TID 0000.0001)  ploadbar=  1.01065769459531E+05
 cg2d: Sum(rhs),rhsMax =  -7.57177661605257E+01  1.07157589335895E+00
(PID.TID 0000.0001)  ploadbar=  1.01066526707328E+05
 cg2d: Sum(rhs),rhsMax =  -7.63936456385282E+01  1.06171943074873E+00
(PID.TID 0000.0001)  ploadbar=  1.01067283955124E+05
 cg2d: Sum(rhs),rhsMax =  -7.65737945157816E+01  1.05889780044931E+00
(PID.TID 0000.0001)  ploadbar=  1.01068041202920E+05
 cg2d: Sum(rhs),rhsMax =  -7.60516638793818E+01  1.06588807560942E+00
(PID.TID 0000.0001)  ploadbar=  1.01068798450716E+05
 cg2d: Sum(rhs),rhsMax =  -7.53590344887914E+01  1.07544303191854E+00
(PID.TID 0000.0001)  ploadbar=  1.01069555698513E+05
 cg2d: Sum(rhs),rhsMax =  -7.45945773401208E+01  1.08620395988124E+00
(PID.TID 0000.0001)  ploadbar=  1.01070053604455E+05
 cg2d: Sum(rhs),rhsMax =  -7.38311060847231E+01  1.09715227785053E+00
(PID.TID 0000.0001)  ploadbar=  1.01070551510397E+05
 cg2d: Sum(rhs),rhsMax =  -7.30733487852575E+01  1.10821947490029E+00
(PID.TID 0000.0001)  ploadbar=  1.01071049416339E+05
 cg2d: Sum(rhs),rhsMax =  -7.23255530248431E+01  1.11933727404986E+00
(PID.TID 0000.0001)  ploadbar=  1.01071547322281E+05
 cg2d: Sum(rhs),rhsMax =  -7.14195243017397E+01  1.13316106486693E+00
(PID.TID 0000.0001)  ploadbar=  1.01072045228223E+05
 cg2d: Sum(rhs),rhsMax =  -7.03682107826702E+01  1.14967250639940E+00
(PID.TID 0000.0001)  ploadbar=  1.01072543134166E+05
 cg2d: Sum(rhs),rhsMax =  -6.94800878419164E+01  1.16397862063250E+00
(PID.TID 0000.0001)  ploadbar=  1.01074510121100E+05
 cg2d: Sum(rhs),rhsMax =  -6.86525992425947E+01  1.17764644154441E+00
(PID.TID 0000.0001)  ploadbar=  1.01076477108034E+05
 cg2d: Sum(rhs),rhsMax =  -6.79255829424047E+01  1.18991235234957E+00
(PID.TID 0000.0001)  ploadbar=  1.01078444094969E+05
 cg2d: Sum(rhs),rhsMax =  -6.74054767092337E+01  1.19877899525910E+00
(PID.TID 0000.0001)  ploadbar=  1.01080411081903E+05
 cg2d: Sum(rhs),rhsMax =  -6.70120204179361E+01  1.20551852065891E+00
(PID.TID 0000.0001)  ploadbar=  1.01082378068837E+05
 cg2d: Sum(rhs),rhsMax =  -6.66832340699174E+01  1.21117671528358E+00
(PID.TID 0000.0001)  ploadbar=  1.01084345055772E+05
 cg2d: Sum(rhs),rhsMax =  -6.65144876140240E+01  1.21392008789762E+00
(PID.TID 0000.0001)  ploadbar=  1.01084471041339E+05
 cg2d: Sum(rhs),rhsMax =  -6.64202724750020E+01  1.21526402179128E+00
(PID.TID 0000.0001)  ploadbar=  1.01084597026907E+05
 cg2d: Sum(rhs),rhsMax =  -6.63579734642778E+01  1.21596965883420E+00
(PID.TID 0000.0001)  ploadbar=  1.01084723012474E+05
 cg2d: Sum(rhs),rhsMax =  -6.63263452277245E+01  1.21604973912931E+00
(PID.TID 0000.0001)  ploadbar=  1.01084848998042E+05
 cg2d: Sum(rhs),rhsMax =  -6.63256438954308E+01  1.21549436320796E+00
(PID.TID 0000.0001)  ploadbar=  1.01084974983609E+05
 cg2d: Sum(rhs),rhsMax =  -6.63577813611778E+01  1.21426334120381E+00
(PID.TID 0000.0001)  ploadbar=  1.01085100969177E+05
 cg2d: Sum(rhs),rhsMax =  -6.65284635079960E+01  1.21054031996187E+00
(PID.TID 0000.0001)  ploadbar=  1.01084027399717E+05
 cg2d: Sum(rhs),rhsMax =  -6.68076891325435E+01  1.20490694042044E+00
(PID.TID 0000.0001)  ploadbar=  1.01082953830258E+05
 cg2d: Sum(rhs),rhsMax =  -6.72059441218771E+01  1.19722045062085E+00
(PID.TID 0000.0001)  ploadbar=  1.01081880260798E+05
 cg2d: Sum(rhs),rhsMax =  -6.77213804189387E+01  1.18758458127781E+00
(PID.TID 0000.0001)  ploadbar=  1.01080806691338E+05
 cg2d: Sum(rhs),rhsMax =  -6.83063998489563E+01  1.17690619943750E+00
(PID.TID 0000.0001)  ploadbar=  1.01079733121878E+05
 cg2d: Sum(rhs),rhsMax =  -6.89057519531307E+01  1.16617174609657E+00
(PID.TID 0000.0001)  ploadbar=  1.01078659552419E+05
 cg2d: Sum(rhs),rhsMax =  -6.95285528941110E+01  1.15524500762345E+00
(PID.TID 0000.0001)  ploadbar=  1.01079013982376E+05
 cg2d: Sum(rhs),rhsMax =  -7.00859064116276E+01  1.14558930826280E+00
(PID.TID 0000.0001)  ploadbar=  1.01079368412333E+05
 cg2d: Sum(rhs),rhsMax =  -7.06357225601148E+01  1.13620823528217E+00
(PID.TID 0000.0001)  ploadbar=  1.01079722842289E+05
 cg2d: Sum(rhs),rhsMax =  -7.12115833851528E+01  1.12655348833831E+00
(PID.TID 0000.0001)  ploadbar=  1.01080077272246E+05
 cg2d: Sum(rhs),rhsMax =  -7.15518018979132E+01  1.12072174782236E+00
(PID.TID 0000.0001)  ploadbar=  1.01080431702203E+05
 cg2d: Sum(rhs),rhsMax =  -7.17287983742167E+01  1.11746668987957E+00
(PID.TID 0000.0001)  ploadbar=  1.01080786132160E+05
 cg2d: Sum(rhs),rhsMax =  -7.19187916958505E+01  1.11402908003533E+00
(PID.TID 0000.0001)  ploadbar=  1.01081714314280E+05
 cg2d: Sum(rhs),rhsMax =  -7.16787493706995E+01  1.11727318021441E+00
(PID.TID 0000.0001)  ploadbar=  1.01082642496401E+05
 cg2d: Sum(rhs),rhsMax =  -7.09419237353686E+01  1.12838330968614E+00
(PID.TID 0000.0001)  ploadbar=  1.01083570678521E+05
 cg2d: Sum(rhs),rhsMax =  -7.00751236325343E+01  1.14183413824531E+00
(PID.TID 0000.0001)  ploadbar=  1.01084498860641E+05
 cg2d: Sum(rhs),rhsMax =  -6.90894476441147E+01  1.15759851860045E+00
(PID.TID 0000.0001)  ploadbar=  1.01085427042761E+05
 cg2d: Sum(rhs),rhsMax =  -6.80280827480363E+01  1.17510486960856E+00
(PID.TID 0000.0001)  ploadbar=  1.01086355224881E+05
 cg2d: Sum(rhs),rhsMax =  -6.70289267536415E+01  1.19203447954166E+00
(PID.TID 0000.0001)  ploadbar=  1.01087527180182E+05
 cg2d: Sum(rhs),rhsMax =  -6.62060626819690E+01  1.20622639139603E+00
(PID.TID 0000.0001)  ploadbar=  1.01088699135483E+05
 cg2d: Sum(rhs),rhsMax =  -6.55293190036586E+01  1.21801571195458E+00
(PID.TID 0000.0001)  ploadbar=  1.01089871090784E+05
 cg2d: Sum(rhs),rhsMax =  -6.49806248166510E+01  1.22758028825322E+00
(PID.TID 0000.0001)  ploadbar=  1.01091043046085E+05
 cg2d: Sum(rhs),rhsMax =  -6.45300264618151E+01  1.23537180212392E+00
(PID.TID 0000.0001)  ploadbar=  1.01092215001387E+05
 cg2d: Sum(rhs),rhsMax =  -6.40860989838041E+01  1.24308103112345E+00
(PID.TID 0000.0001)  ploadbar=  1.01093386956688E+05
 cg2d: Sum(rhs),rhsMax =  -6.35829987024066E+01  1.25215719591770E+00
(PID.TID 0000.0001)  ploadbar=  1.01093934275655E+05
 cg2d: Sum(rhs),rhsMax =  -6.30813695259284E+01  1.26143985337898E+00
(PID.TID 0000.0001)  ploadbar=  1.01094481594621E+05
 cg2d: Sum(rhs),rhsMax =  -6.25774527114881E+01  1.27100514757867E+00
(PID.TID 0000.0001)  ploadbar=  1.01095028913588E+05
 cg2d: Sum(rhs),rhsMax =  -6.20813773110433E+01  1.28064553800217E+00
(PID.TID 0000.0001)  ploadbar=  1.01095576232555E+05
 cg2d: Sum(rhs),rhsMax =  -6.16033306907092E+01  1.29013697773250E+00
(PID.TID 0000.0001)  ploadbar=  1.01096123551522E+05
 cg2d: Sum(rhs),rhsMax =  -6.11452299805957E+01  1.29941797823289E+00
(PID.TID 0000.0001)  ploadbar=  1.01096670870488E+05
 cg2d: Sum(rhs),rhsMax =  -6.07801050679862E+01  1.30683327299825E+00
(PID.TID 0000.0001)  ploadbar=  1.01096337074794E+05
 cg2d: Sum(rhs),rhsMax =  -6.04705850819079E+01  1.31312052914435E+00
(PID.TID 0000.0001)  ploadbar=  1.01096003279100E+05
 cg2d: Sum(rhs),rhsMax =  -6.02034245468159E+01  1.31852879645631E+00
(PID.TID 0000.0001)  ploadbar=  1.01095669483405E+05
 cg2d: Sum(rhs),rhsMax =  -5.99697707371786E+01  1.32322528148468E+00
(PID.TID 0000.0001)  ploadbar=  1.01095335687711E+05
 cg2d: Sum(rhs),rhsMax =  -5.97773275751919E+01  1.32701976413085E+00
(PID.TID 0000.0001)  ploadbar=  1.01095001892016E+05
 cg2d: Sum(rhs),rhsMax =  -5.96228295355723E+01  1.32996609978450E+00
(PID.TID 0000.0001)  ploadbar=  1.01094668096322E+05
 cg2d: Sum(rhs),rhsMax =  -5.95033267575891E+01  1.33217159655811E+00
(PID.TID 0000.0001)  ploadbar=  1.01093309258648E+05
 cg2d: Sum(rhs),rhsMax =  -5.94017260994527E+01  1.33400790736646E+00
(PID.TID 0000.0001)  ploadbar=  1.01091950420974E+05
 cg2d: Sum(rhs),rhsMax =  -5.93124331089747E+01  1.33559591249674E+00
(PID.TID 0000.0001)  ploadbar=  1.01090591583300E+05
 cg2d: Sum(rhs),rhsMax =  -5.92272210575894E+01  1.33711849968164E+00
(PID.TID 0000.0001)  ploadbar=  1.01089232745626E+05
 cg2d: Sum(rhs),rhsMax =  -5.91475627278486E+01  1.33853875889051E+00
(PID.TID 0000.0001)  ploadbar=  1.01087873907952E+05
 cg2d: Sum(rhs),rhsMax =  -5.90753214426890E+01  1.33980986638052E+00
(PID.TID 0000.0001)  ploadbar=  1.01086515070279E+05
 cg2d: Sum(rhs),rhsMax =  -5.89384633291119E+01  1.34252306352186E+00
(PID.TID 0000.0001)  ploadbar=  1.01085805978213E+05
 cg2d: Sum(rhs),rhsMax =  -5.88126309046800E+01  1.34495938239380E+00
(PID.TID 0000.0001)  ploadbar=  1.01085096886148E+05
 cg2d: Sum(rhs),rhsMax =  -5.86910440896173E+01  1.34726616026491E+00
(PID.TID 0000.0001)  ploadbar=  1.01084387794083E+05
 cg2d: Sum(rhs),rhsMax =  -5.85725234395973E+01  1.34946029754633E+00
(PID.TID 0000.0001)  ploadbar=  1.01083678702017E+05
 cg2d: Sum(rhs),rhsMax =  -5.84572919638316E+01  1.35152704623028E+00
(PID.TID 0000.0001)  ploadbar=  1.01082969609952E+05
 cg2d: Sum(rhs),rhsMax =  -5.83494997232402E+01  1.35336799346696E+00
(PID.TID 0000.0001)  ploadbar=  1.01082260517887E+05
 cg2d: Sum(rhs),rhsMax =  -5.82762073035602E+01  1.35443235472291E+00
(PID.TID 0000.0001)  ploadbar=  1.01081551742602E+05
 cg2d: Sum(rhs),rhsMax =  -5.82263715255681E+01  1.35496493785066E+00
(PID.TID 0000.0001)  ploadbar=  1.01080842967317E+05
 cg2d: Sum(rhs),rhsMax =  -5.82028595765106E+01  1.35489272603602E+00
(PID.TID 0000.0001)  ploadbar=  1.01080134192032E+05
 cg2d: Sum(rhs),rhsMax =  -5.82045348243815E+01  1.35423300396993E+00
(PID.TID 0000.0001)  ploadbar=  1.01079425416748E+05
 cg2d: Sum(rhs),rhsMax =  -5.82413384744240E+01  1.35275184926701E+00
(PID.TID 0000.0001)  ploadbar=  1.01078716641463E+05
 cg2d: Sum(rhs),rhsMax =  -5.83114377405845E+01  1.35048858305439E+00
(PID.TID 0000.0001)  ploadbar=  1.01078007866178E+05
 cg2d: Sum(rhs),rhsMax =  -5.84532086083773E+01  1.34657205181470E+00
(PID.TID 0000.0001)  ploadbar=  1.01078023832371E+05
 cg2d: Sum(rhs),rhsMax =  -5.86527454290168E+01  1.34134256884638E+00
(PID.TID 0000.0001)  ploadbar=  1.01078039798563E+05
 cg2d: Sum(rhs),rhsMax =  -5.89016153808128E+01  1.33501789797538E+00
(PID.TID 0000.0001)  ploadbar=  1.01078055764756E+05
 cg2d: Sum(rhs),rhsMax =  -5.91876421561494E+01  1.32789876464629E+00
(PID.TID 0000.0001)  ploadbar=  1.01078071730948E+05
 cg2d: Sum(rhs),rhsMax =  -5.94987336792748E+01  1.32027580965009E+00
(PID.TID 0000.0001)  ploadbar=  1.01078087697141E+05
 cg2d: Sum(rhs),rhsMax =  -5.98341638406542E+01  1.31217899369135E+00
(PID.TID 0000.0001)  ploadbar=  1.01078103663334E+05
 cg2d: Sum(rhs),rhsMax =  -6.05368655040532E+01  1.29628340138147E+00
(PID.TID 0000.0001)  ploadbar=  1.01078633801942E+05
 cg2d: Sum(rhs),rhsMax =  -6.15725435611918E+01  1.27384555086934E+00
(PID.TID 0000.0001)  ploadbar=  1.01079163940551E+05
 cg2d: Sum(rhs),rhsMax =  -6.28027817801736E+01  1.24828642760575E+00
(PID.TID 0000.0001)  ploadbar=  1.01079694079159E+05
 cg2d: Sum(rhs),rhsMax =  -6.43015770058601E+01  1.21860818899175E+00
(PID.TID 0000.0001)  ploadbar=  1.01080224217768E+05
 cg2d: Sum(rhs),rhsMax =  -6.61224395819501E+01  1.18448854526201E+00
(PID.TID 0000.0001)  ploadbar=  1.01080754356376E+05
 cg2d: Sum(rhs),rhsMax =  -6.83119335834438E+01  1.14597587093501E+00
(PID.TID 0000.0001)  ploadbar=  1.01081284494984E+05
 cg2d: Sum(rhs),rhsMax =  -6.71207860761669E+01  1.16573832402975E+00
(PID.TID 0000.0001)  ploadbar=  1.01080632987383E+05
 cg2d: Sum(rhs),rhsMax =  -6.49972109046727E+01  1.20321075092022E+00
(PID.TID 0000.0001)  ploadbar=  1.01079981479781E+05
 cg2d: Sum(rhs),rhsMax =  -6.29607882129317E+01  1.24146649369683E+00
(PID.TID 0000.0001)  ploadbar=  1.01079329972179E+05
 cg2d: Sum(rhs),rhsMax =  -6.08157904503936E+01  1.28453653822864E+00
(PID.TID 0000.0001)  ploadbar=  1.01078678464577E+05
 cg2d: Sum(rhs),rhsMax =  -5.86099859585484E+01  1.33209582709175E+00
(PID.TID 0000.0001)  ploadbar=  1.01078026956975E+05
 cg2d: Sum(rhs),rhsMax =  -5.64054175455201E+01  1.38329469700157E+00
(PID.TID 0000.0001)  ploadbar=  1.01077375449373E+05
 cg2d: Sum(rhs),rhsMax =  -5.43463063332907E+01  1.43488515172541E+00
(PID.TID 0000.0001)  ploadbar=  1.01075474557824E+05
 cg2d: Sum(rhs),rhsMax =  -5.24523447794973E+01  1.48592334850877E+00
(PID.TID 0000.0001)  ploadbar=  1.01073573666274E+05
 cg2d: Sum(rhs),rhsMax =  -5.07333163393355E+01  1.53554647863269E+00
(PID.TID 0000.0001)  ploadbar=  1.01071672774725E+05
 cg2d: Sum(rhs),rhsMax =  -4.91930167011637E+01  1.58294906571490E+00
(PID.TID 0000.0001)  ploadbar=  1.01069771883175E+05
 cg2d: Sum(rhs),rhsMax =  -4.78201695300377E+01  1.62776288365352E+00
(PID.TID 0000.0001)  ploadbar=  1.01067870991626E+05
 cg2d: Sum(rhs),rhsMax =  -4.66000875702632E+01  1.66979416581752E+00
(PID.TID 0000.0001)  ploadbar=  1.01065970100077E+05
 cg2d: Sum(rhs),rhsMax =  -4.55127847738877E+01  1.70909512195110E+00
(PID.TID 0000.0001)  ploadbar=  1.01065727786269E+05
 cg2d: Sum(rhs),rhsMax =  -4.45236703439585E+01  1.74646094828642E+00
(PID.TID 0000.0001)  ploadbar=  1.01065485472462E+05
 cg2d: Sum(rhs),rhsMax =  -4.36170650900740E+01  1.78213827811692E+00
(PID.TID 0000.0001)  ploadbar=  1.01065243158654E+05
 cg2d: Sum(rhs),rhsMax =  -4.27871499511061E+01  1.81605130918793E+00
(PID.TID 0000.0001)  ploadbar=  1.01065000844847E+05
 cg2d: Sum(rhs),rhsMax =  -4.20300604325350E+01  1.84807163871232E+00
(PID.TID 0000.0001)  ploadbar=  1.01064758531039E+05
 cg2d: Sum(rhs),rhsMax =  -4.13423876446136E+01  1.87807629712802E+00
(PID.TID 0000.0001)  ploadbar=  1.01064516217232E+05
 cg2d: Sum(rhs),rhsMax =  -4.07231026468717E+01  1.90592603501427E+00
(PID.TID 0000.0001)  ploadbar=  1.01064454050655E+05
 cg2d: Sum(rhs),rhsMax =  -4.01747453611733E+01  1.93125327989374E+00
(PID.TID 0000.0001)  ploadbar=  1.01064391884078E+05
 cg2d: Sum(rhs),rhsMax =  -3.96842448693068E+01  1.95445764462070E+00
(PID.TID 0000.0001)  ploadbar=  1.01064329717502E+05
 cg2d: Sum(rhs),rhsMax =  -3.92426852266218E+01  1.97580096955443E+00
(PID.TID 0000.0001)  ploadbar=  1.01064267550925E+05
 cg2d: Sum(rhs),rhsMax =  -3.88442295520230E+01  1.99542977521126E+00
(PID.TID 0000.0001)  ploadbar=  1.01064205384349E+05
 cg2d: Sum(rhs),rhsMax =  -3.84820370860619E+01  2.01357278469075E+00
(PID.TID 0000.0001)  ploadbar=  1.01064143217772E+05
 cg2d: Sum(rhs),rhsMax =  -3.81460930078530E+01  2.03067155387352E+00
(PID.TID 0000.0001)  ploadbar=  1.01064622936013E+05
 cg2d: Sum(rhs),rhsMax =  -3.78316951619397E+01  2.04690748575880E+00
(PID.TID 0000.0001)  ploadbar=  1.01065102654253E+05
 cg2d: Sum(rhs),rhsMax =  -3.76195264504897E+01  2.05779827354796E+00
(PID.TID 0000.0001)  ploadbar=  1.01065582372494E+05
 cg2d: Sum(rhs),rhsMax =  -3.74042119149919E+01  2.06896778344890E+00
(PID.TID 0000.0001)  ploadbar=  1.01066062090735E+05
 cg2d: Sum(rhs),rhsMax =  -3.71922285337674E+01  2.08005093707561E+00
(PID.TID 0000.0001)  ploadbar=  1.01066541808976E+05
 cg2d: Sum(rhs),rhsMax =  -3.69943851083148E+01  2.09042731002330E+00
(PID.TID 0000.0001)  ploadbar=  1.01067021527216E+05
 cg2d: Sum(rhs),rhsMax =  -3.68063427039037E+01  2.10046949915158E+00
(PID.TID 0000.0001)  ploadbar=  1.01067275573142E+05
 cg2d: Sum(rhs),rhsMax =  -3.66381951675133E+01  2.10957483030746E+00
(PID.TID 0000.0001)  ploadbar=  1.01067529619069E+05
 cg2d: Sum(rhs),rhsMax =  -3.64931153696007E+01  2.11751840850700E+00
(PID.TID 0000.0001)  ploadbar=  1.01067783664995E+05
 cg2d: Sum(rhs),rhsMax =  -3.63620824390323E+01  2.12478146692682E+00
(PID.TID 0000.0001)  ploadbar=  1.01068037710921E+05
 cg2d: Sum(rhs),rhsMax =  -3.62570773741173E+01  2.13063056365029E+00
(PID.TID 0000.0001)  ploadbar=  1.01068291756847E+05
 cg2d: Sum(rhs),rhsMax =  -3.61868394191725E+01  2.13451432969620E+00
(PID.TID 0000.0001)  ploadbar=  1.01068545802773E+05
 cg2d: Sum(rhs),rhsMax =  -3.61274582872583E+01  2.13778576974012E+00
(PID.TID 0000.0001)  ploadbar=  1.01069078380097E+05
 cg2d: Sum(rhs),rhsMax =  -3.59624378153603E+01  2.14736157764533E+00
(PID.TID 0000.0001)      cg2d_init_res =   1.61667769754814E-01
(PID.TID 0000.0001)      cg2d_iters(min,last) =      -1     141
(PID.TID 0000.0001)      cg2d_last_res =   9.13912622975323E-08
(PID.TID 0000.0001) // =======================================================
(PID.TID 0000.0001) // Begin MONITOR dynamic field statistics
(PID.TID 0000.0001) // =======================================================
(PID.TID 0000.0001) %MON time_tsnumber                =                  1752
(PID.TID 0000.0001) %MON time_secondsf                =   6.3072000000000E+06
(PID.TID 0000.0001) %MON dynstat_eta_max              =   1.2570119089004E+00
(PID.TID 0000.0001) %MON dynstat_eta_min              =  -6.2153892533860E+00
(PID.TID 0000.0001) %MON dynstat_eta_mean             =   3.9085648905093E-02
(PID.TID 0000.0001) %MON dynstat_eta_sd               =   7.3339106304377E-01
(PID.TID 0000.0001) %MON dynstat_eta_del2             =   2.1512112639800E-04
(PID.TID 0000.0001) %MON dynstat_uvel_max             =   6.8694496922811E-01
(PID.TID 0000.0001) %MON dynstat_uvel_min             =  -7.2233326025547E-01
(PID.TID 0000.0001) %MON dynstat_uvel_mean            =   1.3440704737157E-03
(PID.TID 0000.0001) %MON dynstat_uvel_sd              =   2.0176347457098E-02
(PID.TID 0000.0001) %MON dynstat_uvel_del2            =   8.7818616871031E-06
(PID.TID 0000.0001) %MON dynstat_vvel_max             =   6.7440341509274E-01
(PID.TID 0000.0001) %MON dynstat_vvel_min             =  -9.1457613033201E-01
(PID.TID 0000.0001) %MON dynstat_vvel_mean            =   1.0701682939892E-03
(PID.TID 0000.0001) %MON dynstat_vvel_sd              =   2.1696111552842E-02
(PID.TID 0000.0001) %MON dynstat_vvel_del2            =   8.9013787061537E-06
(PID.TID 0000.0001) %MON dynstat_wvel_max             =   5.4196854592901E-04
(PID.TID 0000.0001) %MON dynstat_wvel_min             =  -9.6877568350200E-04
(PID.TID 0000.0001) %MON dynstat_wvel_mean            =   7.2041389119495E-09
(PID.TID 0000.0001) %MON dynstat_wvel_sd              =   2.1664400186531E-05
(PID.TID 0000.0001) %MON dynstat_wvel_del2            =   1.5626532420712E-08
(PID.TID 0000.0001) %MON dynstat_theta_max            =   3.1699320072545E+01
(PID.TID 0000.0001) %MON dynstat_theta_min            =  -2.0289269957897E+00
(PID.TID 0000.0001) %MON dynstat_theta_mean           =   3.5868875021819E+00
(PID.TID 0000.0001) %MON dynstat_theta_sd             =   4.4399502073768E+00
(PID.TID 0000.0001) %MON dynstat_theta_del2           =   8.7486307235739E-05
(PID.TID 0000.0001) %MON dynstat_salt_max             =   4.0641562600685E+01
(PID.TID 0000.0001) %MON dynstat_salt_min             =   2.5618251471495E+01
(PID.TID 0000.0001) %MON dynstat_salt_mean            =   3.4727280996377E+01
(PID.TID 0000.0001) %MON dynstat_salt_sd              =   3.7799223833044E-01
(PID.TID 0000.0001) %MON dynstat_salt_del2            =   2.0444374625132E-05
(PID.TID 0000.0001) %MON dynstat_sst_max              =   3.1683961777736E+01
(PID.TID 0000.0001) %MON dynstat_sst_min              =  -1.9662719697356E+00
(PID.TID 0000.0001) %MON dynstat_sst_mean             =   1.8461116633211E+01
(PID.TID 0000.0001) %MON dynstat_sst_sd               =   1.0199007739227E+01
(PID.TID 0000.0001) %MON dynstat_sst_del2             =   6.7979941719467E-04
(PID.TID 0000.0001) %MON dynstat_sss_max              =   4.0578362419903E+01
(PID.TID 0000.0001) %MON dynstat_sss_min              =   2.5618251471495E+01
(PID.TID 0000.0001) %MON dynstat_sss_mean             =   3.4752433160225E+01
(PID.TID 0000.0001) %MON dynstat_sss_sd               =   1.1854583802472E+00
(PID.TID 0000.0001) %MON dynstat_sss_del2             =   3.3339014423077E-04
(PID.TID 0000.0001) %MON forcing_qnet_max             =   7.6024964615744E+02
(PID.TID 0000.0001) %MON forcing_qnet_min             =  -5.5529529381426E+02
(PID.TID 0000.0001) %MON forcing_qnet_mean            =   1.4623798156871E+01
(PID.TID 0000.0001) %MON forcing_qnet_sd              =   1.8255234008642E+02
(PID.TID 0000.0001) %MON forcing_qnet_del2            =   9.0226880540492E-02
(PID.TID 0000.0001) %MON forcing_qsw_max              =   7.9450719661707E+01
(PID.TID 0000.0001) %MON forcing_qsw_min              =  -6.2460430722840E+02
(PID.TID 0000.0001) %MON forcing_qsw_mean             =  -1.4635802075640E+02
(PID.TID 0000.0001) %MON forcing_qsw_sd               =   1.6129206110212E+02
(PID.TID 0000.0001) %MON forcing_qsw_del2             =   4.5961165353834E-02
(PID.TID 0000.0001) %MON forcing_empmr_max            =   1.4634036130051E-03
(PID.TID 0000.0001) %MON forcing_empmr_min            =  -4.3111243179068E-03
(PID.TID 0000.0001) %MON forcing_empmr_mean           =   1.2165257198689E-06
(PID.TID 0000.0001) %MON forcing_empmr_sd             =   1.0491462061709E-04
(PID.TID 0000.0001) %MON forcing_empmr_del2           =   2.7241022265307E-07
(PID.TID 0000.0001) %MON forcing_fu_max               =   1.0611406069926E+00
(PID.TID 0000.0001) %MON forcing_fu_min               =  -1.0520294507345E+00
(PID.TID 0000.0001) %MON forcing_fu_mean              =   1.2581132076323E-02
(PID.TID 0000.0001) %MON forcing_fu_sd                =   1.0402199625766E-01
(PID.TID 0000.0001) %MON forcing_fu_del2              =   8.1621638510389E-05
(PID.TID 0000.0001) %MON forcing_fv_max               =   9.0132539470991E-01
(PID.TID 0000.0001) %MON forcing_fv_min               =  -9.6669288792993E-01
(PID.TID 0000.0001) %MON forcing_fv_mean              =   1.1791784894738E-03
(PID.TID 0000.0001) %MON forcing_fv_sd                =   1.1088397286963E-01
(PID.TID 0000.0001) %MON forcing_fv_del2              =   6.8149865529578E-05
(PID.TID 0000.0001) %MON trAdv_CFL_u_max              =   5.9617595754875E-02
(PID.TID 0000.0001) %MON trAdv_CFL_v_max              =   5.2706356914512E-02
(PID.TID 0000.0001) %MON trAdv_CFL_w_max              =   1.0240845604382E-01
(PID.TID 0000.0001) %MON advcfl_uvel_max              =   5.6548888677477E-02
(PID.TID 0000.0001) %MON advcfl_vvel_max              =   4.2334357257106E-02
(PID.TID 0000.0001) %MON advcfl_wvel_max              =   1.0532603630993E-01
(PID.TID 0000.0001) %MON advcfl_W_hf_max              =   1.0626330643430E-01
(PID.TID 0000.0001) %MON pe_b_mean                    =   1.3904995162609E-03
(PID.TID 0000.0001) %MON ke_max                       =   5.2239450663917E-01
(PID.TID 0000.0001) %MON ke_mean                      =   4.2469852279418E-04
(PID.TID 0000.0001) %MON ke_vol                       =   1.3350118716671E+18
(PID.TID 0000.0001) %MON vort_r_min                   =  -2.1063361011967E-05
(PID.TID 0000.0001) %MON vort_r_max                   =   1.7805541550159E-05
(PID.TID 0000.0001) %MON vort_a_mean                  =  -1.9727725400725E-05
(PID.TID 0000.0001) %MON vort_a_sd                    =   7.4542938331404E-05
(PID.TID 0000.0001) %MON vort_p_mean                  =  -2.1760097618635E-05
(PID.TID 0000.0001) %MON vort_p_sd                    =   9.7248113224430E-05
(PID.TID 0000.0001) %MON surfExpan_theta_mean         =   2.4961725853102E-07
(PID.TID 0000.0001) %MON surfExpan_salt_mean          =   6.2522390720924E-09
(PID.TID 0000.0001) // =======================================================
(PID.TID 0000.0001) // End MONITOR dynamic field statistics
(PID.TID 0000.0001) // =======================================================
(PID.TID 0000.0001)  ploadbar=  1.01069610957421E+05
(PID.TID 0000.0001) %SBO sbo_mass                     =   1.3737507843160E+21
(PID.TID 0000.0001) %SBO sbo_mass_fw                  =   3.7968945474889E+16
(PID.TID 0000.0001) %SBO sbo_zoamc                    =   1.0547919425497E+25
(PID.TID 0000.0001) %SBO sbo_zoamp                    =   2.9276525473533E+30
(PID.TID 0000.0001) // =======================================================
(PID.TID 0000.0001) // Begin MONITOR SEAICE statistics
(PID.TID 0000.0001) // =======================================================
(PID.TID 0000.0001) %MON seaice_tsnumber              =                  1752
(PID.TID 0000.0001) %MON seaice_time_sec              =   6.3072000000000E+06
(PID.TID 0000.0001) %MON seaice_uice_max              =   4.0000000000000E-01
(PID.TID 0000.0001) %MON seaice_uice_min              =  -4.0000000000000E-01
(PID.TID 0000.0001) %MON seaice_uice_mean             =   2.4698038744052E-03
(PID.TID 0000.0001) %MON seaice_uice_sd               =   1.6327644756840E-01
(PID.TID 0000.0001) %MON seaice_uice_del2             =   1.4263954167625E-04
(PID.TID 0000.0001) %MON seaice_vice_max              =   4.0000000000000E-01
(PID.TID 0000.0001) %MON seaice_vice_min              =  -4.0000000000000E-01
(PID.TID 0000.0001) %MON seaice_vice_mean             =  -9.2907343493080E-03
(PID.TID 0000.0001) %MON seaice_vice_sd               =   1.7624680762519E-01
(PID.TID 0000.0001) %MON seaice_vice_del2             =   1.4385707704369E-04
(PID.TID 0000.0001) %MON seaice_area_max              =   9.7000000000000E-01
(PID.TID 0000.0001) %MON seaice_area_min              =   0.0000000000000E+00
(PID.TID 0000.0001) %MON seaice_area_mean             =   4.9089904310381E-02
(PID.TID 0000.0001) %MON seaice_area_sd               =   2.0430135211409E-01
(PID.TID 0000.0001) %MON seaice_area_del2             =   2.2730570463177E-04
(PID.TID 0000.0001) %MON seaice_heff_max              =   6.0769871632746E+00
(PID.TID 0000.0001) %MON seaice_heff_min              =   0.0000000000000E+00
(PID.TID 0000.0001) %MON seaice_heff_mean             =   6.9506078401030E-02
(PID.TID 0000.0001) %MON seaice_heff_sd               =   3.6461203758030E-01
(PID.TID 0000.0001) %MON seaice_heff_del2             =   2.2277778029467E-04
(PID.TID 0000.0001) %MON seaice_hsnow_max             =   1.0516978814338E+00
(PID.TID 0000.0001) %MON seaice_hsnow_min             =  -7.8859308903856E-05
(PID.TID 0000.0001) %MON seaice_hsnow_mean            =   7.8325351493866E-03
(PID.TID 0000.0001) %MON seaice_hsnow_sd              =   4.5740853415849E-02
(PID.TID 0000.0001) %MON seaice_hsnow_del2            =   4.4082885692221E-05
(PID.TID 0000.0001) // =======================================================
(PID.TID 0000.0001) // End MONITOR SEAICE statistics
(PID.TID 0000.0001) // =======================================================
(PID.TID 0000.0001) // =======================================================
(PID.TID 0000.0001) // Begin MONITOR EXF statistics
(PID.TID 0000.0001) // =======================================================
(PID.TID 0000.0001) %MON exf_tsnumber                 =                  1752
(PID.TID 0000.0001) %MON exf_time_sec                 =   6.3072000000000E+06
(PID.TID 0000.0001) %MON exf_ustress_max              =   1.4396965275426E+00
(PID.TID 0000.0001) %MON exf_ustress_min              =  -1.0447053313255E+00
(PID.TID 0000.0001) %MON exf_ustress_mean             =   1.2650357019797E-02
(PID.TID 0000.0001) %MON exf_ustress_sd               =   1.0562586030690E-01
(PID.TID 0000.0001) %MON exf_ustress_del2             =   9.9275013429394E-05
(PID.TID 0000.0001) %MON exf_vstress_max              =   8.7365045265379E-01
(PID.TID 0000.0001) %MON exf_vstress_min              =  -9.6799236911501E-01
(PID.TID 0000.0001) %MON exf_vstress_mean             =   1.7920409026405E-03
(PID.TID 0000.0001) %MON exf_vstress_sd               =   1.1171223924807E-01
(PID.TID 0000.0001) %MON exf_vstress_del2             =   8.0868165428926E-05
(PID.TID 0000.0001) %MON exf_hflux_max                =   1.0370783091685E+03
(PID.TID 0000.0001) %MON exf_hflux_min                =  -5.1543292207588E+02
(PID.TID 0000.0001) %MON exf_hflux_mean               =   3.0093250978003E+01
(PID.TID 0000.0001) %MON exf_hflux_sd                 =   2.0014791839356E+02
(PID.TID 0000.0001) %MON exf_hflux_del2               =   4.8963547132168E-01
(PID.TID 0000.0001) %MON exf_sflux_max                =   2.3865038488194E-07
(PID.TID 0000.0001) %MON exf_sflux_min                =  -4.2819708677867E-06
(PID.TID 0000.0001) %MON exf_sflux_mean               =   4.3172146808942E-10
(PID.TID 0000.0001) %MON exf_sflux_sd                 =   9.7726540492659E-08
(PID.TID 0000.0001) %MON exf_sflux_del2               =   2.7583231343200E-10
(PID.TID 0000.0001) %MON exf_wspeed_max               =   2.1851756095886E+01
(PID.TID 0000.0001) %MON exf_wspeed_min               =   2.8774048388004E-01
(PID.TID 0000.0001) %MON exf_wspeed_mean              =   6.8613227575660E+00
(PID.TID 0000.0001) %MON exf_wspeed_sd                =   3.1794185225919E+00
(PID.TID 0000.0001) %MON exf_wspeed_del2              =   1.7451786330764E-02
(PID.TID 0000.0001) %MON exf_atemp_max                =   3.0567787494659E+02
(PID.TID 0000.0001) %MON exf_atemp_min                =   2.2366437759399E+02
(PID.TID 0000.0001) %MON exf_atemp_mean               =   2.8940862470442E+02
(PID.TID 0000.0001) %MON exf_atemp_sd                 =   1.2355167474292E+01
(PID.TID 0000.0001) %MON exf_atemp_del2               =   3.6952473533553E-02
(PID.TID 0000.0001) %MON exf_aqh_max                  =   2.1431800909340E-02
(PID.TID 0000.0001) %MON exf_aqh_min                  =   4.7269400056393E-05
(PID.TID 0000.0001) %MON exf_aqh_mean                 =   1.0997100703323E-02
(PID.TID 0000.0001) %MON exf_aqh_sd                   =   5.6985927098833E-03
(PID.TID 0000.0001) %MON exf_aqh_del2                 =   2.0939632595490E-05
(PID.TID 0000.0001) %MON exf_lwflux_max               =   2.2014491181638E+02
(PID.TID 0000.0001) %MON exf_lwflux_min               =  -4.3230160057064E+01
(PID.TID 0000.0001) %MON exf_lwflux_mean              =   4.7429845772295E+01
(PID.TID 0000.0001) %MON exf_lwflux_sd                =   2.8271194621461E+01
(PID.TID 0000.0001) %MON exf_lwflux_del2              =   1.2812830962702E-01
(PID.TID 0000.0001) %MON exf_evap_max                 =   2.3314365228417E-07
(PID.TID 0000.0001) %MON exf_evap_min                 =  -5.1112605786109E-08
(PID.TID 0000.0001) %MON exf_evap_mean                =   4.2617441325225E-08
(PID.TID 0000.0001) %MON exf_evap_sd                  =   2.7508866034459E-08
(PID.TID 0000.0001) %MON exf_evap_del2                =   9.6606721521066E-11
(PID.TID 0000.0001) %MON exf_precip_max               =   2.5613436491767E-06
(PID.TID 0000.0001) %MON exf_precip_min               =  -2.4068688375678E-08
(PID.TID 0000.0001) %MON exf_precip_mean              =   3.8557920777117E-08
(PID.TID 0000.0001) %MON exf_precip_sd                =   7.7875658877225E-08
(PID.TID 0000.0001) %MON exf_precip_del2              =   2.3293618391422E-10
(PID.TID 0000.0001) %MON exf_swflux_max               =   1.2468220105177E+02
(PID.TID 0000.0001) %MON exf_swflux_min               =  -5.7730123540225E+02
(PID.TID 0000.0001) %MON exf_swflux_mean              =  -1.5117998560389E+02
(PID.TID 0000.0001) %MON exf_swflux_sd                =   1.5529799410733E+02
(PID.TID 0000.0001) %MON exf_swflux_del2              =   3.8082656531824E-01
(PID.TID 0000.0001) %MON exf_swdown_max               =   6.2232168579102E+02
(PID.TID 0000.0001) %MON exf_swdown_min               =  -1.5688555908203E+02
(PID.TID 0000.0001) %MON exf_swdown_mean              =   1.6391441705570E+02
(PID.TID 0000.0001) %MON exf_swdown_sd                =   1.6785810344158E+02
(PID.TID 0000.0001) %MON exf_swdown_del2              =   4.1354256674674E-01
(PID.TID 0000.0001) %MON exf_lwdown_max               =   4.7533741760254E+02
(PID.TID 0000.0001) %MON exf_lwdown_min               =   7.9792095184326E+01
(PID.TID 0000.0001) %MON exf_lwdown_mean              =   3.6407876533358E+02
(PID.TID 0000.0001) %MON exf_lwdown_sd                =   6.4069810973199E+01
(PID.TID 0000.0001) %MON exf_lwdown_del2              =   6.9797162796429E-01
(PID.TID 0000.0001) %MON exf_apressure_max            =   1.0394780468750E+05
(PID.TID 0000.0001) %MON exf_apressure_min            =   9.6015500000000E+04
(PID.TID 0000.0001) %MON exf_apressure_mean           =   1.0107014353475E+05
(PID.TID 0000.0001) %MON exf_apressure_sd             =   1.0577989349368E+03
(PID.TID 0000.0001) %MON exf_apressure_del2           =   2.0679100166750E+02
(PID.TID 0000.0001) %MON exf_runoff_max               =   4.1620624112208E-06
(PID.TID 0000.0001) %MON exf_runoff_min               =   0.0000000000000E+00
(PID.TID 0000.0001) %MON exf_runoff_mean              =   3.6277990800184E-09
(PID.TID 0000.0001) %MON exf_runoff_sd                =   4.6689937897439E-08
(PID.TID 0000.0001) %MON exf_runoff_del2              =   1.4167815104061E-10
(PID.TID 0000.0001) // =======================================================
(PID.TID 0000.0001) // End MONITOR EXF statistics
(PID.TID 0000.0001) // =======================================================
 cg2d: Sum(rhs),rhsMax =  -3.58335094982270E+01  2.15484373719938E+00
(PID.TID 0000.0001)  ploadbar=  1.01070143534746E+05
 cg2d: Sum(rhs),rhsMax =  -3.57387114106916E+01  2.16029966036656E+00
(PID.TID 0000.0001)  ploadbar=  1.01070676112070E+05
 cg2d: Sum(rhs),rhsMax =  -3.56751458440637E+01  2.16386731457873E+00
(PID.TID 0000.0001)  ploadbar=  1.01071208689394E+05
 cg2d: Sum(rhs),rhsMax =  -3.56425745977551E+01  2.16553491208356E+00
(PID.TID 0000.0001)  ploadbar=  1.01071741266718E+05
 cg2d: Sum(rhs),rhsMax =  -3.56378322769364E+01  2.16555502321694E+00
(PID.TID 0000.0001)  ploadbar=  1.01071593289327E+05
 cg2d: Sum(rhs),rhsMax =  -3.56578032571848E+01  2.16411394222736E+00
(PID.TID 0000.0001)  ploadbar=  1.01071445311936E+05
 cg2d: Sum(rhs),rhsMax =  -3.56998840254152E+01  2.16136982262799E+00
(PID.TID 0000.0001)  ploadbar=  1.01071297334545E+05
 cg2d: Sum(rhs),rhsMax =  -3.57622034968081E+01  2.15744153858132E+00
(PID.TID 0000.0001)  ploadbar=  1.01071149357153E+05
 cg2d: Sum(rhs),rhsMax =  -3.58421523613359E+01  2.15248960677767E+00
(PID.TID 0000.0001)  ploadbar=  1.01071001379762E+05
 cg2d: Sum(rhs),rhsMax =  -3.59348776386983E+01  2.14680435853887E+00
(PID.TID 0000.0001)  ploadbar=  1.01070853402371E+05
 cg2d: Sum(rhs),rhsMax =  -3.60372160348123E+01  2.14050492558482E+00
(PID.TID 0000.0001)  ploadbar=  1.01070110422048E+05
 cg2d: Sum(rhs),rhsMax =  -3.61492097726733E+01  2.13359329204080E+00
(PID.TID 0000.0001)  ploadbar=  1.01069367441725E+05
 cg2d: Sum(rhs),rhsMax =  -3.62690381442889E+01  2.12617694266313E+00
(PID.TID 0000.0001)  ploadbar=  1.01068624461402E+05
 cg2d: Sum(rhs),rhsMax =  -3.63965743402860E+01  2.11826462936144E+00
(PID.TID 0000.0001)  ploadbar=  1.01067881481080E+05
 cg2d: Sum(rhs),rhsMax =  -3.65319137221274E+01  2.10985087999231E+00
(PID.TID 0000.0001)  ploadbar=  1.01067138500757E+05
 cg2d: Sum(rhs),rhsMax =  -3.66757833506543E+01  2.10090055137419E+00
(PID.TID 0000.0001)  ploadbar=  1.01066395520434E+05
 cg2d: Sum(rhs),rhsMax =  -3.68296293337648E+01  2.09153910504479E+00
(PID.TID 0000.0001)  ploadbar=  1.01065162719326E+05
 cg2d: Sum(rhs),rhsMax =  -3.69910257653784E+01  2.08191007745172E+00
(PID.TID 0000.0001)  ploadbar=  1.01063929918218E+05
 cg2d: Sum(rhs),rhsMax =  -3.71584671317230E+01  2.07209613232238E+00
(PID.TID 0000.0001)  ploadbar=  1.01062697117111E+05
 cg2d: Sum(rhs),rhsMax =  -3.73309469614522E+01  2.06214925885220E+00
(PID.TID 0000.0001)  ploadbar=  1.01061464316003E+05
 cg2d: Sum(rhs),rhsMax =  -3.75067940715010E+01  2.05215737584505E+00
(PID.TID 0000.0001)  ploadbar=  1.01060231514895E+05
 cg2d: Sum(rhs),rhsMax =  -3.76832768859109E+01  2.04225553407356E+00
(PID.TID 0000.0001)  ploadbar=  1.01058998713788E+05
 cg2d: Sum(rhs),rhsMax =  -3.78539050266718E+01  2.03274876890236E+00
(PID.TID 0000.0001)  ploadbar=  1.01057429116433E+05
 cg2d: Sum(rhs),rhsMax =  -3.80148953324301E+01  2.02382410376958E+00
(PID.TID 0000.0001)  ploadbar=  1.01055859519079E+05
 cg2d: Sum(rhs),rhsMax =  -3.81660525295557E+01  2.01546876003675E+00
(PID.TID 0000.0001)  ploadbar=  1.01054289921724E+05
 cg2d: Sum(rhs),rhsMax =  -3.83013347852765E+01  2.00797284182773E+00
(PID.TID 0000.0001)  ploadbar=  1.01052720324370E+05
 cg2d: Sum(rhs),rhsMax =  -3.84184241969415E+01  2.00142794154159E+00
(PID.TID 0000.0001)  ploadbar=  1.01051150727015E+05
 cg2d: Sum(rhs),rhsMax =  -3.85168756644763E+01  1.99582958952256E+00
(PID.TID 0000.0001)  ploadbar=  1.01049581129661E+05
 cg2d: Sum(rhs),rhsMax =  -3.85948135548476E+01  1.99133698870818E+00
(PID.TID 0000.0001)  ploadbar=  1.01047336242152E+05
 cg2d: Sum(rhs),rhsMax =  -3.86628565841799E+01  1.98738854896339E+00
(PID.TID 0000.0001)  ploadbar=  1.01045091354643E+05
 cg2d: Sum(rhs),rhsMax =  -3.87229133395099E+01  1.98387592062032E+00
(PID.TID 0000.0001)  ploadbar=  1.01042846467134E+05
 cg2d: Sum(rhs),rhsMax =  -3.87743797008601E+01  1.98081783285118E+00
(PID.TID 0000.0001)  ploadbar=  1.01040601579626E+05
 cg2d: Sum(rhs),rhsMax =  -3.88182860497992E+01  1.97814765705738E+00
(PID.TID 0000.0001)  ploadbar=  1.01038356692117E+05
 cg2d: Sum(rhs),rhsMax =  -3.88543604022124E+01  1.97586800305406E+00
(PID.TID 0000.0001)  ploadbar=  1.01036111804608E+05
 cg2d: Sum(rhs),rhsMax =  -3.88769852397780E+01  1.97426947900979E+00
(PID.TID 0000.0001)  ploadbar=  1.01035109900464E+05
 cg2d: Sum(rhs),rhsMax =  -3.88910390162008E+01  1.97309497656232E+00
(PID.TID 0000.0001)  ploadbar=  1.01034107996321E+05
 cg2d: Sum(rhs),rhsMax =  -3.89047704817585E+01  1.97191576207065E+00
(PID.TID 0000.0001)  ploadbar=  1.01033106092177E+05
 cg2d: Sum(rhs),rhsMax =  -3.89162368545773E+01  1.97081935925604E+00
(PID.TID 0000.0001)  ploadbar=  1.01032104188033E+05
 cg2d: Sum(rhs),rhsMax =  -3.89239538147140E+01  1.96986969693116E+00
(PID.TID 0000.0001)  ploadbar=  1.01031102283889E+05
 cg2d: Sum(rhs),rhsMax =  -3.89267036395400E+01  1.96912184402981E+00
(PID.TID 0000.0001)  ploadbar=  1.01030100379745E+05
 cg2d: Sum(rhs),rhsMax =  -3.89388009079889E+01  1.96803264596433E+00
(PID.TID 0000.0001)  ploadbar=  1.01028423382047E+05
 cg2d: Sum(rhs),rhsMax =  -3.89470495989916E+01  1.96726531800975E+00
(PID.TID 0000.0001)  ploadbar=  1.01026746384350E+05
 cg2d: Sum(rhs),rhsMax =  -3.89562382755244E+01  1.96656991988598E+00
(PID.TID 0000.0001)  ploadbar=  1.01025069386652E+05
 cg2d: Sum(rhs),rhsMax =  -3.89696072599340E+01  1.96577363042898E+00
(PID.TID 0000.0001)  ploadbar=  1.01023392388955E+05
 cg2d: Sum(rhs),rhsMax =  -3.89848107476969E+01  1.96498743438175E+00
(PID.TID 0000.0001)  ploadbar=  1.01021715391257E+05
 cg2d: Sum(rhs),rhsMax =  -3.89989661556200E+01  1.96435013078298E+00
(PID.TID 0000.0001)  ploadbar=  1.01020038393559E+05
 cg2d: Sum(rhs),rhsMax =  -3.90339382167911E+01  1.96264767557296E+00
(PID.TID 0000.0001)  ploadbar=  1.01019295431439E+05
 cg2d: Sum(rhs),rhsMax =  -3.90747492168622E+01  1.96062435304886E+00
(PID.TID 0000.0001)  ploadbar=  1.01018552469318E+05
 cg2d: Sum(rhs),rhsMax =  -3.91185408873704E+01  1.95841370839546E+00
(PID.TID 0000.0001)  ploadbar=  1.01017809507198E+05
 cg2d: Sum(rhs),rhsMax =  -3.91707753890962E+01  1.95573368388319E+00
(PID.TID 0000.0001)  ploadbar=  1.01017066545077E+05
 cg2d: Sum(rhs),rhsMax =  -3.92288101752969E+01  1.95270323325076E+00
(PID.TID 0000.0001)  ploadbar=  1.01016323582956E+05
 cg2d: Sum(rhs),rhsMax =  -3.92888867190284E+01  1.94949283941966E+00
(PID.TID 0000.0001)  ploadbar=  1.01015580620836E+05
 cg2d: Sum(rhs),rhsMax =  -3.93537838661124E+01  1.94607938828507E+00
(PID.TID 0000.0001)  ploadbar=  1.01015972579119E+05
 cg2d: Sum(rhs),rhsMax =  -3.94309505877969E+01  1.94208589588023E+00
(PID.TID 0000.0001)  ploadbar=  1.01016364537401E+05
 cg2d: Sum(rhs),rhsMax =  -3.95123493401486E+01  1.93790473033913E+00
(PID.TID 0000.0001)  ploadbar=  1.01016756495684E+05
 cg2d: Sum(rhs),rhsMax =  -3.95960676427708E+01  1.93362204026728E+00
(PID.TID 0000.0001)  ploadbar=  1.01017148453967E+05
 cg2d: Sum(rhs),rhsMax =  -3.96826600546778E+01  1.92920466295463E+00
(PID.TID 0000.0001)  ploadbar=  1.01017540412250E+05
 cg2d: Sum(rhs),rhsMax =  -3.97708778072581E+01  1.92470849478706E+00
(PID.TID 0000.0001)  ploadbar=  1.01017932370533E+05
 cg2d: Sum(rhs),rhsMax =  -3.98390171524229E+01  1.92112770876064E+00
(PID.TID 0000.0001)  ploadbar=  1.01017602160565E+05
 cg2d: Sum(rhs),rhsMax =  -3.99081267585114E+01  1.91743513906219E+00
(PID.TID 0000.0001)  ploadbar=  1.01017271950597E+05
 cg2d: Sum(rhs),rhsMax =  -3.99805278769682E+01  1.91350878878315E+00
(PID.TID 0000.0001)  ploadbar=  1.01016941740629E+05
 cg2d: Sum(rhs),rhsMax =  -4.00528869344911E+01  1.90950095366520E+00
(PID.TID 0000.0001)  ploadbar=  1.01016611530661E+05
 cg2d: Sum(rhs),rhsMax =  -4.01264209990369E+01  1.90534873621299E+00
(PID.TID 0000.0001)  ploadbar=  1.01016281320693E+05
 cg2d: Sum(rhs),rhsMax =  -4.02017840033323E+01  1.90101035911311E+00
(PID.TID 0000.0001)  ploadbar=  1.01015951110726E+05
 cg2d: Sum(rhs),rhsMax =  -4.02879771931511E+01  1.89625662074561E+00
(PID.TID 0000.0001)  ploadbar=  1.01014701910369E+05
 cg2d: Sum(rhs),rhsMax =  -4.03788378623109E+01  1.89137397379776E+00
(PID.TID 0000.0001)  ploadbar=  1.01013452710013E+05
 cg2d: Sum(rhs),rhsMax =  -4.04747813691535E+01  1.88634190465307E+00
(PID.TID 0000.0001)  ploadbar=  1.01012203509657E+05
 cg2d: Sum(rhs),rhsMax =  -4.05751873258439E+01  1.88118598593917E+00
(PID.TID 0000.0001)  ploadbar=  1.01010954309301E+05
 cg2d: Sum(rhs),rhsMax =  -4.06780462836305E+01  1.87599612011339E+00
(PID.TID 0000.0001)  ploadbar=  1.01009705108945E+05
 cg2d: Sum(rhs),rhsMax =  -4.07832851618233E+01  1.87077028094063E+00
(PID.TID 0000.0001)  ploadbar=  1.01008455908588E+05
 cg2d: Sum(rhs),rhsMax =  -4.08880941312510E+01  1.86560566759457E+00
(PID.TID 0000.0001)  ploadbar=  1.01007560207399E+05
 cg2d: Sum(rhs),rhsMax =  -4.09904584343164E+01  1.86058747315495E+00
(PID.TID 0000.0001)  ploadbar=  1.01006664506210E+05
 cg2d: Sum(rhs),rhsMax =  -4.10892447905453E+01  1.85574889595306E+00
(PID.TID 0000.0001)  ploadbar=  1.01005768805020E+05
 cg2d: Sum(rhs),rhsMax =  -4.11854332025721E+01  1.85102899256404E+00
(PID.TID 0000.0001)  ploadbar=  1.01004873103831E+05
 cg2d: Sum(rhs),rhsMax =  -4.12777870189776E+01  1.84647310808999E+00
(PID.TID 0000.0001)  ploadbar=  1.01003977402641E+05
 cg2d: Sum(rhs),rhsMax =  -4.13651682135825E+01  1.84211925846555E+00
(PID.TID 0000.0001)  ploadbar=  1.01003081701452E+05
 cg2d: Sum(rhs),rhsMax =  -4.14560378107249E+01  1.83767308996049E+00
(PID.TID 0000.0001)  ploadbar=  1.01003101352415E+05
 cg2d: Sum(rhs),rhsMax =  -4.15456238646113E+01  1.83334212859264E+00
(PID.TID 0000.0001)  ploadbar=  1.01003121003377E+05
 cg2d: Sum(rhs),rhsMax =  -4.16312520118063E+01  1.82923488850706E+00
(PID.TID 0000.0001)  ploadbar=  1.01003140654340E+05
 cg2d: Sum(rhs),rhsMax =  -4.17155663216285E+01  1.82522434308180E+00
(PID.TID 0000.0001)  ploadbar=  1.01003160305303E+05
 cg2d: Sum(rhs),rhsMax =  -4.17988175076842E+01  1.82129372865079E+00
(PID.TID 0000.0001)  ploadbar=  1.01003179956265E+05
 cg2d: Sum(rhs),rhsMax =  -4.18793288828209E+01  1.81750659171646E+00
(PID.TID 0000.0001)  ploadbar=  1.01003199607228E+05
 cg2d: Sum(rhs),rhsMax =  -4.19510736294624E+01  1.81402930518660E+00
(PID.TID 0000.0001)  ploadbar=  1.01002665260871E+05
 cg2d: Sum(rhs),rhsMax =  -4.20188177723350E+01  1.81064706437835E+00
(PID.TID 0000.0001)  ploadbar=  1.01002130914514E+05
 cg2d: Sum(rhs),rhsMax =  -4.20811257862488E+01  1.80741822046238E+00
(PID.TID 0000.0001)  ploadbar=  1.01001596568157E+05
 cg2d: Sum(rhs),rhsMax =  -4.21380300105539E+01  1.80433198762546E+00
(PID.TID 0000.0001)  ploadbar=  1.01001062221800E+05
 cg2d: Sum(rhs),rhsMax =  -4.21909996671255E+01  1.80131576228499E+00
(PID.TID 0000.0001)  ploadbar=  1.01000527875443E+05
 cg2d: Sum(rhs),rhsMax =  -4.22405831553109E+01  1.79833988933252E+00
(PID.TID 0000.0001)  ploadbar=  1.00999993529086E+05
 cg2d: Sum(rhs),rhsMax =  -4.22858696626390E+01  1.79563442666279E+00
(PID.TID 0000.0001)  ploadbar=  1.00999469829190E+05
 cg2d: Sum(rhs),rhsMax =  -4.23316455562188E+01  1.79298881797628E+00
(PID.TID 0000.0001)  ploadbar=  1.00998946129293E+05
 cg2d: Sum(rhs),rhsMax =  -4.23764039576500E+01  1.79045771557804E+00
(PID.TID 0000.0001)  ploadbar=  1.00998422429396E+05
 cg2d: Sum(rhs),rhsMax =  -4.24189646440379E+01  1.78808293631495E+00
(PID.TID 0000.0001)  ploadbar=  1.00997898729500E+05
 cg2d: Sum(rhs),rhsMax =  -4.24593647388693E+01  1.78585343822922E+00
(PID.TID 0000.0001)  ploadbar=  1.00997375029603E+05
 cg2d: Sum(rhs),rhsMax =  -4.24973471834546E+01  1.78377395846588E+00
(PID.TID 0000.0001)  ploadbar=  1.00996851329706E+05
 cg2d: Sum(rhs),rhsMax =  -4.25272977009611E+01  1.78203990907026E+00
(PID.TID 0000.0001)  ploadbar=  1.00996695774068E+05
 cg2d: Sum(rhs),rhsMax =  -4.25496479129552E+01  1.78062471362305E+00
(PID.TID 0000.0001)  ploadbar=  1.00996540218430E+05
 cg2d: Sum(rhs),rhsMax =  -4.25642513037518E+01  1.77952508729450E+00
(PID.TID 0000.0001)  ploadbar=  1.00996384662792E+05
 cg2d: Sum(rhs),rhsMax =  -4.25685488969489E+01  1.77883704195808E+00
(PID.TID 0000.0001)  ploadbar=  1.00996229107154E+05
 cg2d: Sum(rhs),rhsMax =  -4.25613077702434E+01  1.77860264365525E+00
(PID.TID 0000.0001)  ploadbar=  1.00996073551515E+05
 cg2d: Sum(rhs),rhsMax =  -4.25418915277143E+01  1.77884454714940E+00
(PID.TID 0000.0001)  ploadbar=  1.00995917995877E+05
 cg2d: Sum(rhs),rhsMax =  -4.25016081702773E+01  1.78001244341615E+00
(PID.TID 0000.0001)  ploadbar=  1.00995807720141E+05
 cg2d: Sum(rhs),rhsMax =  -4.24413517318084E+01  1.78206932906408E+00
(PID.TID 0000.0001)  ploadbar=  1.00995697444404E+05
 cg2d: Sum(rhs),rhsMax =  -4.23627557501075E+01  1.78494799996046E+00
(PID.TID 0000.0001)  ploadbar=  1.00995587168667E+05
 cg2d: Sum(rhs),rhsMax =  -4.22660458704436E+01  1.78863974169453E+00
(PID.TID 0000.0001)  ploadbar=  1.00995476892930E+05
 cg2d: Sum(rhs),rhsMax =  -4.21559439283514E+01  1.79294771775565E+00
(PID.TID 0000.0001)  ploadbar=  1.00995366617194E+05
 cg2d: Sum(rhs),rhsMax =  -4.20397813747525E+01  1.79756019553391E+00
(PID.TID 0000.0001)  ploadbar=  1.00995256341457E+05
 cg2d: Sum(rhs),rhsMax =  -4.19262905005369E+01  1.80202518740692E+00
(PID.TID 0000.0001)  ploadbar=  1.00995016395679E+05
 cg2d: Sum(rhs),rhsMax =  -4.18284931197908E+01  1.80577499954080E+00
(PID.TID 0000.0001)  ploadbar=  1.00994776449901E+05
 cg2d: Sum(rhs),rhsMax =  -4.17579858833508E+01  1.80828911624711E+00
(PID.TID 0000.0001)  ploadbar=  1.00994536504122E+05
 cg2d: Sum(rhs),rhsMax =  -4.17218926221872E+01  1.80923712945610E+00
(PID.TID 0000.0001)  ploadbar=  1.00994296558344E+05
 cg2d: Sum(rhs),rhsMax =  -4.17254844977407E+01  1.80837603348738E+00
(PID.TID 0000.0001)  ploadbar=  1.00994056612566E+05
 cg2d: Sum(rhs),rhsMax =  -4.17700948590113E+01  1.80564402045780E+00
(PID.TID 0000.0001)  ploadbar=  1.00993816666787E+05
 cg2d: Sum(rhs),rhsMax =  -4.18562504400914E+01  1.80119591018370E+00
(PID.TID 0000.0001)  ploadbar=  1.00994427234728E+05
 cg2d: Sum(rhs),rhsMax =  -4.19813419000439E+01  1.79516372307668E+00
(PID.TID 0000.0001)  ploadbar=  1.00995037802669E+05
 cg2d: Sum(rhs),rhsMax =  -4.21408241904322E+01  1.78776473783501E+00
(PID.TID 0000.0001)  ploadbar=  1.00995648370610E+05
 cg2d: Sum(rhs),rhsMax =  -4.23290517598233E+01  1.77926098790776E+00
(PID.TID 0000.0001)  ploadbar=  1.00996258938551E+05
 cg2d: Sum(rhs),rhsMax =  -4.25413667821749E+01  1.76986893916618E+00
(PID.TID 0000.0001)  ploadbar=  1.00996869506492E+05
 cg2d: Sum(rhs),rhsMax =  -4.27732232617398E+01  1.75980064658582E+00
(PID.TID 0000.0001)  ploadbar=  1.00997480074433E+05
 cg2d: Sum(rhs),rhsMax =  -4.30271275451108E+01  1.74891154776831E+00
(PID.TID 0000.0001)  ploadbar=  1.00997865933147E+05
 cg2d: Sum(rhs),rhsMax =  -4.33025694102373E+01  1.73724693208111E+00
(PID.TID 0000.0001)  ploadbar=  1.00998251791860E+05
 cg2d: Sum(rhs),rhsMax =  -4.35925036429368E+01  1.72511200752741E+00
(PID.TID 0000.0001)  ploadbar=  1.00998637650573E+05
 cg2d: Sum(rhs),rhsMax =  -4.38897596950348E+01  1.71280443947647E+00
(PID.TID 0000.0001)  ploadbar=  1.00999023509287E+05
 cg2d: Sum(rhs),rhsMax =  -4.41896863256153E+01  1.70050231125050E+00
(PID.TID 0000.0001)  ploadbar=  1.00999409368000E+05
 cg2d: Sum(rhs),rhsMax =  -4.44925287096924E+01  1.68819272621223E+00
(PID.TID 0000.0001)  ploadbar=  1.00999795226713E+05
 cg2d: Sum(rhs),rhsMax =  -4.47985107525871E+01  1.67593523446945E+00
(PID.TID 0000.0001)  ploadbar=  1.01000197122718E+05
 cg2d: Sum(rhs),rhsMax =  -4.50934115112855E+01  1.66425059626125E+00
(PID.TID 0000.0001)  ploadbar=  1.01000599018723E+05
 cg2d: Sum(rhs),rhsMax =  -4.53666027263140E+01  1.65350199599180E+00
(PID.TID 0000.0001)  ploadbar=  1.01001000914728E+05
 cg2d: Sum(rhs),rhsMax =  -4.56184419691158E+01  1.64364057734279E+00
(PID.TID 0000.0001)  ploadbar=  1.01001402810732E+05
 cg2d: Sum(rhs),rhsMax =  -4.58487392785420E+01  1.63463937482221E+00
(PID.TID 0000.0001)  ploadbar=  1.01001804706737E+05
 cg2d: Sum(rhs),rhsMax =  -4.60578772042928E+01  1.62645323479325E+00
(PID.TID 0000.0001)  ploadbar=  1.01002206602742E+05
 cg2d: Sum(rhs),rhsMax =  -4.62645931455359E+01  1.61840032013808E+00
(PID.TID 0000.0001)  ploadbar=  1.01002423459436E+05
 cg2d: Sum(rhs),rhsMax =  -4.64601266651789E+01  1.61077395138897E+00
(PID.TID 0000.0001)  ploadbar=  1.01002640316129E+05
 cg2d: Sum(rhs),rhsMax =  -4.66451272970854E+01  1.60353122390232E+00
(PID.TID 0000.0001)  ploadbar=  1.01002857172823E+05
 cg2d: Sum(rhs),rhsMax =  -4.68236149656827E+01  1.59652016577444E+00
(PID.TID 0000.0001)  ploadbar=  1.01003074029517E+05
 cg2d: Sum(rhs),rhsMax =  -4.69978294455424E+01  1.58965648013851E+00
(PID.TID 0000.0001)  ploadbar=  1.01003290886210E+05
 cg2d: Sum(rhs),rhsMax =  -4.71651217327694E+01  1.58302115451419E+00
(PID.TID 0000.0001)  ploadbar=  1.01003507742904E+05
 cg2d: Sum(rhs),rhsMax =  -4.73100007644388E+01  1.57731488408205E+00
(PID.TID 0000.0001)  ploadbar=  1.01003980643882E+05
 cg2d: Sum(rhs),rhsMax =  -4.74243778095003E+01  1.57278459745131E+00
(PID.TID 0000.0001)  ploadbar=  1.01004453544861E+05
 cg2d: Sum(rhs),rhsMax =  -4.75070367089325E+01  1.56944761787023E+00
(PID.TID 0000.0001)  ploadbar=  1.01004926445839E+05
 cg2d: Sum(rhs),rhsMax =  -4.75688878135806E+01  1.56692397370625E+00
(PID.TID 0000.0001)  ploadbar=  1.01005399346818E+05
 cg2d: Sum(rhs),rhsMax =  -4.76224081456843E+01  1.56479098827895E+00
(PID.TID 0000.0001)  ploadbar=  1.01005872247796E+05
 cg2d: Sum(rhs),rhsMax =  -4.76724972881089E+01  1.56288182143201E+00
(PID.TID 0000.0001)  ploadbar=  1.01006345148774E+05
 cg2d: Sum(rhs),rhsMax =  -4.77223981209811E+01  1.56100256348732E+00
(PID.TID 0000.0001)  ploadbar=  1.01007735778799E+05
 cg2d: Sum(rhs),rhsMax =  -4.77721733994833E+01  1.55914776003909E+00
(PID.TID 0000.0001)  ploadbar=  1.01009126408824E+05
 cg2d: Sum(rhs),rhsMax =  -4.78240156257772E+01  1.55723792125125E+00
(PID.TID 0000.0001)  ploadbar=  1.01010517038849E+05
 cg2d: Sum(rhs),rhsMax =  -4.78755755694964E+01  1.55534488044283E+00
(PID.TID 0000.0001)  ploadbar=  1.01011907668874E+05
 cg2d: Sum(rhs),rhsMax =  -4.79302004971210E+01  1.55334801189706E+00
(PID.TID 0000.0001)  ploadbar=  1.01013298298898E+05
 cg2d: Sum(rhs),rhsMax =  -4.79802891278084E+01  1.55148745817188E+00
(PID.TID 0000.0001)  ploadbar=  1.01014688928923E+05
 cg2d: Sum(rhs),rhsMax =  -4.80102389892864E+01  1.55030420043536E+00
(PID.TID 0000.0001)  ploadbar=  1.01016835256053E+05
 cg2d: Sum(rhs),rhsMax =  -4.80345170140211E+01  1.54932725542502E+00
(PID.TID 0000.0001)  ploadbar=  1.01018981583184E+05
 cg2d: Sum(rhs),rhsMax =  -4.80579593778424E+01  1.54839708643620E+00
(PID.TID 0000.0001)  ploadbar=  1.01021127910314E+05
 cg2d: Sum(rhs),rhsMax =  -4.80804053733531E+01  1.54751263048260E+00
(PID.TID 0000.0001)  ploadbar=  1.01023274237444E+05
 cg2d: Sum(rhs),rhsMax =  -4.81039357964732E+01  1.54659779030784E+00
(PID.TID 0000.0001)  ploadbar=  1.01025420564574E+05
 cg2d: Sum(rhs),rhsMax =  -4.81302875324225E+01  1.54559828971383E+00
(PID.TID 0000.0001)  ploadbar=  1.01027566891704E+05
 cg2d: Sum(rhs),rhsMax =  -4.81633066902335E+01  1.54436260767325E+00
(PID.TID 0000.0001)  ploadbar=  1.01029080878060E+05
 cg2d: Sum(rhs),rhsMax =  -4.82006834629737E+01  1.54296014316773E+00
(PID.TID 0000.0001)  ploadbar=  1.01030594864417E+05
 cg2d: Sum(rhs),rhsMax =  -4.82417120863521E+01  1.54140623244772E+00
(PID.TID 0000.0001)  ploadbar=  1.01032108850773E+05
 cg2d: Sum(rhs),rhsMax =  -4.82863710407496E+01  1.53969979814669E+00
(PID.TID 0000.0001)  ploadbar=  1.01033622837129E+05
 cg2d: Sum(rhs),rhsMax =  -4.83341711886766E+01  1.53784973685656E+00
(PID.TID 0000.0001)  ploadbar=  1.01035136823485E+05
 cg2d: Sum(rhs),rhsMax =  -4.83856723003521E+01  1.53583841336956E+00
(PID.TID 0000.0001)  ploadbar=  1.01036650809841E+05
 cg2d: Sum(rhs),rhsMax =  -4.84477092903451E+01  1.53354561552722E+00
(PID.TID 0000.0001)  ploadbar=  1.01038280967635E+05
 cg2d: Sum(rhs),rhsMax =  -4.85149861006047E+01  1.53113891870885E+00
(PID.TID 0000.0001)  ploadbar=  1.01039911125430E+05
 cg2d: Sum(rhs),rhsMax =  -4.85873421106714E+01  1.52862137571001E+00
(PID.TID 0000.0001)  ploadbar=  1.01041541283224E+05
 cg2d: Sum(rhs),rhsMax =  -4.86642728590072E+01  1.52600531853185E+00
(PID.TID 0000.0001)  ploadbar=  1.01043171441019E+05
 cg2d: Sum(rhs),rhsMax =  -4.87450797484151E+01  1.52330620121172E+00
(PID.TID 0000.0001)  ploadbar=  1.01044801598813E+05
 cg2d: Sum(rhs),rhsMax =  -4.88295149012146E+01  1.52052587816630E+00
(PID.TID 0000.0001)  ploadbar=  1.01046431756607E+05
 cg2d: Sum(rhs),rhsMax =  -4.89171584871528E+01  1.51762046248252E+00
(PID.TID 0000.0001)  ploadbar=  1.01047681300825E+05
 cg2d: Sum(rhs),rhsMax =  -4.90054517655239E+01  1.51466952885201E+00
(PID.TID 0000.0001)  ploadbar=  1.01048930845042E+05
 cg2d: Sum(rhs),rhsMax =  -4.90934473621845E+01  1.51169589842366E+00
(PID.TID 0000.0001)  ploadbar=  1.01050180389260E+05
 cg2d: Sum(rhs),rhsMax =  -4.91811884761906E+01  1.50868190271697E+00
(PID.TID 0000.0001)  ploadbar=  1.01051429933477E+05
 cg2d: Sum(rhs),rhsMax =  -4.92690551918416E+01  1.50561236370906E+00
(PID.TID 0000.0001)  ploadbar=  1.01052679477695E+05
 cg2d: Sum(rhs),rhsMax =  -4.93566750334825E+01  1.50249480748364E+00
(PID.TID 0000.0001)  ploadbar=  1.01053929021912E+05
 cg2d: Sum(rhs),rhsMax =  -4.94470613318860E+01  1.49933106135105E+00
(PID.TID 0000.0001)  ploadbar=  1.01055539226437E+05
 cg2d: Sum(rhs),rhsMax =  -4.95407349761977E+01  1.49610320940608E+00
(PID.TID 0000.0001)  ploadbar=  1.01057149430961E+05
 cg2d: Sum(rhs),rhsMax =  -4.96373637553501E+01  1.49281999940316E+00
(PID.TID 0000.0001)  ploadbar=  1.01058759635485E+05
 cg2d: Sum(rhs),rhsMax =  -4.97362071452910E+01  1.48949953700729E+00
(PID.TID 0000.0001)  ploadbar=  1.01060369840010E+05
 cg2d: Sum(rhs),rhsMax =  -4.98364958081236E+01  1.48615792035852E+00
(PID.TID 0000.0001)  ploadbar=  1.01061980044534E+05
 cg2d: Sum(rhs),rhsMax =  -4.99374006195774E+01  1.48280922098275E+00
(PID.TID 0000.0001)  ploadbar=  1.01063590249058E+05
 cg2d: Sum(rhs),rhsMax =  -5.00343999946651E+01  1.47952962848407E+00
(PID.TID 0000.0001)  ploadbar=  1.01065602515062E+05
 cg2d: Sum(rhs),rhsMax =  -5.01271771098621E+01  1.47632186390225E+00
(PID.TID 0000.0001)  ploadbar=  1.01067614781066E+05
 cg2d: Sum(rhs),rhsMax =  -5.02158230034262E+01  1.47317543324951E+00
(PID.TID 0000.0001)  ploadbar=  1.01069627047071E+05
 cg2d: Sum(rhs),rhsMax =  -5.03016824546064E+01  1.47004941865550E+00
(PID.TID 0000.0001)  ploadbar=  1.01071639313075E+05
 cg2d: Sum(rhs),rhsMax =  -5.03846441508968E+01  1.46694503494399E+00
(PID.TID 0000.0001)  ploadbar=  1.01073651579079E+05
 cg2d: Sum(rhs),rhsMax =  -5.04641197701302E+01  1.46387857583298E+00
(PID.TID 0000.0001)  ploadbar=  1.01075663845083E+05
 cg2d: Sum(rhs),rhsMax =  -5.05465409801628E+01  1.46080767558604E+00
(PID.TID 0000.0001)  ploadbar=  1.01078624763073E+05
 cg2d: Sum(rhs),rhsMax =  -5.06319573280709E+01  1.45773024296373E+00
(PID.TID 0000.0001)  ploadbar=  1.01081585681062E+05
 cg2d: Sum(rhs),rhsMax =  -5.07178684620392E+01  1.45471438551410E+00
(PID.TID 0000.0001)  ploadbar=  1.01084546599052E+05
 cg2d: Sum(rhs),rhsMax =  -5.08039513715009E+01  1.45176103760805E+00
(PID.TID 0000.0001)  ploadbar=  1.01087507517042E+05
 cg2d: Sum(rhs),rhsMax =  -5.08895551175311E+01  1.44888204610254E+00
(PID.TID 0000.0001)  ploadbar=  1.01090468435031E+05
 cg2d: Sum(rhs),rhsMax =  -5.09740938992324E+01  1.44608573644425E+00
(PID.TID 0000.0001)  ploadbar=  1.01093429353021E+05
 cg2d: Sum(rhs),rhsMax =  -5.10562719662455E+01  1.44335234844786E+00
(PID.TID 0000.0001)  ploadbar=  1.01094999971839E+05
 cg2d: Sum(rhs),rhsMax =  -5.11359229586766E+01  1.44068256592037E+00
(PID.TID 0000.0001)  ploadbar=  1.01096570590657E+05
 cg2d: Sum(rhs),rhsMax =  -5.12251084540553E+01  1.43773570363049E+00
(PID.TID 0000.0001)  ploadbar=  1.01098141209474E+05
 cg2d: Sum(rhs),rhsMax =  -5.13116831014525E+01  1.43485096099454E+00
(PID.TID 0000.0001)  ploadbar=  1.01099711828292E+05
 cg2d: Sum(rhs),rhsMax =  -5.13950298071929E+01  1.43204155079312E+00
(PID.TID 0000.0001)  ploadbar=  1.01101282447110E+05
 cg2d: Sum(rhs),rhsMax =  -5.14758143982794E+01  1.42928507792410E+00
(PID.TID 0000.0001)  ploadbar=  1.01102853065928E+05
 cg2d: Sum(rhs),rhsMax =  -5.15548431554247E+01  1.42659792361905E+00
(PID.TID 0000.0001)  ploadbar=  1.01104088696930E+05
 cg2d: Sum(rhs),rhsMax =  -5.16344098671013E+01  1.42391403044408E+00
(PID.TID 0000.0001)  ploadbar=  1.01105324327931E+05
 cg2d: Sum(rhs),rhsMax =  -5.17119930770887E+01  1.42130093864489E+00
(PID.TID 0000.0001)  ploadbar=  1.01106559958933E+05
 cg2d: Sum(rhs),rhsMax =  -5.17888939564833E+01  1.41871893013099E+00
(PID.TID 0000.0001)  ploadbar=  1.01107795589935E+05
 cg2d: Sum(rhs),rhsMax =  -5.18652107374890E+01  1.41615915446401E+00
(PID.TID 0000.0001)  ploadbar=  1.01109031220936E+05
 cg2d: Sum(rhs),rhsMax =  -5.19407891672978E+01  1.41362084139737E+00
(PID.TID 0000.0001)  ploadbar=  1.01110266851938E+05
 cg2d: Sum(rhs),rhsMax =  -5.20119448405102E+01  1.41118029951332E+00
(PID.TID 0000.0001)  ploadbar=  1.01111962750336E+05
 cg2d: Sum(rhs),rhsMax =  -5.20781561203615E+01  1.40884768914454E+00
(PID.TID 0000.0001)  ploadbar=  1.01113658648734E+05
 cg2d: Sum(rhs),rhsMax =  -5.21417265671575E+01  1.40655052319736E+00
(PID.TID 0000.0001)  ploadbar=  1.01115354547131E+05
 cg2d: Sum(rhs),rhsMax =  -5.22040664190833E+01  1.40424524103553E+00
(PID.TID 0000.0001)  ploadbar=  1.01117050445529E+05
 cg2d: Sum(rhs),rhsMax =  -5.22651651710206E+01  1.40193040328026E+00
(PID.TID 0000.0001)  ploadbar=  1.01118746343927E+05
 cg2d: Sum(rhs),rhsMax =  -5.23257055603115E+01  1.39958619071624E+00
(PID.TID 0000.0001)  ploadbar=  1.01120442242325E+05
 cg2d: Sum(rhs),rhsMax =  -5.23865038568915E+01  1.39727039954438E+00
(PID.TID 0000.0001)  ploadbar=  1.01122507542328E+05
 cg2d: Sum(rhs),rhsMax =  -5.24487286521050E+01  1.39494849709369E+00
(PID.TID 0000.0001)  ploadbar=  1.01124572842331E+05
 cg2d: Sum(rhs),rhsMax =  -5.25100272746649E+01  1.39267986993498E+00
(PID.TID 0000.0001)  ploadbar=  1.01126638142334E+05
 cg2d: Sum(rhs),rhsMax =  -5.25704573476535E+01  1.39045618765690E+00
(PID.TID 0000.0001)  ploadbar=  1.01128703442338E+05
 cg2d: Sum(rhs),rhsMax =  -5.26295810499790E+01  1.38828082813744E+00
(PID.TID 0000.0001)  ploadbar=  1.01130768742341E+05
 cg2d: Sum(rhs),rhsMax =  -5.26870010542163E+01  1.38615068594628E+00
(PID.TID 0000.0001)  ploadbar=  1.01132834042344E+05
 cg2d: Sum(rhs),rhsMax =  -5.27439066820316E+01  1.38402609278505E+00
(PID.TID 0000.0001)  ploadbar=  1.01134205595920E+05
 cg2d: Sum(rhs),rhsMax =  -5.28005234171398E+01  1.38189633965377E+00
(PID.TID 0000.0001)  ploadbar=  1.01135577149496E+05
 cg2d: Sum(rhs),rhsMax =  -5.28594672835938E+01  1.37968729549493E+00
(PID.TID 0000.0001)  ploadbar=  1.01136948703072E+05
 cg2d: Sum(rhs),rhsMax =  -5.29192970093730E+01  1.37742903118807E+00
(PID.TID 0000.0001)  ploadbar=  1.01138320256649E+05
 cg2d: Sum(rhs),rhsMax =  -5.29798176061918E+01  1.37511879463905E+00
(PID.TID 0000.0001)  ploadbar=  1.01139691810225E+05
 cg2d: Sum(rhs),rhsMax =  -5.30418142378394E+01  1.37273351600160E+00
(PID.TID 0000.0001)  ploadbar=  1.01141063363801E+05
 cg2d: Sum(rhs),rhsMax =  -5.31126248558821E+01  1.37018564242607E+00
(PID.TID 0000.0001)  ploadbar=  1.01142482329036E+05
 cg2d: Sum(rhs),rhsMax =  -5.31923973648516E+01  1.36747130685215E+00
(PID.TID 0000.0001)  ploadbar=  1.01143901294270E+05
 cg2d: Sum(rhs),rhsMax =  -5.32795068237535E+01  1.36463156436614E+00
(PID.TID 0000.0001)  ploadbar=  1.01145320259505E+05
 cg2d: Sum(rhs),rhsMax =  -5.33717469999945E+01  1.36171934464287E+00
(PID.TID 0000.0001)  ploadbar=  1.01146739224740E+05
 cg2d: Sum(rhs),rhsMax =  -5.34692003384271E+01  1.35872976212663E+00
(PID.TID 0000.0001)  ploadbar=  1.01148158189974E+05
 cg2d: Sum(rhs),rhsMax =  -5.35717592012692E+01  1.35566067662676E+00
(PID.TID 0000.0001)  ploadbar=  1.01149577155209E+05
 cg2d: Sum(rhs),rhsMax =  -5.36801669493967E+01  1.35245126493063E+00
(PID.TID 0000.0001)  ploadbar=  1.01149711572316E+05
 cg2d: Sum(rhs),rhsMax =  -5.37943204812788E+01  1.34909985812031E+00
(PID.TID 0000.0001)  ploadbar=  1.01149845989422E+05
 cg2d: Sum(rhs),rhsMax =  -5.39109673361944E+01  1.34567928628511E+00
(PID.TID 0000.0001)  ploadbar=  1.01149980406529E+05
 cg2d: Sum(rhs),rhsMax =  -5.40297403376626E+01  1.34219450309782E+00
(PID.TID 0000.0001)  ploadbar=  1.01150114823636E+05
 cg2d: Sum(rhs),rhsMax =  -5.41503133404647E+01  1.33865335153957E+00
(PID.TID 0000.0001)  ploadbar=  1.01150249240743E+05
 cg2d: Sum(rhs),rhsMax =  -5.42715390192912E+01  1.33508370922437E+00
(PID.TID 0000.0001)  ploadbar=  1.01150383657849E+05
 cg2d: Sum(rhs),rhsMax =  -5.43848990482859E+01  1.33178777971578E+00
(PID.TID 0000.0001)  ploadbar=  1.01150980379183E+05
 cg2d: Sum(rhs),rhsMax =  -5.45011535356985E+01  1.32849933481510E+00
(PID.TID 0000.0001)  ploadbar=  1.01151577100516E+05
 cg2d: Sum(rhs),rhsMax =  -5.46218616846454E+01  1.32517557816405E+00
(PID.TID 0000.0001)  ploadbar=  1.01152173821850E+05
 cg2d: Sum(rhs),rhsMax =  -5.47435778678699E+01  1.32189442961349E+00
(PID.TID 0000.0001)  ploadbar=  1.01152770543183E+05
 cg2d: Sum(rhs),rhsMax =  -5.48657732888724E+01  1.31866482361697E+00
(PID.TID 0000.0001)  ploadbar=  1.01153367264517E+05
 cg2d: Sum(rhs),rhsMax =  -5.49874868369939E+01  1.31550476819721E+00
(PID.TID 0000.0001)  ploadbar=  1.01153963985850E+05
 cg2d: Sum(rhs),rhsMax =  -5.51202878014658E+01  1.31210204760546E+00
(PID.TID 0000.0001)  ploadbar=  1.01154139387446E+05
 cg2d: Sum(rhs),rhsMax =  -5.52548007756159E+01  1.30868071633063E+00
(PID.TID 0000.0001)  ploadbar=  1.01154314789042E+05
 cg2d: Sum(rhs),rhsMax =  -5.53907795135799E+01  1.30524508369234E+00
(PID.TID 0000.0001)  ploadbar=  1.01154490190638E+05
 cg2d: Sum(rhs),rhsMax =  -5.55308516186675E+01  1.30172797144656E+00
(PID.TID 0000.0001)  ploadbar=  1.01154665592234E+05
 cg2d: Sum(rhs),rhsMax =  -5.56745832677469E+01  1.29813735222404E+00
(PID.TID 0000.0001)  ploadbar=  1.01154840993831E+05
 cg2d: Sum(rhs),rhsMax =  -5.58216051703376E+01  1.29448212204834E+00
(PID.TID 0000.0001)  ploadbar=  1.01155016395427E+05
 cg2d: Sum(rhs),rhsMax =  -5.59734887463764E+01  1.29075965401556E+00
(PID.TID 0000.0001)  ploadbar=  1.01155917175552E+05
 cg2d: Sum(rhs),rhsMax =  -5.61270068435523E+01  1.28704390467155E+00
(PID.TID 0000.0001)  ploadbar=  1.01156817955678E+05
 cg2d: Sum(rhs),rhsMax =  -5.62786597895807E+01  1.28340963934791E+00
(PID.TID 0000.0001)  ploadbar=  1.01157718735804E+05
 cg2d: Sum(rhs),rhsMax =  -5.64269209587420E+01  1.27988528064078E+00
(PID.TID 0000.0001)  ploadbar=  1.01158619515930E+05
 cg2d: Sum(rhs),rhsMax =  -5.65719454795069E+01  1.27646146210228E+00
(PID.TID 0000.0001)  ploadbar=  1.01159520296055E+05
 cg2d: Sum(rhs),rhsMax =  -5.67141386574242E+01  1.27312249415361E+00
(PID.TID 0000.0001)  ploadbar=  1.01160421076181E+05
 cg2d: Sum(rhs),rhsMax =  -5.68484970608276E+01  1.26993769930889E+00
(PID.TID 0000.0001)  ploadbar=  1.01159660229993E+05
 cg2d: Sum(rhs),rhsMax =  -5.69810735568702E+01  1.26675906585699E+00
(PID.TID 0000.0001)  ploadbar=  1.01158899383805E+05
 cg2d: Sum(rhs),rhsMax =  -5.71118398229275E+01  1.26358405813712E+00
(PID.TID 0000.0001)  ploadbar=  1.01158138537617E+05
 cg2d: Sum(rhs),rhsMax =  -5.72408587779280E+01  1.26040945692310E+00
(PID.TID 0000.0001)  ploadbar=  1.01157377691429E+05
 cg2d: Sum(rhs),rhsMax =  -5.73681440294449E+01  1.25723190192592E+00
(PID.TID 0000.0001)  ploadbar=  1.01156616845241E+05
 cg2d: Sum(rhs),rhsMax =  -5.74936552889037E+01  1.25405113370575E+00
(PID.TID 0000.0001)  ploadbar=  1.01155855999054E+05
 cg2d: Sum(rhs),rhsMax =  -5.76141792722213E+01  1.25105588735520E+00
(PID.TID 0000.0001)  ploadbar=  1.01154196820837E+05
 cg2d: Sum(rhs),rhsMax =  -5.77360805018175E+01  1.24810631482527E+00
(PID.TID 0000.0001)  ploadbar=  1.01152537642620E+05
 cg2d: Sum(rhs),rhsMax =  -5.78574747301602E+01  1.24524048176959E+00
(PID.TID 0000.0001)  ploadbar=  1.01150878464403E+05
 cg2d: Sum(rhs),rhsMax =  -5.79775315369043E+01  1.24247311567806E+00
(PID.TID 0000.0001)  ploadbar=  1.01149219286187E+05
 cg2d: Sum(rhs),rhsMax =  -5.80960609622025E+01  1.23980167378588E+00
(PID.TID 0000.0001)  ploadbar=  1.01147560107970E+05
 cg2d: Sum(rhs),rhsMax =  -5.82121304515974E+01  1.23723713660900E+00
(PID.TID 0000.0001)  ploadbar=  1.01145900929753E+05
 cg2d: Sum(rhs),rhsMax =  -5.83241225207249E+01  1.23475075326567E+00
(PID.TID 0000.0001)  ploadbar=  1.01145984775287E+05
 cg2d: Sum(rhs),rhsMax =  -5.84263656468833E+01  1.23245771023115E+00
(PID.TID 0000.0001)  ploadbar=  1.01146068620820E+05
 cg2d: Sum(rhs),rhsMax =  -5.85181076387841E+01  1.23036650309206E+00
(PID.TID 0000.0001)  ploadbar=  1.01146152466354E+05
 cg2d: Sum(rhs),rhsMax =  -5.86010312561662E+01  1.22843541744561E+00
(PID.TID 0000.0001)  ploadbar=  1.01146236311888E+05
 cg2d: Sum(rhs),rhsMax =  -5.86746444806017E+01  1.22667026567542E+00
(PID.TID 0000.0001)  ploadbar=  1.01146320157421E+05
 cg2d: Sum(rhs),rhsMax =  -5.87379204816863E+01  1.22508719232101E+00
(PID.TID 0000.0001)  ploadbar=  1.01146404002955E+05
 cg2d: Sum(rhs),rhsMax =  -5.87926798214328E+01  1.22367305990554E+00
(PID.TID 0000.0001)  ploadbar=  1.01147332448759E+05
 cg2d: Sum(rhs),rhsMax =  -5.88361611391683E+01  1.22248206020343E+00
(PID.TID 0000.0001)  ploadbar=  1.01148260894563E+05
 cg2d: Sum(rhs),rhsMax =  -5.88705165958629E+01  1.22146803064543E+00
(PID.TID 0000.0001)  ploadbar=  1.01149189340367E+05
 cg2d: Sum(rhs),rhsMax =  -5.88989820255473E+01  1.22055521367412E+00
(PID.TID 0000.0001)  ploadbar=  1.01150117786171E+05
 cg2d: Sum(rhs),rhsMax =  -5.89231658585958E+01  1.21970601990951E+00
(PID.TID 0000.0001)  ploadbar=  1.01151046231976E+05
 cg2d: Sum(rhs),rhsMax =  -5.89436245297934E+01  1.21889899067774E+00
(PID.TID 0000.0001)  ploadbar=  1.01151974677780E+05
 cg2d: Sum(rhs),rhsMax =  -5.89732820751423E+01  1.21789884375536E+00
(PID.TID 0000.0001)  ploadbar=  1.01152414175913E+05
 cg2d: Sum(rhs),rhsMax =  -5.89993530290539E+01  1.21696523696141E+00
(PID.TID 0000.0001)  ploadbar=  1.01152853674047E+05
 cg2d: Sum(rhs),rhsMax =  -5.90189579246066E+01  1.21615678768036E+00
(PID.TID 0000.0001)  ploadbar=  1.01153293172180E+05
 cg2d: Sum(rhs),rhsMax =  -5.90340253874969E+01  1.21543078078831E+00
(PID.TID 0000.0001)  ploadbar=  1.01153732670314E+05
 cg2d: Sum(rhs),rhsMax =  -5.90443720692486E+01  1.21478771731850E+00
(PID.TID 0000.0001)  ploadbar=  1.01154172168448E+05
 cg2d: Sum(rhs),rhsMax =  -5.90495047215224E+01  1.21423435117759E+00
(PID.TID 0000.0001)  ploadbar=  1.01154611666581E+05
 cg2d: Sum(rhs),rhsMax =  -5.90445056609473E+01  1.21393659667203E+00
(PID.TID 0000.0001)  ploadbar=  1.01155633202438E+05
 cg2d: Sum(rhs),rhsMax =  -5.90359704617352E+01  1.21375516118108E+00
(PID.TID 0000.0001)  ploadbar=  1.01156654738294E+05
 cg2d: Sum(rhs),rhsMax =  -5.90285368359385E+01  1.21359338717753E+00
(PID.TID 0000.0001)  ploadbar=  1.01157676274151E+05
 cg2d: Sum(rhs),rhsMax =  -5.90171258782513E+01  1.21355249622056E+00
(PID.TID 0000.0001)  ploadbar=  1.01158697810007E+05
 cg2d: Sum(rhs),rhsMax =  -5.90000355483412E+01  1.21366246265329E+00
(PID.TID 0000.0001)  ploadbar=  1.01159719345864E+05
 cg2d: Sum(rhs),rhsMax =  -5.89766718625204E+01  1.21392656557888E+00
(PID.TID 0000.0001)  ploadbar=  1.01160740881720E+05
 cg2d: Sum(rhs),rhsMax =  -5.89492830709162E+01  1.21427225706567E+00
(PID.TID 0000.0001)  ploadbar=  1.01160328741133E+05
 cg2d: Sum(rhs),rhsMax =  -5.89165058734659E+01  1.21472445245879E+00
(PID.TID 0000.0001)  ploadbar=  1.01159916600547E+05
 cg2d: Sum(rhs),rhsMax =  -5.88770140984951E+01  1.21530243462621E+00
(PID.TID 0000.0001)  ploadbar=  1.01159504459960E+05
 cg2d: Sum(rhs),rhsMax =  -5.88328674996098E+01  1.21595693958545E+00
(PID.TID 0000.0001)  ploadbar=  1.01159092319373E+05
 cg2d: Sum(rhs),rhsMax =  -5.87861790460139E+01  1.21663793652933E+00
(PID.TID 0000.0001)  ploadbar=  1.01158680178786E+05
 cg2d: Sum(rhs),rhsMax =  -5.87381861607413E+01  1.21731608343456E+00
(PID.TID 0000.0001)  ploadbar=  1.01158268038200E+05
 cg2d: Sum(rhs),rhsMax =  -5.86810799869229E+01  1.21820405798210E+00
(PID.TID 0000.0001)  ploadbar=  1.01157250891005E+05
 cg2d: Sum(rhs),rhsMax =  -5.86238121757411E+01  1.21911421156765E+00
(PID.TID 0000.0001)  ploadbar=  1.01156233743810E+05
 cg2d: Sum(rhs),rhsMax =  -5.85738627537019E+01  1.21988759702912E+00
(PID.TID 0000.0001)  ploadbar=  1.01155216596616E+05
 cg2d: Sum(rhs),rhsMax =  -5.85284700666593E+01  1.22057267727426E+00
(PID.TID 0000.0001)  ploadbar=  1.01154199449421E+05
 cg2d: Sum(rhs),rhsMax =  -5.84889004680953E+01  1.22113695720321E+00
(PID.TID 0000.0001)  ploadbar=  1.01153182302226E+05
 cg2d: Sum(rhs),rhsMax =  -5.84583710660602E+01  1.22150616215849E+00
(PID.TID 0000.0001)  ploadbar=  1.01152165155031E+05
 cg2d: Sum(rhs),rhsMax =  -5.84519947817432E+01  1.22131315766870E+00
(PID.TID 0000.0001)  ploadbar=  1.01151734585887E+05
 cg2d: Sum(rhs),rhsMax =  -5.84654928178864E+01  1.22064393770516E+00
(PID.TID 0000.0001)  ploadbar=  1.01151304016742E+05
 cg2d: Sum(rhs),rhsMax =  -5.80442693568933E+01  1.22904977254256E+00
(PID.TID 0000.0001)  ploadbar=  1.01150873447598E+05
 cg2d: Sum(rhs),rhsMax =  -5.67314638753496E+01  1.25696145875089E+00
(PID.TID 0000.0001)  ploadbar=  1.01150442878454E+05
 cg2d: Sum(rhs),rhsMax =  -5.54760872368844E+01  1.28479208713513E+00
(PID.TID 0000.0001)  ploadbar=  1.01150012309309E+05
 cg2d: Sum(rhs),rhsMax =  -5.42986088724889E+01  1.31195287203831E+00
(PID.TID 0000.0001)  ploadbar=  1.01149581740165E+05
 cg2d: Sum(rhs),rhsMax =  -5.32570954889855E+01  1.33697779812066E+00
(PID.TID 0000.0001)  ploadbar=  1.01149070617488E+05
 cg2d: Sum(rhs),rhsMax =  -5.23337064147790E+01  1.36000352533235E+00
(PID.TID 0000.0001)  ploadbar=  1.01148559494811E+05
 cg2d: Sum(rhs),rhsMax =  -5.16513012171389E+01  1.37747688510582E+00
(PID.TID 0000.0001)  ploadbar=  1.01148048372135E+05
 cg2d: Sum(rhs),rhsMax =  -5.11495697110986E+01  1.39056548292928E+00
(PID.TID 0000.0001)  ploadbar=  1.01147537249458E+05
 cg2d: Sum(rhs),rhsMax =  -5.07463822238916E+01  1.40125880915465E+00
(PID.TID 0000.0001)  ploadbar=  1.01147026126781E+05
 cg2d: Sum(rhs),rhsMax =  -5.03797070078492E+01  1.41116245091220E+00
(PID.TID 0000.0001)  ploadbar=  1.01146515004104E+05
 cg2d: Sum(rhs),rhsMax =  -4.99698796578286E+01  1.42246700878202E+00
(PID.TID 0000.0001)  ploadbar=  1.01145398191749E+05
 cg2d: Sum(rhs),rhsMax =  -4.95074708938825E+01  1.43549820528871E+00
(PID.TID 0000.0001)  ploadbar=  1.01144281379393E+05
 cg2d: Sum(rhs),rhsMax =  -4.90036996634010E+01  1.45000868344829E+00
(PID.TID 0000.0001)  ploadbar=  1.01143164567037E+05
 cg2d: Sum(rhs),rhsMax =  -4.84849117013653E+01  1.46528135182793E+00
(PID.TID 0000.0001)  ploadbar=  1.01142047754681E+05
 cg2d: Sum(rhs),rhsMax =  -4.79425370840696E+01  1.48161577857719E+00
(PID.TID 0000.0001)  ploadbar=  1.01140930942325E+05
 cg2d: Sum(rhs),rhsMax =  -4.74394667910125E+01  1.49708439669874E+00
(PID.TID 0000.0001)  ploadbar=  1.01139814129970E+05
 cg2d: Sum(rhs),rhsMax =  -4.69947558665448E+01  1.51099081081119E+00
(PID.TID 0000.0001)  ploadbar=  1.01139931359417E+05
 cg2d: Sum(rhs),rhsMax =  -4.66310026158319E+01  1.52249616320737E+00
(PID.TID 0000.0001)  ploadbar=  1.01140048588864E+05
 cg2d: Sum(rhs),rhsMax =  -4.63518513428990E+01  1.53135982883755E+00
(PID.TID 0000.0001)  ploadbar=  1.01140165818311E+05
 cg2d: Sum(rhs),rhsMax =  -4.61487299625994E+01  1.53776321031196E+00
(PID.TID 0000.0001)  ploadbar=  1.01140283047758E+05
 cg2d: Sum(rhs),rhsMax =  -4.60096512560765E+01  1.54203573261058E+00
(PID.TID 0000.0001)  ploadbar=  1.01140400277205E+05
 cg2d: Sum(rhs),rhsMax =  -4.59186763301064E+01  1.54466964013341E+00
(PID.TID 0000.0001)  ploadbar=  1.01140517506652E+05
 cg2d: Sum(rhs),rhsMax =  -4.58675758589330E+01  1.54591380935388E+00
(PID.TID 0000.0001)  ploadbar=  1.01140714940362E+05
 cg2d: Sum(rhs),rhsMax =  -4.58277076465398E+01  1.54672286318404E+00
(PID.TID 0000.0001)  ploadbar=  1.01140912374071E+05
 cg2d: Sum(rhs),rhsMax =  -4.57914704157791E+01  1.54734747245950E+00
(PID.TID 0000.0001)  ploadbar=  1.01141109807781E+05
 cg2d: Sum(rhs),rhsMax =  -4.57541353476013E+01  1.54794253004233E+00
(PID.TID 0000.0001)  ploadbar=  1.01141307241491E+05
 cg2d: Sum(rhs),rhsMax =  -4.57144428199164E+01  1.54855053385564E+00
(PID.TID 0000.0001)  ploadbar=  1.01141504675200E+05
 cg2d: Sum(rhs),rhsMax =  -4.56742259290674E+01  1.54910871590981E+00
(PID.TID 0000.0001)  ploadbar=  1.01141702108910E+05
 cg2d: Sum(rhs),rhsMax =  -4.56167999517853E+01  1.55032573291508E+00
(PID.TID 0000.0001)  ploadbar=  1.01141320733737E+05
 cg2d: Sum(rhs),rhsMax =  -4.55426381661744E+01  1.55218502232691E+00
(PID.TID 0000.0001)  ploadbar=  1.01140939358565E+05
 cg2d: Sum(rhs),rhsMax =  -4.54607321976247E+01  1.55438158619273E+00
(PID.TID 0000.0001)  ploadbar=  1.01140557983392E+05
 cg2d: Sum(rhs),rhsMax =  -4.55994656569801E+01  1.54911503669681E+00
(PID.TID 0000.0001)  ploadbar=  1.01140176608219E+05
 cg2d: Sum(rhs),rhsMax =  -4.58377978069274E+01  1.54058177987765E+00
(PID.TID 0000.0001)  ploadbar=  1.01139795233047E+05
 cg2d: Sum(rhs),rhsMax =  -4.61258208091507E+01  1.53053330393007E+00
(PID.TID 0000.0001)  ploadbar=  1.01139413857874E+05
 cg2d: Sum(rhs),rhsMax =  -4.64449306459835E+01  1.51961438255927E+00
(PID.TID 0000.0001)  ploadbar=  1.01138831493154E+05
 cg2d: Sum(rhs),rhsMax =  -4.67909749439001E+01  1.50798611470983E+00
(PID.TID 0000.0001)  ploadbar=  1.01138249128433E+05
 cg2d: Sum(rhs),rhsMax =  -4.71643107401727E+01  1.49566971175372E+00
(PID.TID 0000.0001)  ploadbar=  1.01137666763713E+05
 cg2d: Sum(rhs),rhsMax =  -4.75626046282031E+01  1.48277231876857E+00
(PID.TID 0000.0001)  ploadbar=  1.01137084398992E+05
 cg2d: Sum(rhs),rhsMax =  -4.80009004363185E+01  1.46886456507546E+00
(PID.TID 0000.0001)  ploadbar=  1.01136502034272E+05
 cg2d: Sum(rhs),rhsMax =  -4.85276230774039E+01  1.45255244223538E+00
(PID.TID 0000.0001)  ploadbar=  1.01135919669552E+05
 cg2d: Sum(rhs),rhsMax =  -4.90443648052231E+01  1.43688619806533E+00
(PID.TID 0000.0001)  ploadbar=  1.01135696235600E+05
 cg2d: Sum(rhs),rhsMax =  -4.95721287244717E+01  1.42123090856432E+00
(PID.TID 0000.0001)  ploadbar=  1.01135472801648E+05
 cg2d: Sum(rhs),rhsMax =  -5.01231747889590E+01  1.40524761391980E+00
(PID.TID 0000.0001)  ploadbar=  1.01135249367696E+05
 cg2d: Sum(rhs),rhsMax =  -5.07133674755360E+01  1.38853002334410E+00
(PID.TID 0000.0001)  ploadbar=  1.01135025933744E+05
 cg2d: Sum(rhs),rhsMax =  -5.13523226744716E+01  1.37087745656112E+00
(PID.TID 0000.0001)  ploadbar=  1.01134802499792E+05
 cg2d: Sum(rhs),rhsMax =  -5.20451706706804E+01  1.35223409996029E+00
(PID.TID 0000.0001)  ploadbar=  1.01134579065841E+05
 cg2d: Sum(rhs),rhsMax =  -5.26832913926855E+01  1.33544909191466E+00
(PID.TID 0000.0001)  ploadbar=  1.01133836001613E+05
 cg2d: Sum(rhs),rhsMax =  -5.32729679782718E+01  1.32024340588447E+00
(PID.TID 0000.0001)  ploadbar=  1.01133092937385E+05
 cg2d: Sum(rhs),rhsMax =  -5.38402363183967E+01  1.30588978447890E+00
(PID.TID 0000.0001)  ploadbar=  1.01132349873157E+05
 cg2d: Sum(rhs),rhsMax =  -5.44257642096233E+01  1.29137592834531E+00
(PID.TID 0000.0001)  ploadbar=  1.01131606808929E+05
 cg2d: Sum(rhs),rhsMax =  -5.50743169951042E+01  1.27568162835496E+00
(PID.TID 0000.0001)  ploadbar=  1.01130863744701E+05
 cg2d: Sum(rhs),rhsMax =  -5.58254964530988E+01  1.25800717814961E+00
(PID.TID 0000.0001)  ploadbar=  1.01130120680473E+05
 cg2d: Sum(rhs),rhsMax =  -5.65627698762068E+01  1.24115245593538E+00
(PID.TID 0000.0001)  ploadbar=  1.01129803542803E+05
 cg2d: Sum(rhs),rhsMax =  -5.73578976154980E+01  1.22353735262571E+00
(PID.TID 0000.0001)  ploadbar=  1.01129486405133E+05
 cg2d: Sum(rhs),rhsMax =  -5.81512781053932E+01  1.20647665504676E+00
(PID.TID 0000.0001)  ploadbar=  1.01129169267463E+05
 cg2d: Sum(rhs),rhsMax =  -5.89290410471249E+01  1.19022239982983E+00
(PID.TID 0000.0001)  ploadbar=  1.01128852129794E+05
 cg2d: Sum(rhs),rhsMax =  -5.95746084967295E+01  1.17702617881075E+00
(PID.TID 0000.0001)  ploadbar=  1.01128534992124E+05
 cg2d: Sum(rhs),rhsMax =  -6.00265262109753E+01  1.16788956268986E+00
(PID.TID 0000.0001)  ploadbar=  1.01128217854454E+05
 cg2d: Sum(rhs),rhsMax =  -6.03757216557878E+01  1.16088073240642E+00
(PID.TID 0000.0001)  ploadbar=  1.01127231719532E+05
 cg2d: Sum(rhs),rhsMax =  -6.06555562145056E+01  1.15528855525246E+00
(PID.TID 0000.0001)  ploadbar=  1.01126245584610E+05
 cg2d: Sum(rhs),rhsMax =  -6.07390263394437E+01  1.15347909020146E+00
(PID.TID 0000.0001)  ploadbar=  1.01125259449688E+05
 cg2d: Sum(rhs),rhsMax =  -5.99619293572085E+01  1.16821383362478E+00
(PID.TID 0000.0001)  ploadbar=  1.01124273314766E+05
 cg2d: Sum(rhs),rhsMax =  -5.90885368254080E+01  1.18527101121684E+00
(PID.TID 0000.0001)  ploadbar=  1.01123287179844E+05
 cg2d: Sum(rhs),rhsMax =  -5.81324977385748E+01  1.20455201026838E+00
(PID.TID 0000.0001)  ploadbar=  1.01122301044922E+05
 cg2d: Sum(rhs),rhsMax =  -5.70392565545218E+01  1.22741938383812E+00
(PID.TID 0000.0001)  ploadbar=  1.01122453575512E+05
 cg2d: Sum(rhs),rhsMax =  -5.59360263350282E+01  1.25139768232955E+00
(PID.TID 0000.0001)  ploadbar=  1.01122606106102E+05
 cg2d: Sum(rhs),rhsMax =  -5.48462979619138E+01  1.27601546503129E+00
(PID.TID 0000.0001)  ploadbar=  1.01122758636691E+05
 cg2d: Sum(rhs),rhsMax =  -5.37649915041937E+01  1.30141442960712E+00
(PID.TID 0000.0001)  ploadbar=  1.01122911167281E+05
 cg2d: Sum(rhs),rhsMax =  -5.26986202749018E+01  1.32746288729586E+00
(PID.TID 0000.0001)  ploadbar=  1.01123063697871E+05
 cg2d: Sum(rhs),rhsMax =  -5.16444971188599E+01  1.35424264693397E+00
(PID.TID 0000.0001)  ploadbar=  1.01123216228460E+05
 cg2d: Sum(rhs),rhsMax =  -5.07533626253926E+01  1.37766959758727E+00
(PID.TID 0000.0001)  ploadbar=  1.01122750044224E+05
 cg2d: Sum(rhs),rhsMax =  -5.02043974111350E+01  1.39234755295668E+00
(PID.TID 0000.0001)  ploadbar=  1.01122283859988E+05
 cg2d: Sum(rhs),rhsMax =  -4.97815851896511E+01  1.40374982291054E+00
(PID.TID 0000.0001)  ploadbar=  1.01121817675751E+05
 cg2d: Sum(rhs),rhsMax =  -4.94383463771270E+01  1.41303320510253E+00
(PID.TID 0000.0001)  ploadbar=  1.01121351491515E+05
 cg2d: Sum(rhs),rhsMax =  -4.90221667606783E+01  1.42452390027763E+00
(PID.TID 0000.0001)  ploadbar=  1.01120885307279E+05
 cg2d: Sum(rhs),rhsMax =  -4.87002425859302E+01  1.43339131949052E+00
(PID.TID 0000.0001)  ploadbar=  1.01120419123042E+05
 cg2d: Sum(rhs),rhsMax =  -4.85630479003782E+01  1.43693831180601E+00
(PID.TID 0000.0001)  ploadbar=  1.01121045662023E+05
 cg2d: Sum(rhs),rhsMax =  -4.86380690359221E+01  1.43426222972802E+00
(PID.TID 0000.0001)  ploadbar=  1.01121672201004E+05
 cg2d: Sum(rhs),rhsMax =  -4.87730997654077E+01  1.42987233144251E+00
(PID.TID 0000.0001)  ploadbar=  1.01122298739984E+05
 cg2d: Sum(rhs),rhsMax =  -4.89888203518701E+01  1.42319681581445E+00
(PID.TID 0000.0001)  ploadbar=  1.01122925278965E+05
 cg2d: Sum(rhs),rhsMax =  -4.92291697163377E+01  1.41590551553952E+00
(PID.TID 0000.0001)  ploadbar=  1.01123551817946E+05
 cg2d: Sum(rhs),rhsMax =  -4.94513612709714E+01  1.40922863248727E+00
(PID.TID 0000.0001)  ploadbar=  1.01124178356926E+05
 cg2d: Sum(rhs),rhsMax =  -4.95334352468755E+01  1.40658129055430E+00
(PID.TID 0000.0001)  ploadbar=  1.01124805063512E+05
 cg2d: Sum(rhs),rhsMax =  -4.96003562610434E+01  1.40437172308466E+00
(PID.TID 0000.0001)  ploadbar=  1.01125431770097E+05
 cg2d: Sum(rhs),rhsMax =  -4.96709087398302E+01  1.40206119309680E+00
(PID.TID 0000.0001)  ploadbar=  1.01126058476682E+05
 cg2d: Sum(rhs),rhsMax =  -4.97380831806364E+01  1.39984644282584E+00
(PID.TID 0000.0001)  ploadbar=  1.01126685183268E+05
 cg2d: Sum(rhs),rhsMax =  -4.98087737822392E+01  1.39752958650075E+00
(PID.TID 0000.0001)  ploadbar=  1.01127311889853E+05
 cg2d: Sum(rhs),rhsMax =  -4.98883797627438E+01  1.39495585203716E+00
(PID.TID 0000.0001)  ploadbar=  1.01127938596438E+05
 cg2d: Sum(rhs),rhsMax =  -4.99405475097528E+01  1.39315892641457E+00
(PID.TID 0000.0001)  ploadbar=  1.01128126306179E+05
 cg2d: Sum(rhs),rhsMax =  -5.00304233872090E+01  1.39031480673685E+00
(PID.TID 0000.0001)  ploadbar=  1.01128314015919E+05
 cg2d: Sum(rhs),rhsMax =  -5.01885909849390E+01  1.38558755796747E+00
(PID.TID 0000.0001)  ploadbar=  1.01128501725659E+05
 cg2d: Sum(rhs),rhsMax =  -5.04442648616306E+01  1.37821025759087E+00
(PID.TID 0000.0001)  ploadbar=  1.01128689435399E+05
 cg2d: Sum(rhs),rhsMax =  -5.08260807463598E+01  1.36749120272885E+00
(PID.TID 0000.0001)  ploadbar=  1.01128877145140E+05
 cg2d: Sum(rhs),rhsMax =  -5.13594203424273E+01  1.35291047994292E+00
(PID.TID 0000.0001)  ploadbar=  1.01129064854880E+05
 cg2d: Sum(rhs),rhsMax =  -5.19330949698566E+01  1.33755281005509E+00
(PID.TID 0000.0001)  ploadbar=  1.01129288456005E+05
 cg2d: Sum(rhs),rhsMax =  -5.25339715043138E+01  1.32180848180849E+00
(PID.TID 0000.0001)  ploadbar=  1.01129512057130E+05
 cg2d: Sum(rhs),rhsMax =  -5.31196321063623E+01  1.30675699373183E+00
(PID.TID 0000.0001)  ploadbar=  1.01129735658255E+05
 cg2d: Sum(rhs),rhsMax =  -5.36887926452734E+01  1.29239168857174E+00
(PID.TID 0000.0001)  ploadbar=  1.01129959259380E+05
 cg2d: Sum(rhs),rhsMax =  -5.42569797495981E+01  1.27830904673006E+00
(PID.TID 0000.0001)  ploadbar=  1.01130182860506E+05
 cg2d: Sum(rhs),rhsMax =  -5.48439096832992E+01  1.26404327983132E+00
(PID.TID 0000.0001)  ploadbar=  1.01130406461631E+05
 cg2d: Sum(rhs),rhsMax =  -5.56539812319310E+01  1.24516391095980E+00
(PID.TID 0000.0001)  ploadbar=  1.01130340233188E+05
 cg2d: Sum(rhs),rhsMax =  -5.64404926632435E+01  1.22742913105413E+00
(PID.TID 0000.0001)  ploadbar=  1.01130274004746E+05
 cg2d: Sum(rhs),rhsMax =  -5.71647603487107E+01  1.21158607949782E+00
(PID.TID 0000.0001)  ploadbar=  1.01130207776304E+05
 cg2d: Sum(rhs),rhsMax =  -5.77267060775484E+01  1.19958517842705E+00
(PID.TID 0000.0001)  ploadbar=  1.01130141547862E+05
 cg2d: Sum(rhs),rhsMax =  -5.81500088626778E+01  1.19072602878151E+00
(PID.TID 0000.0001)  ploadbar=  1.01130075319419E+05
 cg2d: Sum(rhs),rhsMax =  -5.84803522560786E+01  1.18394612790474E+00
(PID.TID 0000.0001)  ploadbar=  1.01130009090977E+05
 cg2d: Sum(rhs),rhsMax =  -5.86981240678588E+01  1.17948006771001E+00
(PID.TID 0000.0001)  ploadbar=  1.01129859640716E+05
 cg2d: Sum(rhs),rhsMax =  -5.89191165446072E+01  1.17495694668456E+00
(PID.TID 0000.0001)  ploadbar=  1.01129710190454E+05
 cg2d: Sum(rhs),rhsMax =  -5.91232703571775E+01  1.17077322135426E+00
(PID.TID 0000.0001)  ploadbar=  1.01129560740193E+05
 cg2d: Sum(rhs),rhsMax =  -5.93181609976862E+01  1.16677219397068E+00
(PID.TID 0000.0001)  ploadbar=  1.01129411289932E+05
 cg2d: Sum(rhs),rhsMax =  -5.94916332129957E+01  1.16318632447779E+00
(PID.TID 0000.0001)  ploadbar=  1.01129261839671E+05
 cg2d: Sum(rhs),rhsMax =  -5.96284654024870E+01  1.16030157932611E+00
(PID.TID 0000.0001)  ploadbar=  1.01129112389409E+05
 cg2d: Sum(rhs),rhsMax =  -5.95424879203779E+01  1.16176265988234E+00
(PID.TID 0000.0001)  ploadbar=  1.01129549914557E+05
 cg2d: Sum(rhs),rhsMax =  -5.94904438971417E+01  1.16256423928357E+00
(PID.TID 0000.0001)  ploadbar=  1.01129987439705E+05
 cg2d: Sum(rhs),rhsMax =  -5.94613242581340E+01  1.16291664175932E+00
(PID.TID 0000.0001)  ploadbar=  1.01130424964853E+05
 cg2d: Sum(rhs),rhsMax =  -5.94195654318094E+01  1.16350998203180E+00
(PID.TID 0000.0001)  ploadbar=  1.01130862490000E+05
 cg2d: Sum(rhs),rhsMax =  -5.93808942275644E+01  1.16403238225449E+00
(PID.TID 0000.0001)  ploadbar=  1.01131300015148E+05
 cg2d: Sum(rhs),rhsMax =  -5.94180222240007E+01  1.16305522364905E+00
(PID.TID 0000.0001)  ploadbar=  1.01131737540296E+05
 cg2d: Sum(rhs),rhsMax =  -5.96242677456394E+01  1.15876994940618E+00
(PID.TID 0000.0001)  ploadbar=  1.01130988179612E+05
 cg2d: Sum(rhs),rhsMax =  -5.98892392180355E+01  1.15336924593621E+00
(PID.TID 0000.0001)  ploadbar=  1.01130238818927E+05
 cg2d: Sum(rhs),rhsMax =  -6.02064855229483E+01  1.14700423410235E+00
(PID.TID 0000.0001)  ploadbar=  1.01129489458243E+05
 cg2d: Sum(rhs),rhsMax =  -6.05582904585884E+01  1.14004055715405E+00
(PID.TID 0000.0001)  ploadbar=  1.01128740097559E+05
 cg2d: Sum(rhs),rhsMax =  -6.09253757926277E+01  1.13285976797458E+00
(PID.TID 0000.0001)  ploadbar=  1.01127990736875E+05
 cg2d: Sum(rhs),rhsMax =  -6.11284211898003E+01  1.12877246049580E+00
(PID.TID 0000.0001)  ploadbar=  1.01127241376190E+05
 cg2d: Sum(rhs),rhsMax =  -6.14591017176643E+01  1.12241547114219E+00
(PID.TID 0000.0001)  ploadbar=  1.01125499179574E+05
 cg2d: Sum(rhs),rhsMax =  -6.18603238648536E+01  1.11488681575767E+00
(PID.TID 0000.0001)  ploadbar=  1.01123756982958E+05
 cg2d: Sum(rhs),rhsMax =  -6.23477227751069E+01  1.10595624011036E+00
(PID.TID 0000.0001)  ploadbar=  1.01122014786341E+05
 cg2d: Sum(rhs),rhsMax =  -6.29393514572463E+01  1.09537768686462E+00
(PID.TID 0000.0001)  ploadbar=  1.01120272589725E+05
 cg2d: Sum(rhs),rhsMax =  -6.32006124024984E+01  1.09069843246418E+00
(PID.TID 0000.0001)  ploadbar=  1.01118530393108E+05
 cg2d: Sum(rhs),rhsMax =  -6.32994518160332E+01  1.08887268843514E+00
(PID.TID 0000.0001)  ploadbar=  1.01116788196492E+05
 cg2d: Sum(rhs),rhsMax =  -6.34060571945938E+01  1.08691499672055E+00
(PID.TID 0000.0001)  ploadbar=  1.01116852702411E+05
 cg2d: Sum(rhs),rhsMax =  -6.35149992910381E+01  1.08491765916926E+00
(PID.TID 0000.0001)  ploadbar=  1.01116917208330E+05
 cg2d: Sum(rhs),rhsMax =  -6.36197744039122E+01  1.08299017309511E+00
(PID.TID 0000.0001)  ploadbar=  1.01116981714249E+05
 cg2d: Sum(rhs),rhsMax =  -6.37198473366553E+01  1.08113833342853E+00
(PID.TID 0000.0001)  ploadbar=  1.01117046220167E+05
 cg2d: Sum(rhs),rhsMax =  -6.38134727040186E+01  1.07938763636106E+00
(PID.TID 0000.0001)  ploadbar=  1.01117110726086E+05
 cg2d: Sum(rhs),rhsMax =  -6.38999756574722E+01  1.07774473397581E+00
(PID.TID 0000.0001)  ploadbar=  1.01117175232005E+05
 cg2d: Sum(rhs),rhsMax =  -6.39858647040127E+01  1.07613528133233E+00
(PID.TID 0000.0001)  ploadbar=  1.01118487521576E+05
 cg2d: Sum(rhs),rhsMax =  -6.40788732443006E+01  1.07442677669228E+00
(PID.TID 0000.0001)  ploadbar=  1.01119799811146E+05
 cg2d: Sum(rhs),rhsMax =  -6.41668699382641E+01  1.07282091198435E+00
(PID.TID 0000.0001)  ploadbar=  1.01121112100717E+05
 cg2d: Sum(rhs),rhsMax =  -6.42530356960981E+01  1.07126256051315E+00
(PID.TID 0000.0001)  ploadbar=  1.01122424390288E+05
 cg2d: Sum(rhs),rhsMax =  -6.43355174006979E+01  1.06977947970468E+00
(PID.TID 0000.0001)  ploadbar=  1.01123736679859E+05
 cg2d: Sum(rhs),rhsMax =  -6.44094695164103E+01  1.06844457003083E+00
(PID.TID 0000.0001)  ploadbar=  1.01125048969429E+05
 cg2d: Sum(rhs),rhsMax =  -6.44815207071230E+01  1.06711501400653E+00
(PID.TID 0000.0001)  ploadbar=  1.01125769583376E+05
 cg2d: Sum(rhs),rhsMax =  -6.45614273776468E+01  1.06562852917187E+00
(PID.TID 0000.0001)  ploadbar=  1.01126490197322E+05
 cg2d: Sum(rhs),rhsMax =  -6.46455439187728E+01  1.06404441152342E+00
(PID.TID 0000.0001)  ploadbar=  1.01127210811269E+05
 cg2d: Sum(rhs),rhsMax =  -6.47341597016409E+01  1.06235706862358E+00
(PID.TID 0000.0001)  ploadbar=  1.01127931425216E+05
 cg2d: Sum(rhs),rhsMax =  -6.48262815285744E+01  1.06058198939178E+00
(PID.TID 0000.0001)  ploadbar=  1.01128652039162E+05
 cg2d: Sum(rhs),rhsMax =  -6.49194468020312E+01  1.05875771749866E+00
(PID.TID 0000.0001)  ploadbar=  1.01129372653109E+05
 cg2d: Sum(rhs),rhsMax =  -6.50577759206787E+01  1.05626820536687E+00
(PID.TID 0000.0001)  ploadbar=  1.01129733617350E+05
 cg2d: Sum(rhs),rhsMax =  -6.52064901103159E+01  1.05368222718823E+00
(PID.TID 0000.0001)  ploadbar=  1.01130094581592E+05
 cg2d: Sum(rhs),rhsMax =  -6.53720226806033E+01  1.05089683333751E+00
(PID.TID 0000.0001)  ploadbar=  1.01130455545833E+05
 cg2d: Sum(rhs),rhsMax =  -6.55482683136457E+01  1.04801103686061E+00
(PID.TID 0000.0001)  ploadbar=  1.01130816510075E+05
 cg2d: Sum(rhs),rhsMax =  -6.57274056039777E+01  1.04514902887265E+00
(PID.TID 0000.0001)  ploadbar=  1.01131177474317E+05
 cg2d: Sum(rhs),rhsMax =  -6.59031468376087E+01  1.04240861591602E+00
(PID.TID 0000.0001)  ploadbar=  1.01131538438558E+05
 cg2d: Sum(rhs),rhsMax =  -6.60514501189674E+01  1.04011186562650E+00
(PID.TID 0000.0001)  ploadbar=  1.01131894109103E+05
 cg2d: Sum(rhs),rhsMax =  -6.61933853113430E+01  1.03791897837250E+00
(PID.TID 0000.0001)  ploadbar=  1.01132249779649E+05
 cg2d: Sum(rhs),rhsMax =  -6.63454602077624E+01  1.03556959178709E+00
(PID.TID 0000.0001)  ploadbar=  1.01132605450194E+05
 cg2d: Sum(rhs),rhsMax =  -6.65022666245073E+01  1.03314640691392E+00
(PID.TID 0000.0001)  ploadbar=  1.01132961120739E+05
 cg2d: Sum(rhs),rhsMax =  -6.66649647202649E+01  1.03062720065141E+00
(PID.TID 0000.0001)  ploadbar=  1.01133316791284E+05
 cg2d: Sum(rhs),rhsMax =  -6.68384225820527E+01  1.02793506770830E+00
(PID.TID 0000.0001)  ploadbar=  1.01133672461830E+05
 cg2d: Sum(rhs),rhsMax =  -6.70977278065385E+01  1.02395982319272E+00
(PID.TID 0000.0001)  ploadbar=  1.01134885946353E+05
 cg2d: Sum(rhs),rhsMax =  -6.73689784851316E+01  1.01984704027018E+00
(PID.TID 0000.0001)  ploadbar=  1.01136099430877E+05
 cg2d: Sum(rhs),rhsMax =  -6.76512849489565E+01  1.01560736145320E+00
(PID.TID 0000.0001)  ploadbar=  1.01137312915400E+05
 cg2d: Sum(rhs),rhsMax =  -6.79526052222520E+01  1.01112076939011E+00
(PID.TID 0000.0001)  ploadbar=  1.01138526399924E+05
 cg2d: Sum(rhs),rhsMax =  -6.82789984816635E+01  1.00630179667948E+00
(PID.TID 0000.0001)  ploadbar=  1.01139739884447E+05
 cg2d: Sum(rhs),rhsMax =  -6.86416091164702E+01  1.00099399554338E+00
(PID.TID 0000.0001)  ploadbar=  1.01140953368971E+05
 cg2d: Sum(rhs),rhsMax =  -6.89492474848044E+01  9.96482223028806E-01
(PID.TID 0000.0001)  ploadbar=  1.01140354532123E+05
 cg2d: Sum(rhs),rhsMax =  -6.92581222930488E+01  9.91937811409108E-01
(PID.TID 0000.0001)  ploadbar=  1.01139755695275E+05
 cg2d: Sum(rhs),rhsMax =  -6.95645455570896E+01  9.87412844966465E-01
(PID.TID 0000.0001)  ploadbar=  1.01139156858427E+05
 cg2d: Sum(rhs),rhsMax =  -6.98574950131748E+01  9.83060361140470E-01
(PID.TID 0000.0001)  ploadbar=  1.01138558021579E+05
 cg2d: Sum(rhs),rhsMax =  -7.01393086719895E+01  9.78841411837138E-01
(PID.TID 0000.0001)  ploadbar=  1.01137959184731E+05
 cg2d: Sum(rhs),rhsMax =  -7.04094958678863E+01  9.74758918328989E-01
(PID.TID 0000.0001)  ploadbar=  1.01137360347884E+05
 cg2d: Sum(rhs),rhsMax =  -7.06045563319209E+01  9.71770094964671E-01
(PID.TID 0000.0001)  ploadbar=  1.01137710124583E+05
 cg2d: Sum(rhs),rhsMax =  -7.07898904805394E+01  9.68958221331905E-01
(PID.TID 0000.0001)  ploadbar=  1.01138059901282E+05
 cg2d: Sum(rhs),rhsMax =  -7.09868587221938E+01  9.66026799468597E-01
(PID.TID 0000.0001)  ploadbar=  1.01138409677981E+05
 cg2d: Sum(rhs),rhsMax =  -7.11838506237636E+01  9.63131586610442E-01
(PID.TID 0000.0001)  ploadbar=  1.01138759454680E+05
 cg2d: Sum(rhs),rhsMax =  -7.13766326686924E+01  9.60327328883407E-01
(PID.TID 0000.0001)  ploadbar=  1.01139109231379E+05
 cg2d: Sum(rhs),rhsMax =  -7.15599574104007E+01  9.57680004263220E-01
(PID.TID 0000.0001)  ploadbar=  1.01139459008078E+05
 cg2d: Sum(rhs),rhsMax =  -7.17125898995200E+01  9.55465094209982E-01
(PID.TID 0000.0001)  ploadbar=  1.01139039124933E+05
 cg2d: Sum(rhs),rhsMax =  -7.18295237037830E+01  9.53740149065808E-01
(PID.TID 0000.0001)  ploadbar=  1.01138619241788E+05
 cg2d: Sum(rhs),rhsMax =  -7.19028886512609E+01  9.52602529141037E-01
(PID.TID 0000.0001)  ploadbar=  1.01138199358643E+05
 cg2d: Sum(rhs),rhsMax =  -7.19509795206294E+01  9.51805700975541E-01
(PID.TID 0000.0001)  ploadbar=  1.01137779475498E+05
 cg2d: Sum(rhs),rhsMax =  -7.19806874653573E+01  9.51255901613983E-01
(PID.TID 0000.0001)  ploadbar=  1.01137359592353E+05
 cg2d: Sum(rhs),rhsMax =  -7.19934816084412E+01  9.50931422889881E-01
(PID.TID 0000.0001)  ploadbar=  1.01136939709208E+05
 cg2d: Sum(rhs),rhsMax =  -7.20721397988921E+01  9.49745964251683E-01
(PID.TID 0000.0001)  ploadbar=  1.01138474762085E+05
 cg2d: Sum(rhs),rhsMax =  -7.21741602627137E+01  9.48259553173846E-01
(PID.TID 0000.0001)  ploadbar=  1.01140009814961E+05
 cg2d: Sum(rhs),rhsMax =  -7.22865684138032E+01  9.46639607910033E-01
(PID.TID 0000.0001)  ploadbar=  1.01141544867837E+05
 cg2d: Sum(rhs),rhsMax =  -7.24156869721799E+01  9.44801629429396E-01
(PID.TID 0000.0001)  ploadbar=  1.01143079920713E+05
 cg2d: Sum(rhs),rhsMax =  -7.25592348354236E+01  9.42776428715678E-01
(PID.TID 0000.0001)  ploadbar=  1.01144614973590E+05
 cg2d: Sum(rhs),rhsMax =  -7.27139776342289E+01  9.40606308937150E-01
(PID.TID 0000.0001)  ploadbar=  1.01146150026466E+05
 cg2d: Sum(rhs),rhsMax =  -7.29474329810456E+01  9.37410834074375E-01
(PID.TID 0000.0001)  ploadbar=  1.01145852031405E+05
 cg2d: Sum(rhs),rhsMax =  -7.32097214072331E+01  9.33845472574061E-01
(PID.TID 0000.0001)  ploadbar=  1.01145554036344E+05
 cg2d: Sum(rhs),rhsMax =  -7.35072326560704E+01  9.29837041804863E-01
(PID.TID 0000.0001)  ploadbar=  1.01145256041283E+05
 cg2d: Sum(rhs),rhsMax =  -7.38523411146903E+01  9.25240318045415E-01
(PID.TID 0000.0001)  ploadbar=  1.01144958046222E+05
 cg2d: Sum(rhs),rhsMax =  -7.42568750215353E+01  9.19925500666707E-01
(PID.TID 0000.0001)  ploadbar=  1.01144660051161E+05
 cg2d: Sum(rhs),rhsMax =  -7.47334416660569E+01  9.13761398229290E-01
(PID.TID 0000.0001)  ploadbar=  1.01144362056100E+05
 cg2d: Sum(rhs),rhsMax =  -7.52095404336615E+01  9.07719319945984E-01
(PID.TID 0000.0001)  ploadbar=  1.01144043623650E+05
 cg2d: Sum(rhs),rhsMax =  -7.57347179970361E+01  9.01205692277546E-01
(PID.TID 0000.0001)  ploadbar=  1.01143725191201E+05
 cg2d: Sum(rhs),rhsMax =  -7.43281446673839E+01  9.18072723402155E-01
(PID.TID 0000.0001)  ploadbar=  1.01143406758752E+05
 cg2d: Sum(rhs),rhsMax =  -7.11431195373549E+01  9.59014349976368E-01
(PID.TID 0000.0001)  ploadbar=  1.01143088326303E+05
 cg2d: Sum(rhs),rhsMax =  -6.81602190385490E+01  1.00085020330386E+00
(PID.TID 0000.0001)  ploadbar=  1.01142769893853E+05
 cg2d: Sum(rhs),rhsMax =  -6.54382157939612E+01  1.04237217761065E+00
(PID.TID 0000.0001)  ploadbar=  1.01142451461404E+05
 cg2d: Sum(rhs),rhsMax =  -6.32174296912893E+01  1.07890791237531E+00
(PID.TID 0000.0001)  ploadbar=  1.01140919505926E+05
 cg2d: Sum(rhs),rhsMax =  -6.13898945105461E+01  1.11097241482855E+00
(PID.TID 0000.0001)  ploadbar=  1.01139387550449E+05
 cg2d: Sum(rhs),rhsMax =  -5.98816453986705E+01  1.13892831442267E+00
(PID.TID 0000.0001)  ploadbar=  1.01137855594971E+05
 cg2d: Sum(rhs),rhsMax =  -5.86926027165892E+01  1.16200261422335E+00
(PID.TID 0000.0001)  ploadbar=  1.01136323639493E+05
 cg2d: Sum(rhs),rhsMax =  -5.78323798251112E+01  1.17931477231679E+00
(PID.TID 0000.0001)  ploadbar=  1.01134791684015E+05
 cg2d: Sum(rhs),rhsMax =  -5.72571421891568E+01  1.19121615492614E+00
(PID.TID 0000.0001)  ploadbar=  1.01133259728538E+05
 cg2d: Sum(rhs),rhsMax =  -5.68706197684283E+01  1.19936293775981E+00
(PID.TID 0000.0001)  ploadbar=  1.01131319470125E+05
 cg2d: Sum(rhs),rhsMax =  -5.65349371195080E+01  1.20652653050077E+00
(PID.TID 0000.0001)  ploadbar=  1.01129379211712E+05
 cg2d: Sum(rhs),rhsMax =  -5.62293478209533E+01  1.21311124059571E+00
(PID.TID 0000.0001)  ploadbar=  1.01127438953299E+05
 cg2d: Sum(rhs),rhsMax =  -5.59486877878886E+01  1.21920701389879E+00
(PID.TID 0000.0001)  ploadbar=  1.01125498694887E+05
 cg2d: Sum(rhs),rhsMax =  -5.57019957170222E+01  1.22459493016358E+00
(PID.TID 0000.0001)  ploadbar=  1.01123558436474E+05
 cg2d: Sum(rhs),rhsMax =  -5.55038107614819E+01  1.22893065977679E+00
(PID.TID 0000.0001)  ploadbar=  1.01121618178061E+05
 cg2d: Sum(rhs),rhsMax =  -5.53371312467728E+01  1.23255906130683E+00
(PID.TID 0000.0001)  ploadbar=  1.01119780079373E+05
 cg2d: Sum(rhs),rhsMax =  -5.52375311494557E+01  1.23466985929203E+00
(PID.TID 0000.0001)  ploadbar=  1.01117941980685E+05
 cg2d: Sum(rhs),rhsMax =  -5.51931591186946E+01  1.23551127759125E+00
(PID.TID 0000.0001)  ploadbar=  1.01116103881996E+05
 cg2d: Sum(rhs),rhsMax =  -5.51856030786955E+01  1.23548735838329E+00
(PID.TID 0000.0001)  ploadbar=  1.01114265783308E+05
 cg2d: Sum(rhs),rhsMax =  -5.51957113443323E+01  1.23501939156977E+00
(PID.TID 0000.0001)  ploadbar=  1.01112427684620E+05
 cg2d: Sum(rhs),rhsMax =  -5.51998550213412E+01  1.23463586845107E+00
(PID.TID 0000.0001)  ploadbar=  1.01110589585931E+05
 cg2d: Sum(rhs),rhsMax =  -5.51488211625769E+01  1.23556226032178E+00
(PID.TID 0000.0001)  ploadbar=  1.01109603580876E+05
 cg2d: Sum(rhs),rhsMax =  -5.50815792120780E+01  1.23692676892583E+00
(PID.TID 0000.0001)  ploadbar=  1.01108617575820E+05
 cg2d: Sum(rhs),rhsMax =  -5.50678512410716E+01  1.23716067580054E+00
(PID.TID 0000.0001)  ploadbar=  1.01107631570765E+05
 cg2d: Sum(rhs),rhsMax =  -5.50963894196697E+01  1.23651095206027E+00
(PID.TID 0000.0001)  ploadbar=  1.01106645565709E+05
 cg2d: Sum(rhs),rhsMax =  -5.51684530835193E+01  1.23494817342072E+00
(PID.TID 0000.0001)  ploadbar=  1.01105659560653E+05
 cg2d: Sum(rhs),rhsMax =  -5.53015182066003E+01  1.23208770088262E+00
(PID.TID 0000.0001)  ploadbar=  1.01104673555598E+05
 cg2d: Sum(rhs),rhsMax =  -5.54683712301222E+01  1.22847839339123E+00
(PID.TID 0000.0001)  ploadbar=  1.01103958698674E+05
 cg2d: Sum(rhs),rhsMax =  -5.56846946750341E+01  1.22378461777102E+00
(PID.TID 0000.0001)  ploadbar=  1.01103243841751E+05
 cg2d: Sum(rhs),rhsMax =  -5.59538045357630E+01  1.21795788026091E+00
(PID.TID 0000.0001)  ploadbar=  1.01102528984827E+05
 cg2d: Sum(rhs),rhsMax =  -5.62936424687497E+01  1.21064204280578E+00
(PID.TID 0000.0001)  ploadbar=  1.01101814127904E+05
 cg2d: Sum(rhs),rhsMax =  -5.67144984960109E+01  1.20166886086433E+00
(PID.TID 0000.0001)  ploadbar=  1.01101099270980E+05
 cg2d: Sum(rhs),rhsMax =  -5.72123715848848E+01  1.19119356431708E+00
(PID.TID 0000.0001)  ploadbar=  1.01100384414056E+05
 cg2d: Sum(rhs),rhsMax =  -5.77579626392131E+01  1.17990200941187E+00
(PID.TID 0000.0001)  ploadbar=  1.01098876136126E+05
 cg2d: Sum(rhs),rhsMax =  -5.83844064381151E+01  1.16717689860915E+00
(PID.TID 0000.0001)  ploadbar=  1.01097367858196E+05
 cg2d: Sum(rhs),rhsMax =  -5.90645735495712E+01  1.15364031478053E+00
(PID.TID 0000.0001)  ploadbar=  1.01095859580266E+05
 cg2d: Sum(rhs),rhsMax =  -5.98148758107506E+01  1.13904034857251E+00
(PID.TID 0000.0001)  ploadbar=  1.01094351302336E+05
 cg2d: Sum(rhs),rhsMax =  -6.06460357959108E+01  1.12326608880470E+00
(PID.TID 0000.0001)  ploadbar=  1.01092843024406E+05
 cg2d: Sum(rhs),rhsMax =  -6.03203803588755E+01  1.12912703110773E+00
(PID.TID 0000.0001)  ploadbar=  1.01091334746476E+05
 cg2d: Sum(rhs),rhsMax =  -5.91776532587778E+01  1.15069013184614E+00
(PID.TID 0000.0001)  ploadbar=  1.01090510690710E+05
 cg2d: Sum(rhs),rhsMax =  -5.80213282393650E+01  1.17334274232359E+00
(PID.TID 0000.0001)  ploadbar=  1.01089686634944E+05
 cg2d: Sum(rhs),rhsMax =  -5.68673219619523E+01  1.19683142212315E+00
(PID.TID 0000.0001)  ploadbar=  1.01088862579179E+05
 cg2d: Sum(rhs),rhsMax =  -5.57322535065751E+01  1.22083523712566E+00
(PID.TID 0000.0001)  ploadbar=  1.01088038523413E+05
 cg2d: Sum(rhs),rhsMax =  -5.46254981667809E+01  1.24514248507030E+00
(PID.TID 0000.0001)  ploadbar=  1.01087214467647E+05
 cg2d: Sum(rhs),rhsMax =  -5.35593277040585E+01  1.26944139465533E+00
(PID.TID 0000.0001)  ploadbar=  1.01086390411881E+05
 cg2d: Sum(rhs),rhsMax =  -5.25928160522045E+01  1.29235165522037E+00
(PID.TID 0000.0001)  ploadbar=  1.01085996581884E+05
 cg2d: Sum(rhs),rhsMax =  -5.17181553341241E+01  1.31385803338733E+00
(PID.TID 0000.0001)  ploadbar=  1.01085602751887E+05
 cg2d: Sum(rhs),rhsMax =  -5.09390407344848E+01  1.33366661187676E+00
(PID.TID 0000.0001)  ploadbar=  1.01085208921889E+05
 cg2d: Sum(rhs),rhsMax =  -5.02455045809113E+01  1.35184647575780E+00
(PID.TID 0000.0001)  ploadbar=  1.01084815091892E+05
 cg2d: Sum(rhs),rhsMax =  -4.96236304441862E+01  1.36861061785171E+00
(PID.TID 0000.0001)  ploadbar=  1.01084421261895E+05
 cg2d: Sum(rhs),rhsMax =  -4.90585997908075E+01  1.38424112572704E+00
(PID.TID 0000.0001)  ploadbar=  1.01084027431897E+05
 cg2d: Sum(rhs),rhsMax =  -4.85110219764509E+01  1.39974234896710E+00
(PID.TID 0000.0001)  ploadbar=  1.01083930055933E+05
 cg2d: Sum(rhs),rhsMax =  -4.79909161971301E+01  1.41479198921426E+00
(PID.TID 0000.0001)  ploadbar=  1.01083832679969E+05
 cg2d: Sum(rhs),rhsMax =  -4.75048269497075E+01  1.42915083186803E+00
(PID.TID 0000.0001)  ploadbar=  1.01083735304004E+05
 cg2d: Sum(rhs),rhsMax =  -4.70443749965484E+01  1.44302151184532E+00
(PID.TID 0000.0001)  ploadbar=  1.01083637928040E+05
 cg2d: Sum(rhs),rhsMax =  -4.66049206564720E+01  1.45650872044509E+00
(PID.TID 0000.0001)  ploadbar=  1.01083540552076E+05
 cg2d: Sum(rhs),rhsMax =  -4.61836488617732E+01  1.46966854561449E+00
(PID.TID 0000.0001)  ploadbar=  1.01083443176111E+05
 cg2d: Sum(rhs),rhsMax =  -4.58078667852494E+01  1.48158080240663E+00
(PID.TID 0000.0001)  ploadbar=  1.01083004729416E+05
 cg2d: Sum(rhs),rhsMax =  -4.54626409869109E+01  1.49266345965552E+00
(PID.TID 0000.0001)  ploadbar=  1.01082566282721E+05
 cg2d: Sum(rhs),rhsMax =  -4.51480576144953E+01  1.50286818404972E+00
(PID.TID 0000.0001)  ploadbar=  1.01082127836026E+05
 cg2d: Sum(rhs),rhsMax =  -4.48663515786281E+01  1.51207557838400E+00
(PID.TID 0000.0001)  ploadbar=  1.01081689389330E+05
 cg2d: Sum(rhs),rhsMax =  -4.46160543898005E+01  1.52029141575567E+00
(PID.TID 0000.0001)  ploadbar=  1.01081250942635E+05
 cg2d: Sum(rhs),rhsMax =  -4.43948710296846E+01  1.52755674139799E+00
(PID.TID 0000.0001)  ploadbar=  1.01080812495940E+05
 cg2d: Sum(rhs),rhsMax =  -4.41810411419879E+01  1.53459818983164E+00
(PID.TID 0000.0001)  ploadbar=  1.01080532984969E+05
 cg2d: Sum(rhs),rhsMax =  -4.39805087407923E+01  1.54119287714778E+00
(PID.TID 0000.0001)  ploadbar=  1.01080253473999E+05
 cg2d: Sum(rhs),rhsMax =  -4.37946368289015E+01  1.54726705631685E+00
(PID.TID 0000.0001)  ploadbar=  1.01079973963028E+05
 cg2d: Sum(rhs),rhsMax =  -4.36221530076741E+01  1.55284684513722E+00
(PID.TID 0000.0001)  ploadbar=  1.01079694452057E+05
 cg2d: Sum(rhs),rhsMax =  -4.34638675102858E+01  1.55788741555231E+00
(PID.TID 0000.0001)  ploadbar=  1.01079414941086E+05
 cg2d: Sum(rhs),rhsMax =  -4.33218388502980E+01  1.56230794439291E+00
(PID.TID 0000.0001)  ploadbar=  1.01079135430116E+05
 cg2d: Sum(rhs),rhsMax =  -4.31984069229864E+01  1.56618786298210E+00
(PID.TID 0000.0001)  ploadbar=  1.01077883336689E+05
 cg2d: Sum(rhs),rhsMax =  -4.31044848390172E+01  1.56911875448199E+00
(PID.TID 0000.0001)  ploadbar=  1.01076631243261E+05
 cg2d: Sum(rhs),rhsMax =  -4.30347155870743E+01  1.57127703505732E+00
(PID.TID 0000.0001)  ploadbar=  1.01075379149834E+05
 cg2d: Sum(rhs),rhsMax =  -4.29856259858564E+01  1.57276881168556E+00
(PID.TID 0000.0001)  ploadbar=  1.01074127056407E+05
 cg2d: Sum(rhs),rhsMax =  -4.29534123695390E+01  1.57371665884620E+00
(PID.TID 0000.0001)  ploadbar=  1.01072874962980E+05
 cg2d: Sum(rhs),rhsMax =  -4.29324766121383E+01  1.57430516009885E+00
(PID.TID 0000.0001)  ploadbar=  1.01071622869553E+05
 cg2d: Sum(rhs),rhsMax =  -4.29202729078331E+01  1.57451690298182E+00
(PID.TID 0000.0001)  ploadbar=  1.01071646639080E+05
 cg2d: Sum(rhs),rhsMax =  -4.29113258363450E+01  1.57454447357721E+00
(PID.TID 0000.0001)  ploadbar=  1.01071670408606E+05
 cg2d: Sum(rhs),rhsMax =  -4.29113414093259E+01  1.57417378559778E+00
(PID.TID 0000.0001)  ploadbar=  1.01071694178133E+05
 cg2d: Sum(rhs),rhsMax =  -4.29267671174259E+01  1.57316719748106E+00
(PID.TID 0000.0001)  ploadbar=  1.01071717947660E+05
 cg2d: Sum(rhs),rhsMax =  -4.29615274751561E+01  1.57137568916492E+00
(PID.TID 0000.0001)  ploadbar=  1.01071741717187E+05
 cg2d: Sum(rhs),rhsMax =  -4.30178245982480E+01  1.56871877480348E+00
(PID.TID 0000.0001)  ploadbar=  1.01071765486713E+05
 cg2d: Sum(rhs),rhsMax =  -4.31147115753657E+01  1.56462351492297E+00
(PID.TID 0000.0001)  ploadbar=  1.01071777061769E+05
 cg2d: Sum(rhs),rhsMax =  -4.32258085437508E+01  1.56004944493422E+00
(PID.TID 0000.0001)  ploadbar=  1.01071788636826E+05
 cg2d: Sum(rhs),rhsMax =  -4.33492660193253E+01  1.55505890051926E+00
(PID.TID 0000.0001)  ploadbar=  1.01071800211882E+05
 cg2d: Sum(rhs),rhsMax =  -4.34863708323938E+01  1.54960877293414E+00
(PID.TID 0000.0001)  ploadbar=  1.01071811786938E+05
 cg2d: Sum(rhs),rhsMax =  -4.36352773603005E+01  1.54376678238332E+00
(PID.TID 0000.0001)  ploadbar=  1.01071823361994E+05
 cg2d: Sum(rhs),rhsMax =  -4.37964490602677E+01  1.53751694007350E+00
(PID.TID 0000.0001)  ploadbar=  1.01071834937050E+05
 cg2d: Sum(rhs),rhsMax =  -4.39495736622679E+01  1.53153424998335E+00
(PID.TID 0000.0001)  ploadbar=  1.01071747452683E+05
 cg2d: Sum(rhs),rhsMax =  -4.41100340238206E+01  1.52527082080161E+00
(PID.TID 0000.0001)  ploadbar=  1.01071659968316E+05
 cg2d: Sum(rhs),rhsMax =  -4.42776449467832E+01  1.51873056698453E+00
(PID.TID 0000.0001)  ploadbar=  1.01071572483949E+05
 cg2d: Sum(rhs),rhsMax =  -4.44526408580397E+01  1.51189542672657E+00
(PID.TID 0000.0001)  ploadbar=  1.01071484999582E+05
 cg2d: Sum(rhs),rhsMax =  -4.46350198468150E+01  1.50476785713767E+00
(PID.TID 0000.0001)  ploadbar=  1.01071397515215E+05
 cg2d: Sum(rhs),rhsMax =  -4.48239931291781E+01  1.49738481154622E+00
(PID.TID 0000.0001)  ploadbar=  1.01071310030848E+05
 cg2d: Sum(rhs),rhsMax =  -4.50144194299365E+01  1.49013502059835E+00
(PID.TID 0000.0001)  ploadbar=  1.01070367543600E+05
 cg2d: Sum(rhs),rhsMax =  -4.52126624540763E+01  1.48280618892003E+00
(PID.TID 0000.0001)  ploadbar=  1.01069425056353E+05
 cg2d: Sum(rhs),rhsMax =  -4.54198722650208E+01  1.47536108949289E+00
(PID.TID 0000.0001)  ploadbar=  1.01068482569105E+05
 cg2d: Sum(rhs),rhsMax =  -4.56309842566255E+01  1.46796049625836E+00
(PID.TID 0000.0001)  ploadbar=  1.01067540081858E+05
 cg2d: Sum(rhs),rhsMax =  -4.45571503581571E+01  1.50284313783292E+00
(PID.TID 0000.0001)  ploadbar=  1.01066597594610E+05
 cg2d: Sum(rhs),rhsMax =  -4.32402470766782E+01  1.54819191962772E+00
(PID.TID 0000.0001)  ploadbar=  1.01065655107363E+05
 cg2d: Sum(rhs),rhsMax =  -4.20783354828472E+01  1.59048226426358E+00
(PID.TID 0000.0001)  ploadbar=  1.01064799105323E+05
 cg2d: Sum(rhs),rhsMax =  -4.10535029564751E+01  1.62967500284450E+00
(PID.TID 0000.0001)  ploadbar=  1.01063943103282E+05
 cg2d: Sum(rhs),rhsMax =  -4.01715698055069E+01  1.66487970611181E+00
(PID.TID 0000.0001)  ploadbar=  1.01063087101242E+05
 cg2d: Sum(rhs),rhsMax =  -3.94388638842091E+01  1.69517119485571E+00
(PID.TID 0000.0001)  ploadbar=  1.01062231099202E+05
 cg2d: Sum(rhs),rhsMax =  -3.88254508731896E+01  1.72124374183421E+00
(PID.TID 0000.0001)  ploadbar=  1.01061375097161E+05
 cg2d: Sum(rhs),rhsMax =  -3.83371670665074E+01  1.74238158395767E+00
(PID.TID 0000.0001)  ploadbar=  1.01060519095121E+05
 cg2d: Sum(rhs),rhsMax =  -3.81058286530341E+01  1.75224374573703E+00
(PID.TID 0000.0001)  ploadbar=  1.01059895293362E+05
 cg2d: Sum(rhs),rhsMax =  -3.80405022550033E+01  1.75460673384074E+00
(PID.TID 0000.0001)  ploadbar=  1.01059271491602E+05
 cg2d: Sum(rhs),rhsMax =  -3.81155891099591E+01  1.75056693991599E+00
(PID.TID 0000.0001)  ploadbar=  1.01058647689843E+05
 cg2d: Sum(rhs),rhsMax =  -3.82895569418988E+01  1.74208643236984E+00
(PID.TID 0000.0001)  ploadbar=  1.01058023888084E+05
 cg2d: Sum(rhs),rhsMax =  -3.85276419335653E+01  1.73084868325469E+00
(PID.TID 0000.0001)  ploadbar=  1.01057400086325E+05
 cg2d: Sum(rhs),rhsMax =  -3.87946693609568E+01  1.71851236655256E+00
(PID.TID 0000.0001)  ploadbar=  1.01056776284566E+05
 cg2d: Sum(rhs),rhsMax =  -3.89230300084692E+01  1.71237095577089E+00
(PID.TID 0000.0001)  ploadbar=  1.01056694400296E+05
 cg2d: Sum(rhs),rhsMax =  -3.90343773537976E+01  1.70696219497947E+00
(PID.TID 0000.0001)  ploadbar=  1.01056612516026E+05
 cg2d: Sum(rhs),rhsMax =  -3.91209145481080E+01  1.70260410276513E+00
(PID.TID 0000.0001)  ploadbar=  1.01056530631756E+05
 cg2d: Sum(rhs),rhsMax =  -3.91838375269962E+01  1.69922802399805E+00
(PID.TID 0000.0001)  ploadbar=  1.01056448747487E+05
 cg2d: Sum(rhs),rhsMax =  -3.92246204068547E+01  1.69675758657250E+00
(PID.TID 0000.0001)  ploadbar=  1.01056366863217E+05
 cg2d: Sum(rhs),rhsMax =  -3.92473918085824E+01  1.69500442434279E+00
(PID.TID 0000.0001)  ploadbar=  1.01056284978947E+05
 cg2d: Sum(rhs),rhsMax =  -3.91696516833653E+01  1.69772760372188E+00
(PID.TID 0000.0001)  ploadbar=  1.01055968081138E+05
 cg2d: Sum(rhs),rhsMax =  -3.90911521280681E+01  1.70062138711440E+00
(PID.TID 0000.0001)  ploadbar=  1.01055651183329E+05
 cg2d: Sum(rhs),rhsMax =  -3.90111504088238E+01  1.70371897873965E+00
(PID.TID 0000.0001)  ploadbar=  1.01055334285519E+05
 cg2d: Sum(rhs),rhsMax =  -3.89347893975106E+01  1.70678918009476E+00
(PID.TID 0000.0001)  ploadbar=  1.01055017387710E+05
 cg2d: Sum(rhs),rhsMax =  -3.88608862410772E+01  1.70986953753721E+00
(PID.TID 0000.0001)  ploadbar=  1.01054700489901E+05
 cg2d: Sum(rhs),rhsMax =  -3.87900235731603E+01  1.71292570698261E+00
(PID.TID 0000.0001)  ploadbar=  1.01054383592092E+05
 cg2d: Sum(rhs),rhsMax =  -3.88202736952330E+01  1.71149103364067E+00
(PID.TID 0000.0001)  ploadbar=  1.01054798138971E+05
 cg2d: Sum(rhs),rhsMax =  -3.88563326811138E+01  1.70976191587964E+00
(PID.TID 0000.0001)  ploadbar=  1.01055212685849E+05
 cg2d: Sum(rhs),rhsMax =  -3.88886082744878E+01  1.70815468846073E+00
(PID.TID 0000.0001)  ploadbar=  1.01055627232728E+05
 cg2d: Sum(rhs),rhsMax =  -3.89200710272203E+01  1.70653115935232E+00
(PID.TID 0000.0001)  ploadbar=  1.01056041779606E+05
 cg2d: Sum(rhs),rhsMax =  -3.89513601700583E+01  1.70486118552644E+00
(PID.TID 0000.0001)  ploadbar=  1.01056456326485E+05
 cg2d: Sum(rhs),rhsMax =  -3.89814771718193E+01  1.70318470314853E+00
(PID.TID 0000.0001)  ploadbar=  1.01056870873363E+05
 cg2d: Sum(rhs),rhsMax =  -3.89899513890138E+01  1.70250214246596E+00
(PID.TID 0000.0001)  ploadbar=  1.01057985636577E+05
 cg2d: Sum(rhs),rhsMax =  -3.89987711301551E+01  1.70184560082246E+00
(PID.TID 0000.0001)  ploadbar=  1.01059100399792E+05
 cg2d: Sum(rhs),rhsMax =  -3.90092261434942E+01  1.70115143565334E+00
(PID.TID 0000.0001)  ploadbar=  1.01060215163006E+05
 cg2d: Sum(rhs),rhsMax =  -3.90205437509625E+01  1.70044870911870E+00
(PID.TID 0000.0001)  ploadbar=  1.01061329926220E+05
 cg2d: Sum(rhs),rhsMax =  -3.90340129827628E+01  1.69967515964499E+00
(PID.TID 0000.0001)  ploadbar=  1.01062444689434E+05
 cg2d: Sum(rhs),rhsMax =  -3.90495672858556E+01  1.69883049920206E+00
(PID.TID 0000.0001)  ploadbar=  1.01063559452648E+05
 cg2d: Sum(rhs),rhsMax =  -3.90565409179766E+01  1.69828400432005E+00
(PID.TID 0000.0001)  ploadbar=  1.01064955965281E+05
 cg2d: Sum(rhs),rhsMax =  -3.90699248717466E+01  1.69737922455365E+00
(PID.TID 0000.0001)  ploadbar=  1.01066352477913E+05
 cg2d: Sum(rhs),rhsMax =  -3.90806732054634E+01  1.69650744034107E+00
(PID.TID 0000.0001)  ploadbar=  1.01067748990546E+05
 cg2d: Sum(rhs),rhsMax =  -3.90921221355927E+01  1.69552107593953E+00
(PID.TID 0000.0001)  ploadbar=  1.01069145503179E+05
 cg2d: Sum(rhs),rhsMax =  -3.91054633888071E+01  1.69436486367211E+00
(PID.TID 0000.0001)  ploadbar=  1.01070542015811E+05
 cg2d: Sum(rhs),rhsMax =  -3.91209440879224E+01  1.69302601745969E+00
(PID.TID 0000.0001)  ploadbar=  1.01071938528444E+05
 cg2d: Sum(rhs),rhsMax =  -3.91626489019527E+01  1.69068634885473E+00
(PID.TID 0000.0001)  ploadbar=  1.01074157361816E+05
 cg2d: Sum(rhs),rhsMax =  -3.92036531719942E+01  1.68851101862049E+00
(PID.TID 0000.0001)  ploadbar=  1.01076376195187E+05
 cg2d: Sum(rhs),rhsMax =  -3.92545840531280E+01  1.68604024827515E+00
(PID.TID 0000.0001)  ploadbar=  1.01078595028559E+05
 cg2d: Sum(rhs),rhsMax =  -3.93081974897377E+01  1.68357785979327E+00
(PID.TID 0000.0001)  ploadbar=  1.01080813861930E+05
 cg2d: Sum(rhs),rhsMax =  -3.93638024501669E+01  1.68114179925665E+00
(PID.TID 0000.0001)  ploadbar=  1.01083032695302E+05
 cg2d: Sum(rhs),rhsMax =  -3.94208763048133E+01  1.67874513898902E+00
(PID.TID 0000.0001)  ploadbar=  1.01085251528674E+05
 cg2d: Sum(rhs),rhsMax =  -3.94576523250341E+01  1.67717735269820E+00
(PID.TID 0000.0001)  ploadbar=  1.01087341469830E+05
 cg2d: Sum(rhs),rhsMax =  -3.94906312999318E+01  1.67571774986776E+00
(PID.TID 0000.0001)  ploadbar=  1.01089431410987E+05
 cg2d: Sum(rhs),rhsMax =  -3.95222363353769E+01  1.67425609760812E+00
(PID.TID 0000.0001)  ploadbar=  1.01091521352144E+05
 cg2d: Sum(rhs),rhsMax =  -3.95494805170268E+01  1.67291486771218E+00
(PID.TID 0000.0001)  ploadbar=  1.01093611293301E+05
 cg2d: Sum(rhs),rhsMax =  -3.95724568112209E+01  1.67168336052660E+00
(PID.TID 0000.0001)  ploadbar=  1.01095701234458E+05
 cg2d: Sum(rhs),rhsMax =  -3.95916604376905E+01  1.67053653753999E+00
(PID.TID 0000.0001)  ploadbar=  1.01097791175615E+05
 cg2d: Sum(rhs),rhsMax =  -3.96090561024782E+01  1.66951017294343E+00
(PID.TID 0000.0001)  ploadbar=  1.01099971274169E+05
 cg2d: Sum(rhs),rhsMax =  -3.96220913688758E+01  1.66870796913746E+00
(PID.TID 0000.0001)  ploadbar=  1.01102151372723E+05
 cg2d: Sum(rhs),rhsMax =  -3.96332566077560E+01  1.66801321394739E+00
(PID.TID 0000.0001)  ploadbar=  1.01104331471277E+05
 cg2d: Sum(rhs),rhsMax =  -3.96437622683296E+01  1.66736655945016E+00
(PID.TID 0000.0001)  ploadbar=  1.01106511569831E+05
 cg2d: Sum(rhs),rhsMax =  -3.96531836443244E+01  1.66677912707315E+00
(PID.TID 0000.0001)  ploadbar=  1.01108691668385E+05
 cg2d: Sum(rhs),rhsMax =  -3.96615223297350E+01  1.66624279318671E+00
(PID.TID 0000.0001)  ploadbar=  1.01110871766939E+05
 cg2d: Sum(rhs),rhsMax =  -3.96764974422796E+01  1.66535036103595E+00
(PID.TID 0000.0001)  ploadbar=  1.01111685215701E+05
 cg2d: Sum(rhs),rhsMax =  -3.96843687682201E+01  1.66467083182387E+00
(PID.TID 0000.0001)  ploadbar=  1.01112498664463E+05
 cg2d: Sum(rhs),rhsMax =  -3.96864890828860E+01  1.66414513819794E+00
(PID.TID 0000.0001)  ploadbar=  1.01113312113225E+05
 cg2d: Sum(rhs),rhsMax =  -3.96830599239982E+01  1.66376015652570E+00
(PID.TID 0000.0001)  ploadbar=  1.01114125561987E+05
 cg2d: Sum(rhs),rhsMax =  -3.96733850678062E+01  1.66354386331840E+00
(PID.TID 0000.0001)  ploadbar=  1.01114939010749E+05
 cg2d: Sum(rhs),rhsMax =  -3.96574337989605E+01  1.66349455790718E+00
(PID.TID 0000.0001)  ploadbar=  1.01115752459511E+05
 cg2d: Sum(rhs),rhsMax =  -3.96278821715539E+01  1.66411129510579E+00
(PID.TID 0000.0001)  ploadbar=  1.01116741777957E+05
 cg2d: Sum(rhs),rhsMax =  -3.95890740723678E+01  1.66520537646946E+00
(PID.TID 0000.0001)  ploadbar=  1.01117731096404E+05
 cg2d: Sum(rhs),rhsMax =  -3.95488314781328E+01  1.66644330768111E+00
(PID.TID 0000.0001)  ploadbar=  1.01118720414850E+05
 cg2d: Sum(rhs),rhsMax =  -3.95065187308638E+01  1.66784678936582E+00
(PID.TID 0000.0001)  ploadbar=  1.01119709733296E+05
 cg2d: Sum(rhs),rhsMax =  -3.94607932404927E+01  1.66946514243648E+00
(PID.TID 0000.0001)  ploadbar=  1.01120699051743E+05
 cg2d: Sum(rhs),rhsMax =  -3.94102633857229E+01  1.67134382692158E+00
(PID.TID 0000.0001)  ploadbar=  1.01121688370189E+05
 cg2d: Sum(rhs),rhsMax =  -3.93453199761536E+01  1.67380687419298E+00
(PID.TID 0000.0001)  ploadbar=  1.01121819752288E+05
 cg2d: Sum(rhs),rhsMax =  -3.92733903820990E+01  1.67653794377439E+00
(PID.TID 0000.0001)  ploadbar=  1.01121951134387E+05
 cg2d: Sum(rhs),rhsMax =  -3.91966363614326E+01  1.67943826901787E+00
(PID.TID 0000.0001)  ploadbar=  1.01122082516486E+05
 cg2d: Sum(rhs),rhsMax =  -3.91159410232020E+01  1.68246019268852E+00
(PID.TID 0000.0001)  ploadbar=  1.01122213898585E+05
 cg2d: Sum(rhs),rhsMax =  -3.90314287162271E+01  1.68559145207323E+00
(PID.TID 0000.0001)  ploadbar=  1.01122345280684E+05
 cg2d: Sum(rhs),rhsMax =  -3.89441169639508E+01  1.68877668889502E+00
(PID.TID 0000.0001)  ploadbar=  1.01122476662783E+05
 cg2d: Sum(rhs),rhsMax =  -3.88924567913539E+01  1.69045441407804E+00
(PID.TID 0000.0001)  ploadbar=  1.01121801712918E+05
 cg2d: Sum(rhs),rhsMax =  -3.88401480939230E+01  1.69218423521210E+00
(PID.TID 0000.0001)  ploadbar=  1.01121126763053E+05
 cg2d: Sum(rhs),rhsMax =  -3.87916445386979E+01  1.69376161158160E+00
(PID.TID 0000.0001)  ploadbar=  1.01120451813188E+05
 cg2d: Sum(rhs),rhsMax =  -3.87474324938044E+01  1.69514800361748E+00
(PID.TID 0000.0001)  ploadbar=  1.01119776863324E+05
 cg2d: Sum(rhs),rhsMax =  -3.87097694645094E+01  1.69622537804653E+00
(PID.TID 0000.0001)  ploadbar=  1.01119101913459E+05
 cg2d: Sum(rhs),rhsMax =  -3.86806993546229E+01  1.69688986722854E+00
(PID.TID 0000.0001)  ploadbar=  1.01118426963594E+05
 cg2d: Sum(rhs),rhsMax =  -3.86594057399833E+01  1.69718533267400E+00
(PID.TID 0000.0001)  ploadbar=  1.01118367182500E+05
 cg2d: Sum(rhs),rhsMax =  -3.86622400958146E+01  1.69638955910211E+00
(PID.TID 0000.0001)  ploadbar=  1.01118307401407E+05
 cg2d: Sum(rhs),rhsMax =  -3.86792808445983E+01  1.69493652383646E+00
(PID.TID 0000.0001)  ploadbar=  1.01118247620313E+05
 cg2d: Sum(rhs),rhsMax =  -3.87108056565088E+01  1.69281511114180E+00
(PID.TID 0000.0001)  ploadbar=  1.01118187839219E+05
 cg2d: Sum(rhs),rhsMax =  -3.87542977082534E+01  1.69013652979956E+00
(PID.TID 0000.0001)  ploadbar=  1.01118128058126E+05
 cg2d: Sum(rhs),rhsMax =  -3.88035771010365E+01  1.68716939996566E+00
(PID.TID 0000.0001)  ploadbar=  1.01118068277032E+05
 cg2d: Sum(rhs),rhsMax =  -3.88245404362795E+01  1.68551439998353E+00
(PID.TID 0000.0001)  ploadbar=  1.01118148900964E+05
 cg2d: Sum(rhs),rhsMax =  -3.88352515651142E+01  1.68437151351215E+00
(PID.TID 0000.0001)  ploadbar=  1.01118229524896E+05
 cg2d: Sum(rhs),rhsMax =  -3.88301808499285E+01  1.68397647326391E+00
(PID.TID 0000.0001)  ploadbar=  1.01118310148829E+05
 cg2d: Sum(rhs),rhsMax =  -3.88141267511303E+01  1.68411639910823E+00
(PID.TID 0000.0001)  ploadbar=  1.01118390772761E+05
 cg2d: Sum(rhs),rhsMax =  -3.87939663309495E+01  1.68448548064533E+00
(PID.TID 0000.0001)  ploadbar=  1.01118471396693E+05
 cg2d: Sum(rhs),rhsMax =  -3.87751438894713E+01  1.68483788128407E+00
(PID.TID 0000.0001)  ploadbar=  1.01118552020625E+05
 cg2d: Sum(rhs),rhsMax =  -3.87667078019953E+01  1.68475506380561E+00
(PID.TID 0000.0001)  ploadbar=  1.01117786163803E+05
 cg2d: Sum(rhs),rhsMax =  -3.87622487158785E+01  1.68450696927426E+00
(PID.TID 0000.0001)  ploadbar=  1.01117020306982E+05
 cg2d: Sum(rhs),rhsMax =  -3.87604173888570E+01  1.68413726588681E+00
(PID.TID 0000.0001)  ploadbar=  1.01116254450161E+05
 cg2d: Sum(rhs),rhsMax =  -3.87622391087707E+01  1.68359331935824E+00
(PID.TID 0000.0001)  ploadbar=  1.01115488593339E+05
 cg2d: Sum(rhs),rhsMax =  -3.87655394149099E+01  1.68295698955169E+00
(PID.TID 0000.0001)  ploadbar=  1.01114722736518E+05
 cg2d: Sum(rhs),rhsMax =  -3.87687837018349E+01  1.68228493357693E+00
(PID.TID 0000.0001)  ploadbar=  1.01113956879696E+05
 cg2d: Sum(rhs),rhsMax =  -3.87415655744155E+01  1.68302831426905E+00
(PID.TID 0000.0001)  ploadbar=  1.01113547689723E+05
 cg2d: Sum(rhs),rhsMax =  -3.87178209537217E+01  1.68370745372061E+00
(PID.TID 0000.0001)  ploadbar=  1.01113138499750E+05
 cg2d: Sum(rhs),rhsMax =  -3.86968022850834E+01  1.68434373639669E+00
(PID.TID 0000.0001)  ploadbar=  1.01112729309778E+05
 cg2d: Sum(rhs),rhsMax =  -3.86746972448188E+01  1.68508685658700E+00
(PID.TID 0000.0001)  ploadbar=  1.01112320119805E+05
 cg2d: Sum(rhs),rhsMax =  -3.86489800886098E+01  1.68603687747074E+00
(PID.TID 0000.0001)  ploadbar=  1.01111910929832E+05
 cg2d: Sum(rhs),rhsMax =  -3.86211786734437E+01  1.68711307765122E+00
(PID.TID 0000.0001)  ploadbar=  1.01111501739859E+05
 cg2d: Sum(rhs),rhsMax =  -3.86079242821783E+01  1.68751096643207E+00
(PID.TID 0000.0001)  ploadbar=  1.01111018444716E+05
 cg2d: Sum(rhs),rhsMax =  -3.85897585565853E+01  1.68807878084922E+00
(PID.TID 0000.0001)  ploadbar=  1.01110535149573E+05
 cg2d: Sum(rhs),rhsMax =  -3.85734804731821E+01  1.68851626881127E+00
(PID.TID 0000.0001)  ploadbar=  1.01110051854430E+05
 cg2d: Sum(rhs),rhsMax =  -3.85603351791501E+01  1.68876655493000E+00
(PID.TID 0000.0001)  ploadbar=  1.01109568559287E+05
 cg2d: Sum(rhs),rhsMax =  -3.85505924697185E+01  1.68881975122646E+00
(PID.TID 0000.0001)  ploadbar=  1.01109085264144E+05
 cg2d: Sum(rhs),rhsMax =  -3.85446288287854E+01  1.68865769355156E+00
(PID.TID 0000.0001)  ploadbar=  1.01108601969001E+05
 cg2d: Sum(rhs),rhsMax =  -3.85438112330908E+01  1.68836679088679E+00
(PID.TID 0000.0001)  ploadbar=  1.01107578744919E+05
 cg2d: Sum(rhs),rhsMax =  -3.85473174747823E+01  1.68797184429420E+00
(PID.TID 0000.0001)  ploadbar=  1.01106555520837E+05
 cg2d: Sum(rhs),rhsMax =  -3.85576721189814E+01  1.68735743139569E+00
(PID.TID 0000.0001)  ploadbar=  1.01105532296754E+05
 cg2d: Sum(rhs),rhsMax =  -3.85750382668622E+01  1.68651418121806E+00
(PID.TID 0000.0001)  ploadbar=  1.01104509072672E+05
 cg2d: Sum(rhs),rhsMax =  -3.86016174766453E+01  1.68534511606003E+00
(PID.TID 0000.0001)  ploadbar=  1.01103485848590E+05
 cg2d: Sum(rhs),rhsMax =  -3.86399785378832E+01  1.68372878337876E+00
(PID.TID 0000.0001)  ploadbar=  1.01102462624508E+05
 cg2d: Sum(rhs),rhsMax =  -3.86971972973746E+01  1.68125826326528E+00
(PID.TID 0000.0001)  ploadbar=  1.01102334025642E+05
 cg2d: Sum(rhs),rhsMax =  -3.87703116757336E+01  1.67806464886689E+00
(PID.TID 0000.0001)  ploadbar=  1.01102205426777E+05
 cg2d: Sum(rhs),rhsMax =  -3.88569566609563E+01  1.67425163364528E+00
(PID.TID 0000.0001)  ploadbar=  1.01102076827912E+05
 cg2d: Sum(rhs),rhsMax =  -3.89609316576594E+01  1.66965896033986E+00
(PID.TID 0000.0001)  ploadbar=  1.01101948229046E+05
 cg2d: Sum(rhs),rhsMax =  -3.90885820480415E+01  1.66402533834976E+00
(PID.TID 0000.0001)  ploadbar=  1.01101819630180E+05
 cg2d: Sum(rhs),rhsMax =  -3.92440382598816E+01  1.65719460049501E+00
(PID.TID 0000.0001)  ploadbar=  1.01101691031315E+05
 cg2d: Sum(rhs),rhsMax =  -3.94339437467806E+01  1.64896380916650E+00
(PID.TID 0000.0001)  ploadbar=  1.01101555925063E+05
 cg2d: Sum(rhs),rhsMax =  -3.96490065415364E+01  1.63975755385690E+00
(PID.TID 0000.0001)  ploadbar=  1.01101420818810E+05
 cg2d: Sum(rhs),rhsMax =  -3.98834801029324E+01  1.62983876441527E+00
(PID.TID 0000.0001)  ploadbar=  1.01101285712558E+05
 cg2d: Sum(rhs),rhsMax =  -4.01344390388944E+01  1.61934325204655E+00
(PID.TID 0000.0001)  ploadbar=  1.01101150606306E+05
 cg2d: Sum(rhs),rhsMax =  -4.03991054173579E+01  1.60839287762583E+00
(PID.TID 0000.0001)  ploadbar=  1.01101015500054E+05
 cg2d: Sum(rhs),rhsMax =  -4.06735518693706E+01  1.59714509034262E+00
(PID.TID 0000.0001)  ploadbar=  1.01100880393801E+05
 cg2d: Sum(rhs),rhsMax =  -4.09436315653258E+01  1.58615487823946E+00
(PID.TID 0000.0001)  ploadbar=  1.01100123687476E+05
 cg2d: Sum(rhs),rhsMax =  -4.12062522330611E+01  1.57553249427136E+00
(PID.TID 0000.0001)  ploadbar=  1.01099366981150E+05
 cg2d: Sum(rhs),rhsMax =  -4.14625607045042E+01  1.56522003564103E+00
(PID.TID 0000.0001)  ploadbar=  1.01098610274825E+05
 cg2d: Sum(rhs),rhsMax =  -4.17087501583565E+01  1.55534472639271E+00
(PID.TID 0000.0001)  ploadbar=  1.01097853568499E+05
 cg2d: Sum(rhs),rhsMax =  -4.18705829714739E+01  1.54863425756619E+00
(PID.TID 0000.0001)  ploadbar=  1.01097096862174E+05
 cg2d: Sum(rhs),rhsMax =  -4.19687959394406E+01  1.54424625714834E+00
(PID.TID 0000.0001)  ploadbar=  1.01096340155849E+05
 cg2d: Sum(rhs),rhsMax =  -4.20202659701931E+01  1.54169549101481E+00
(PID.TID 0000.0001)  ploadbar=  1.01095142609924E+05
 cg2d: Sum(rhs),rhsMax =  -4.19432217318329E+01  1.54396362852288E+00
(PID.TID 0000.0001)  ploadbar=  1.01093945064000E+05
 cg2d: Sum(rhs),rhsMax =  -4.19148923427996E+01  1.54453885772555E+00
(PID.TID 0000.0001)  ploadbar=  1.01092747518076E+05
 cg2d: Sum(rhs),rhsMax =  -4.19979056333362E+01  1.54111026666867E+00
(PID.TID 0000.0001)  ploadbar=  1.01091549972151E+05
 cg2d: Sum(rhs),rhsMax =  -4.18046284450431E+01  1.54794226992287E+00
(PID.TID 0000.0001)  ploadbar=  1.01090352426227E+05
 cg2d: Sum(rhs),rhsMax =  -4.13985266024064E+01  1.56290258827011E+00
(PID.TID 0000.0001)  ploadbar=  1.01089154880303E+05
 cg2d: Sum(rhs),rhsMax =  -4.09650811521742E+01  1.57924589646570E+00
(PID.TID 0000.0001)  ploadbar=  1.01089068997920E+05
 cg2d: Sum(rhs),rhsMax =  -4.05279420342645E+01  1.59611136750101E+00
(PID.TID 0000.0001)  ploadbar=  1.01088983115538E+05
 cg2d: Sum(rhs),rhsMax =  -4.01071961393468E+01  1.61270278367053E+00
(PID.TID 0000.0001)  ploadbar=  1.01088897233155E+05
 cg2d: Sum(rhs),rhsMax =  -3.97102079431651E+01  1.62867371543274E+00
(PID.TID 0000.0001)  ploadbar=  1.01088811350773E+05
 cg2d: Sum(rhs),rhsMax =  -3.93366312042064E+01  1.64398281437594E+00
(PID.TID 0000.0001)  ploadbar=  1.01088725468390E+05
 cg2d: Sum(rhs),rhsMax =  -3.89852495787420E+01  1.65862778675086E+00
(PID.TID 0000.0001)  ploadbar=  1.01088639586008E+05
 cg2d: Sum(rhs),rhsMax =  -3.86700242646274E+01  1.67199884068133E+00
(PID.TID 0000.0001)  ploadbar=  1.01088964295826E+05
 cg2d: Sum(rhs),rhsMax =  -3.83751684951634E+01  1.68471462458317E+00
(PID.TID 0000.0001)  ploadbar=  1.01089289005644E+05
 cg2d: Sum(rhs),rhsMax =  -3.80945929551132E+01  1.69699945926359E+00
(PID.TID 0000.0001)  ploadbar=  1.01089613715463E+05
 cg2d: Sum(rhs),rhsMax =  -3.78285275877416E+01  1.70881305227919E+00
(PID.TID 0000.0001)  ploadbar=  1.01089938425281E+05
 cg2d: Sum(rhs),rhsMax =  -3.75752527815507E+01  1.72019999652870E+00
(PID.TID 0000.0001)  ploadbar=  1.01090263135099E+05
 cg2d: Sum(rhs),rhsMax =  -3.73350850821515E+01  1.73111576143700E+00
(PID.TID 0000.0001)  ploadbar=  1.01090587844917E+05
 cg2d: Sum(rhs),rhsMax =  -3.71208047175004E+01  1.74094036760428E+00
(PID.TID 0000.0001)  ploadbar=  1.01091423636497E+05
 cg2d: Sum(rhs),rhsMax =  -3.69221171845630E+01  1.75011899799633E+00
(PID.TID 0000.0001)  ploadbar=  1.01092259428076E+05
 cg2d: Sum(rhs),rhsMax =  -3.67439155184338E+01  1.75839232860949E+00
(PID.TID 0000.0001)  ploadbar=  1.01093095219655E+05
 cg2d: Sum(rhs),rhsMax =  -3.65843017554383E+01  1.76582337990508E+00
(PID.TID 0000.0001)  ploadbar=  1.01093931011234E+05
 cg2d: Sum(rhs),rhsMax =  -3.64414286863751E+01  1.77248165791015E+00
(PID.TID 0000.0001)  ploadbar=  1.01094766802813E+05
 cg2d: Sum(rhs),rhsMax =  -3.63139228245322E+01  1.77841371732009E+00
(PID.TID 0000.0001)  ploadbar=  1.01095602594392E+05
 cg2d: Sum(rhs),rhsMax =  -3.61905733768979E+01  1.78426396223314E+00
(PID.TID 0000.0001)  ploadbar=  1.01096222823048E+05
 cg2d: Sum(rhs),rhsMax =  -3.60747435875800E+01  1.78985858076777E+00
(PID.TID 0000.0001)  ploadbar=  1.01096843051704E+05
 cg2d: Sum(rhs),rhsMax =  -3.59633668841467E+01  1.79533899629196E+00
(PID.TID 0000.0001)  ploadbar=  1.01097463280360E+05
 cg2d: Sum(rhs),rhsMax =  -3.58525547072964E+01  1.80089117346506E+00
(PID.TID 0000.0001)  ploadbar=  1.01098083509016E+05
 cg2d: Sum(rhs),rhsMax =  -3.57402215967747E+01  1.80660934792535E+00
(PID.TID 0000.0001)  ploadbar=  1.01098703737672E+05
 cg2d: Sum(rhs),rhsMax =  -3.56242517928763E+01  1.81258575925356E+00
(PID.TID 0000.0001)  ploadbar=  1.01099323966328E+05
 cg2d: Sum(rhs),rhsMax =  -3.55187154772559E+01  1.81806715276775E+00
(PID.TID 0000.0001)  ploadbar=  1.01100348389267E+05
 cg2d: Sum(rhs),rhsMax =  -3.54073086525217E+01  1.82386067925050E+00
(PID.TID 0000.0001)  ploadbar=  1.01101372812206E+05
 cg2d: Sum(rhs),rhsMax =  -3.52874576870505E+01  1.83008215956635E+00
(PID.TID 0000.0001)  ploadbar=  1.01102397235146E+05
 cg2d: Sum(rhs),rhsMax =  -3.51511947864235E+01  1.83714653632911E+00
(PID.TID 0000.0001)  ploadbar=  1.01103421658085E+05
 cg2d: Sum(rhs),rhsMax =  -3.49902077813281E+01  1.84550866225362E+00
(PID.TID 0000.0001)  ploadbar=  1.01104446081025E+05
 cg2d: Sum(rhs),rhsMax =  -3.47941198261648E+01  1.85575085060390E+00
(PID.TID 0000.0001)  ploadbar=  1.01105470503964E+05
 cg2d: Sum(rhs),rhsMax =  -3.45789149900082E+01  1.86714650893497E+00
(PID.TID 0000.0001)  ploadbar=  1.01106141543152E+05
 cg2d: Sum(rhs),rhsMax =  -3.43527159315316E+01  1.87928745377675E+00
(PID.TID 0000.0001)  ploadbar=  1.01106812582340E+05
 cg2d: Sum(rhs),rhsMax =  -3.41236425828959E+01  1.89174008902550E+00
(PID.TID 0000.0001)  ploadbar=  1.01107483621528E+05
 cg2d: Sum(rhs),rhsMax =  -3.38971715893601E+01  1.90419364824598E+00
(PID.TID 0000.0001)  ploadbar=  1.01108154660716E+05
 cg2d: Sum(rhs),rhsMax =  -3.36761848421751E+01  1.91647047347393E+00
(PID.TID 0000.0001)  ploadbar=  1.01108825699904E+05
 cg2d: Sum(rhs),rhsMax =  -3.34604209834231E+01  1.92856180940790E+00
(PID.TID 0000.0001)  ploadbar=  1.01109496739092E+05
 cg2d: Sum(rhs),rhsMax =  -3.32548366514590E+01  1.94017896709047E+00
(PID.TID 0000.0001)  ploadbar=  1.01111659513205E+05
 cg2d: Sum(rhs),rhsMax =  -3.30598044300742E+01  1.95127329161704E+00
(PID.TID 0000.0001)  ploadbar=  1.01113822287317E+05
 cg2d: Sum(rhs),rhsMax =  -3.28713854904470E+01  1.96205577756358E+00
(PID.TID 0000.0001)  ploadbar=  1.01115985061430E+05
 cg2d: Sum(rhs),rhsMax =  -3.26911836601049E+01  1.97241201286727E+00
(PID.TID 0000.0001)  ploadbar=  1.01118147835542E+05
 cg2d: Sum(rhs),rhsMax =  -3.25207234942040E+01  1.98223317535795E+00
(PID.TID 0000.0001)  ploadbar=  1.01120310609655E+05
 cg2d: Sum(rhs),rhsMax =  -3.23587888172015E+01  1.99157605556915E+00
(PID.TID 0000.0001)  ploadbar=  1.01122473383767E+05
 cg2d: Sum(rhs),rhsMax =  -3.22031464835270E+01  2.00073236082946E+00
(PID.TID 0000.0001)  ploadbar=  1.01122488344493E+05
 cg2d: Sum(rhs),rhsMax =  -3.20614636954139E+01  2.00920770886696E+00
(PID.TID 0000.0001)  ploadbar=  1.01122503305219E+05
 cg2d: Sum(rhs),rhsMax =  -3.19292508371688E+01  2.01725971954912E+00
(PID.TID 0000.0001)  ploadbar=  1.01122518265945E+05
 cg2d: Sum(rhs),rhsMax =  -3.18059989537390E+01  2.02490472797013E+00
(PID.TID 0000.0001)  ploadbar=  1.01122533226671E+05
 cg2d: Sum(rhs),rhsMax =  -3.16922515910965E+01  2.03208738221814E+00
(PID.TID 0000.0001)  ploadbar=  1.01122548187398E+05
 cg2d: Sum(rhs),rhsMax =  -3.15879952146365E+01  2.03878132296507E+00
(PID.TID 0000.0001)  ploadbar=  1.01122563148124E+05
 cg2d: Sum(rhs),rhsMax =  -3.14988510746157E+01  2.04454724409820E+00
(PID.TID 0000.0001)  ploadbar=  1.01123765120838E+05
 cg2d: Sum(rhs),rhsMax =  -3.14227189056463E+01  2.04948277279953E+00
(PID.TID 0000.0001)  ploadbar=  1.01124967093553E+05
 cg2d: Sum(rhs),rhsMax =  -3.13554140385181E+01  2.05384080605735E+00
(PID.TID 0000.0001)  ploadbar=  1.01126169066267E+05
 cg2d: Sum(rhs),rhsMax =  -3.12975948133199E+01  2.05756688854110E+00
(PID.TID 0000.0001)  ploadbar=  1.01127371038981E+05
 cg2d: Sum(rhs),rhsMax =  -3.12490320596545E+01  2.06066150568708E+00
(PID.TID 0000.0001)  ploadbar=  1.01128573011696E+05
 cg2d: Sum(rhs),rhsMax =  -3.12094780556847E+01  2.06313055647883E+00
(PID.TID 0000.0001)  ploadbar=  1.01129774984410E+05
 cg2d: Sum(rhs),rhsMax =  -3.11790382232003E+01  2.06500353697638E+00
(PID.TID 0000.0001)  ploadbar=  1.01131624570225E+05
 cg2d: Sum(rhs),rhsMax =  -3.11599148013895E+01  2.06612466776827E+00
(PID.TID 0000.0001)  ploadbar=  1.01133474156040E+05
 cg2d: Sum(rhs),rhsMax =  -3.11509082211857E+01  2.06656449598866E+00
(PID.TID 0000.0001)  ploadbar=  1.01135323741855E+05
 cg2d: Sum(rhs),rhsMax =  -3.11505665568984E+01  2.06640844763031E+00
(PID.TID 0000.0001)  ploadbar=  1.01137173327670E+05
 cg2d: Sum(rhs),rhsMax =  -3.11576982104826E+01  2.06573014800236E+00
(PID.TID 0000.0001)  ploadbar=  1.01139022913485E+05
 cg2d: Sum(rhs),rhsMax =  -3.11717924252246E+01  2.06455547678018E+00
(PID.TID 0000.0001)  ploadbar=  1.01140872499300E+05
 cg2d: Sum(rhs),rhsMax =  -3.11904500189234E+01  2.06304435319264E+00
(PID.TID 0000.0001)  ploadbar=  1.01143066438089E+05
 cg2d: Sum(rhs),rhsMax =  -3.12146072772662E+01  2.06113121964748E+00
(PID.TID 0000.0001)  ploadbar=  1.01145260376879E+05
 cg2d: Sum(rhs),rhsMax =  -3.12443368658731E+01  2.05881243845360E+00
(PID.TID 0000.0001)  ploadbar=  1.01147454315669E+05
 cg2d: Sum(rhs),rhsMax =  -3.12803249299890E+01  2.05603980689009E+00
(PID.TID 0000.0001)  ploadbar=  1.01149648254459E+05
 cg2d: Sum(rhs),rhsMax =  -3.13218282169524E+01  2.05286361901233E+00
(PID.TID 0000.0001)  ploadbar=  1.01151842193248E+05
 cg2d: Sum(rhs),rhsMax =  -3.13680162935896E+01  2.04934363922651E+00
(PID.TID 0000.0001)  ploadbar=  1.01154036132038E+05
 cg2d: Sum(rhs),rhsMax =  -3.14204045750019E+01  2.04557159512723E+00
(PID.TID 0000.0001)  ploadbar=  1.01155806791723E+05
 cg2d: Sum(rhs),rhsMax =  -3.14769615866730E+01  2.04167152258970E+00
(PID.TID 0000.0001)  ploadbar=  1.01157577451408E+05
 cg2d: Sum(rhs),rhsMax =  -3.15360019325029E+01  2.03775021718352E+00
(PID.TID 0000.0001)  ploadbar=  1.01159348111093E+05
 cg2d: Sum(rhs),rhsMax =  -3.15970259021664E+01  2.03384209107868E+00
(PID.TID 0000.0001)  ploadbar=  1.01161118770777E+05
 cg2d: Sum(rhs),rhsMax =  -3.16570303904075E+01  2.03013849413570E+00
(PID.TID 0000.0001)  ploadbar=  1.01162889430462E+05
 cg2d: Sum(rhs),rhsMax =  -3.17146930615775E+01  2.02671171803082E+00
(PID.TID 0000.0001)  ploadbar=  1.01164660090147E+05
 cg2d: Sum(rhs),rhsMax =  -3.17642343488237E+01  2.02377800938148E+00
(PID.TID 0000.0001)  ploadbar=  1.01166069779088E+05
 cg2d: Sum(rhs),rhsMax =  -3.18110653065951E+01  2.02096993533463E+00
(PID.TID 0000.0001)  ploadbar=  1.01167479468029E+05
 cg2d: Sum(rhs),rhsMax =  -3.18580790874020E+01  2.01809314811673E+00
(PID.TID 0000.0001)  ploadbar=  1.01168889156970E+05
 cg2d: Sum(rhs),rhsMax =  -3.19085693636074E+01  2.01493730073484E+00
(PID.TID 0000.0001)  ploadbar=  1.01170298845910E+05
 cg2d: Sum(rhs),rhsMax =  -3.19632333138532E+01  2.01145496334641E+00
(PID.TID 0000.0001)  ploadbar=  1.01171708534851E+05
 cg2d: Sum(rhs),rhsMax =  -3.20239397710673E+01  2.00752492862541E+00
(PID.TID 0000.0001)  ploadbar=  1.01173118223792E+05
 cg2d: Sum(rhs),rhsMax =  -3.20907514963581E+01  2.00329115888189E+00
(PID.TID 0000.0001)  ploadbar=  1.01173478769719E+05
 cg2d: Sum(rhs),rhsMax =  -3.21688569108330E+01  1.99842047993781E+00
(PID.TID 0000.0001)  ploadbar=  1.01173839315645E+05
 cg2d: Sum(rhs),rhsMax =  -3.22615934535373E+01  1.99270803614281E+00
(PID.TID 0000.0001)  ploadbar=  1.01174199861571E+05
 cg2d: Sum(rhs),rhsMax =  -3.23709969553693E+01  1.98603553610369E+00
(PID.TID 0000.0001)  ploadbar=  1.01174560407498E+05
 cg2d: Sum(rhs),rhsMax =  -3.24983087698558E+01  1.97833644397841E+00
(PID.TID 0000.0001)  ploadbar=  1.01174920953424E+05
 cg2d: Sum(rhs),rhsMax =  -3.26444814304932E+01  1.96957315661613E+00
(PID.TID 0000.0001)  ploadbar=  1.01175281499350E+05
 cg2d: Sum(rhs),rhsMax =  -3.28055990769425E+01  1.96000158590219E+00
(PID.TID 0000.0001)  ploadbar=  1.01174877572982E+05
 cg2d: Sum(rhs),rhsMax =  -3.29849867016426E+01  1.94944883099287E+00
(PID.TID 0000.0001)  ploadbar=  1.01174473646614E+05
 cg2d: Sum(rhs),rhsMax =  -3.31890838404848E+01  1.93757068581770E+00
(PID.TID 0000.0001)  ploadbar=  1.01174069720246E+05
 cg2d: Sum(rhs),rhsMax =  -3.34197701447317E+01  1.92431173419623E+00
(PID.TID 0000.0001)  ploadbar=  1.01173665793878E+05
 cg2d: Sum(rhs),rhsMax =  -3.36795032607057E+01  1.90959307436752E+00
(PID.TID 0000.0001)  ploadbar=  1.01173261867510E+05
 cg2d: Sum(rhs),rhsMax =  -3.39700956680474E+01  1.89338504308722E+00
(PID.TID 0000.0001)  ploadbar=  1.01172857941142E+05
 cg2d: Sum(rhs),rhsMax =  -3.42694388140880E+01  1.87704206589417E+00
(PID.TID 0000.0001)  ploadbar=  1.01171076550907E+05
 cg2d: Sum(rhs),rhsMax =  -3.45848067492887E+01  1.86018267686375E+00
(PID.TID 0000.0001)  ploadbar=  1.01169295160672E+05
 cg2d: Sum(rhs),rhsMax =  -3.49119317105339E+01  1.84306462335511E+00
(PID.TID 0000.0001)  ploadbar=  1.01167513770437E+05
 cg2d: Sum(rhs),rhsMax =  -3.52445541537035E+01  1.82603471011967E+00
(PID.TID 0000.0001)  ploadbar=  1.01165732380203E+05
 cg2d: Sum(rhs),rhsMax =  -3.55798230641574E+01  1.80923810357491E+00
(PID.TID 0000.0001)  ploadbar=  1.01163950989968E+05
 cg2d: Sum(rhs),rhsMax =  -3.59152396957895E+01  1.79278951225145E+00
(PID.TID 0000.0001)  ploadbar=  1.01162169599733E+05
 cg2d: Sum(rhs),rhsMax =  -3.62515052924964E+01  1.77649483804046E+00
(PID.TID 0000.0001)  ploadbar=  1.01161473262575E+05
 cg2d: Sum(rhs),rhsMax =  -3.65812413048645E+01  1.76069066862336E+00
(PID.TID 0000.0001)  ploadbar=  1.01160776925417E+05
 cg2d: Sum(rhs),rhsMax =  -3.69180828132971E+01  1.74470037745930E+00
(PID.TID 0000.0001)  ploadbar=  1.01160080588258E+05
 cg2d: Sum(rhs),rhsMax =  -3.72786855814139E+01  1.72776154277413E+00
(PID.TID 0000.0001)  ploadbar=  1.01159384251100E+05
 cg2d: Sum(rhs),rhsMax =  -3.76802760725476E+01  1.70914462055885E+00
(PID.TID 0000.0001)  ploadbar=  1.01158687913942E+05
 cg2d: Sum(rhs),rhsMax =  -3.81356923522488E+01  1.68839016467744E+00
(PID.TID 0000.0001)  ploadbar=  1.01157991576783E+05
 cg2d: Sum(rhs),rhsMax =  -3.86591395732412E+01  1.66522590506511E+00
(PID.TID 0000.0001)  ploadbar=  1.01156358325538E+05
 cg2d: Sum(rhs),rhsMax =  -3.92419014943631E+01  1.64022044945594E+00
(PID.TID 0000.0001)  ploadbar=  1.01154725074292E+05
 cg2d: Sum(rhs),rhsMax =  -3.98699580464088E+01  1.61412388712732E+00
(PID.TID 0000.0001)  ploadbar=  1.01153091823047E+05
 cg2d: Sum(rhs),rhsMax =  -4.05362816819769E+01  1.58733893113949E+00
(PID.TID 0000.0001)  ploadbar=  1.01151458571801E+05
 cg2d: Sum(rhs),rhsMax =  -4.12335445600838E+01  1.56024368307337E+00
(PID.TID 0000.0001)  ploadbar=  1.01149825320556E+05
 cg2d: Sum(rhs),rhsMax =  -4.19591306230939E+01  1.53300488588360E+00
(PID.TID 0000.0001)  ploadbar=  1.01148192069310E+05
 cg2d: Sum(rhs),rhsMax =  -4.27152039095363E+01  1.50553992108231E+00
(PID.TID 0000.0001)  ploadbar=  1.01147804059550E+05
 cg2d: Sum(rhs),rhsMax =  -4.34739168176049E+01  1.47886665136933E+00
(PID.TID 0000.0001)  ploadbar=  1.01147416049791E+05
 cg2d: Sum(rhs),rhsMax =  -4.42249951555060E+01  1.45328233334814E+00
(PID.TID 0000.0001)  ploadbar=  1.01147028040031E+05
 cg2d: Sum(rhs),rhsMax =  -4.49626555489290E+01  1.42890131832338E+00
(PID.TID 0000.0001)  ploadbar=  1.01146640030271E+05
 cg2d: Sum(rhs),rhsMax =  -4.58470310683133E+01  1.40073397186155E+00
(PID.TID 0000.0001)  ploadbar=  1.01146252020511E+05
 cg2d: Sum(rhs),rhsMax =  -4.67292047074692E+01  1.37362515849208E+00
(PID.TID 0000.0001)  ploadbar=  1.01145864010752E+05
 cg2d: Sum(rhs),rhsMax =  -4.76149462883660E+01  1.34753839019038E+00
(PID.TID 0000.0001)  ploadbar=  1.01145368764307E+05
 cg2d: Sum(rhs),rhsMax =  -4.84710238622873E+01  1.32332843432749E+00
(PID.TID 0000.0001)  ploadbar=  1.01144873517863E+05
 cg2d: Sum(rhs),rhsMax =  -4.93009344887619E+01  1.30076002235640E+00
(PID.TID 0000.0001)  ploadbar=  1.01144378271418E+05
 cg2d: Sum(rhs),rhsMax =  -5.01062063872489E+01  1.27967415293358E+00
(PID.TID 0000.0001)  ploadbar=  1.01143883024974E+05
 cg2d: Sum(rhs),rhsMax =  -5.08869522198692E+01  1.25996144112640E+00
(PID.TID 0000.0001)  ploadbar=  1.01143387778529E+05
 cg2d: Sum(rhs),rhsMax =  -5.16379125764037E+01  1.24165400691285E+00
(PID.TID 0000.0001)  ploadbar=  1.01142892532085E+05
 cg2d: Sum(rhs),rhsMax =  -5.16054524708139E+01  1.24241620750117E+00
(PID.TID 0000.0001)  ploadbar=  1.01142632435181E+05
 cg2d: Sum(rhs),rhsMax =  -5.15088906536496E+01  1.24468669992724E+00
(PID.TID 0000.0001)  ploadbar=  1.01142372338277E+05
 cg2d: Sum(rhs),rhsMax =  -5.14191827688058E+01  1.24675679433201E+00
(PID.TID 0000.0001)  ploadbar=  1.01142112241374E+05
 cg2d: Sum(rhs),rhsMax =  -5.13337186453109E+01  1.24868495215698E+00
(PID.TID 0000.0001)  ploadbar=  1.01141852144470E+05
 cg2d: Sum(rhs),rhsMax =  -5.12518057362742E+01  1.25048251279142E+00
(PID.TID 0000.0001)  ploadbar=  1.01141592047566E+05
 cg2d: Sum(rhs),rhsMax =  -5.11737842907548E+01  1.25213180321143E+00
(PID.TID 0000.0001)  ploadbar=  1.01141331950663E+05
 cg2d: Sum(rhs),rhsMax =  -5.11169490548138E+01  1.25327305951275E+00
(PID.TID 0000.0001)  ploadbar=  1.01141597837655E+05
 cg2d: Sum(rhs),rhsMax =  -5.10626313151298E+01  1.25435610076944E+00
(PID.TID 0000.0001)  ploadbar=  1.01141863724647E+05
 cg2d: Sum(rhs),rhsMax =  -5.10099543130568E+01  1.25539328682442E+00
(PID.TID 0000.0001)  ploadbar=  1.01142129611638E+05
 cg2d: Sum(rhs),rhsMax =  -5.09617226382333E+01  1.25630847539605E+00
(PID.TID 0000.0001)  ploadbar=  1.01142395498630E+05
 cg2d: Sum(rhs),rhsMax =  -5.09176551794425E+01  1.25709773767887E+00
(PID.TID 0000.0001)  ploadbar=  1.01142661385622E+05
 cg2d: Sum(rhs),rhsMax =  -5.08787485569842E+01  1.25772612247896E+00
(PID.TID 0000.0001)  ploadbar=  1.01142927272614E+05
 cg2d: Sum(rhs),rhsMax =  -5.08488611149203E+01  1.25807878061893E+00
(PID.TID 0000.0001)  ploadbar=  1.01143908037788E+05
 cg2d: Sum(rhs),rhsMax =  -5.08279243699466E+01  1.25815443875742E+00
(PID.TID 0000.0001)  ploadbar=  1.01144888802962E+05
 cg2d: Sum(rhs),rhsMax =  -5.08133762760083E+01  1.25801481072403E+00
(PID.TID 0000.0001)  ploadbar=  1.01145869568136E+05
 cg2d: Sum(rhs),rhsMax =  -5.08051122857467E+01  1.25765887043489E+00
(PID.TID 0000.0001)  ploadbar=  1.01146850333310E+05
 cg2d: Sum(rhs),rhsMax =  -5.08027443504637E+01  1.25709434814620E+00
(PID.TID 0000.0001)  ploadbar=  1.01147831098483E+05
 cg2d: Sum(rhs),rhsMax =  -5.08048311455511E+01  1.25635353773017E+00
(PID.TID 0000.0001)  ploadbar=  1.01148811863657E+05
 cg2d: Sum(rhs),rhsMax =  -5.08115592048585E+01  1.25560138865893E+00
(PID.TID 0000.0001)  ploadbar=  1.01149735332445E+05
 cg2d: Sum(rhs),rhsMax =  -5.08241297294864E+01  1.25480291320409E+00
(PID.TID 0000.0001)  ploadbar=  1.01150658801232E+05
 cg2d: Sum(rhs),rhsMax =  -5.08437503177719E+01  1.25392045328344E+00
(PID.TID 0000.0001)  ploadbar=  1.01151582270019E+05
 cg2d: Sum(rhs),rhsMax =  -5.08677476011339E+01  1.25300925531235E+00
(PID.TID 0000.0001)  ploadbar=  1.01152505738807E+05
 cg2d: Sum(rhs),rhsMax =  -5.08952529787438E+01  1.25208366983652E+00
(PID.TID 0000.0001)  ploadbar=  1.01153429207594E+05
 cg2d: Sum(rhs),rhsMax =  -5.09250701407592E+01  1.25116234622508E+00
(PID.TID 0000.0001)  ploadbar=  1.01154352676382E+05
 cg2d: Sum(rhs),rhsMax =  -5.09477667983428E+01  1.25039934936381E+00
(PID.TID 0000.0001)  ploadbar=  1.01154778556639E+05
 cg2d: Sum(rhs),rhsMax =  -5.09676575902711E+01  1.24968208481900E+00
(PID.TID 0000.0001)  ploadbar=  1.01155204436897E+05
 cg2d: Sum(rhs),rhsMax =  -5.09854189520050E+01  1.24899023263166E+00
(PID.TID 0000.0001)  ploadbar=  1.01155630317154E+05
 cg2d: Sum(rhs),rhsMax =  -5.10020840388224E+01  1.24829030346705E+00
(PID.TID 0000.0001)  ploadbar=  1.01156056197412E+05
 cg2d: Sum(rhs),rhsMax =  -5.10196476178387E+01  1.24752563986806E+00
(PID.TID 0000.0001)  ploadbar=  1.01156482077669E+05
 cg2d: Sum(rhs),rhsMax =  -5.10403272519190E+01  1.24663954273794E+00
(PID.TID 0000.0001)  ploadbar=  1.01156907957927E+05
 cg2d: Sum(rhs),rhsMax =  -5.10681974870139E+01  1.24564318149264E+00
(PID.TID 0000.0001)  ploadbar=  1.01155639887326E+05
 cg2d: Sum(rhs),rhsMax =  -5.11087906235736E+01  1.24439396645847E+00
(PID.TID 0000.0001)  ploadbar=  1.01154371816726E+05
 cg2d: Sum(rhs),rhsMax =  -5.11587910060335E+01  1.24296296589677E+00
(PID.TID 0000.0001)  ploadbar=  1.01153103746125E+05
 cg2d: Sum(rhs),rhsMax =  -5.12171303252892E+01  1.24136498750407E+00
(PID.TID 0000.0001)  ploadbar=  1.01151835675525E+05
 cg2d: Sum(rhs),rhsMax =  -5.12837791362715E+01  1.23959437282851E+00
(PID.TID 0000.0001)  ploadbar=  1.01150567604925E+05
 cg2d: Sum(rhs),rhsMax =  -5.13598055069447E+01  1.23762035628641E+00
(PID.TID 0000.0001)  ploadbar=  1.01149299534324E+05
 cg2d: Sum(rhs),rhsMax =  -5.14454900924106E+01  1.23541719633870E+00
(PID.TID 0000.0001)  ploadbar=  1.01149919317773E+05
 cg2d: Sum(rhs),rhsMax =  -5.15409340055210E+01  1.23298230490136E+00
(PID.TID 0000.0001)  ploadbar=  1.01150539101221E+05
 cg2d: Sum(rhs),rhsMax =  -5.16405478005622E+01  1.23044765085416E+00
(PID.TID 0000.0001)  ploadbar=  1.01151158884669E+05
 cg2d: Sum(rhs),rhsMax =  -5.17413534956649E+01  1.22788291864316E+00
(PID.TID 0000.0001)  ploadbar=  1.01151778668118E+05
 cg2d: Sum(rhs),rhsMax =  -5.18445855677855E+01  1.22525525126575E+00
(PID.TID 0000.0001)  ploadbar=  1.01152398451566E+05
 cg2d: Sum(rhs),rhsMax =  -5.19500885386873E+01  1.22256553445114E+00
(PID.TID 0000.0001)  ploadbar=  1.01153018235015E+05
 cg2d: Sum(rhs),rhsMax =  -5.20628957322486E+01  1.21979645006607E+00
(PID.TID 0000.0001)  ploadbar=  1.01152100380805E+05
 cg2d: Sum(rhs),rhsMax =  -5.21792355759244E+01  1.21703150393603E+00
(PID.TID 0000.0001)  ploadbar=  1.01151182526595E+05
 cg2d: Sum(rhs),rhsMax =  -5.23066350886052E+01  1.21409429010631E+00
(PID.TID 0000.0001)  ploadbar=  1.01150264672385E+05
 cg2d: Sum(rhs),rhsMax =  -5.24468804600598E+01  1.21094202756263E+00
(PID.TID 0000.0001)  ploadbar=  1.01149346818176E+05
 cg2d: Sum(rhs),rhsMax =  -5.26045262124164E+01  1.20746650287160E+00
(PID.TID 0000.0001)  ploadbar=  1.01148428963966E+05
 cg2d: Sum(rhs),rhsMax =  -5.27888936091304E+01  1.20345489869466E+00
(PID.TID 0000.0001)  ploadbar=  1.01147511109756E+05
 cg2d: Sum(rhs),rhsMax =  -5.30214302249142E+01  1.19833396857054E+00
(PID.TID 0000.0001)  ploadbar=  1.01147683406164E+05
 cg2d: Sum(rhs),rhsMax =  -5.33154266290528E+01  1.19183153695716E+00
(PID.TID 0000.0001)  ploadbar=  1.01147855702572E+05
 cg2d: Sum(rhs),rhsMax =  -5.36874724773862E+01  1.18362183915157E+00
(PID.TID 0000.0001)  ploadbar=  1.01148027998980E+05
 cg2d: Sum(rhs),rhsMax =  -5.41543814853127E+01  1.17340631444625E+00
(PID.TID 0000.0001)  ploadbar=  1.01148200295387E+05
 cg2d: Sum(rhs),rhsMax =  -5.47086745322431E+01  1.16144249053053E+00
(PID.TID 0000.0001)  ploadbar=  1.01148372591795E+05
 cg2d: Sum(rhs),rhsMax =  -5.53220861208373E+01  1.14842442454602E+00
(PID.TID 0000.0001)  ploadbar=  1.01148544888203E+05
 cg2d: Sum(rhs),rhsMax =  -5.59129106278718E+01  1.13616364218213E+00
(PID.TID 0000.0001)  ploadbar=  1.01147592168743E+05
 cg2d: Sum(rhs),rhsMax =  -5.65841913143694E+01  1.12256591988477E+00
(PID.TID 0000.0001)  ploadbar=  1.01146639449282E+05
 cg2d: Sum(rhs),rhsMax =  -5.65398443635575E+01  1.12332609376933E+00
(PID.TID 0000.0001)  ploadbar=  1.01145686729822E+05
 cg2d: Sum(rhs),rhsMax =  -5.54776655581435E+01  1.14470366161330E+00
(PID.TID 0000.0001)  ploadbar=  1.01144734010362E+05
 cg2d: Sum(rhs),rhsMax =  -5.44568899927909E+01  1.16601658527194E+00
(PID.TID 0000.0001)  ploadbar=  1.01143781290902E+05
 cg2d: Sum(rhs),rhsMax =  -5.34787217428963E+01  1.18718679757505E+00
(PID.TID 0000.0001)  ploadbar=  1.01142828571442E+05
 cg2d: Sum(rhs),rhsMax =  -5.25068006437170E+01  1.20897651852421E+00
(PID.TID 0000.0001)  ploadbar=  1.01142522505295E+05
 cg2d: Sum(rhs),rhsMax =  -5.15983713568101E+01  1.23004487941573E+00
(PID.TID 0000.0001)  ploadbar=  1.01142216439148E+05
 cg2d: Sum(rhs),rhsMax =  -5.07754466776455E+01  1.24973182489301E+00
(PID.TID 0000.0001)  ploadbar=  1.01141910373001E+05
 cg2d: Sum(rhs),rhsMax =  -5.00434793813903E+01  1.26773288809644E+00
(PID.TID 0000.0001)  ploadbar=  1.01141604306854E+05
 cg2d: Sum(rhs),rhsMax =  -4.93852742428206E+01  1.28432364339011E+00
(PID.TID 0000.0001)  ploadbar=  1.01141298240707E+05
 cg2d: Sum(rhs),rhsMax =  -4.88076046917006E+01  1.29919338654898E+00
(PID.TID 0000.0001)  ploadbar=  1.01140992174560E+05
 cg2d: Sum(rhs),rhsMax =  -4.82974302622512E+01  1.31268871415023E+00
(PID.TID 0000.0001)  ploadbar=  1.01140737216294E+05
 cg2d: Sum(rhs),rhsMax =  -4.78630825110699E+01  1.32447577845023E+00
(PID.TID 0000.0001)  ploadbar=  1.01140482258027E+05
 cg2d: Sum(rhs),rhsMax =  -4.75098995773336E+01  1.33429950082909E+00
(PID.TID 0000.0001)  ploadbar=  1.01140227299760E+05
 cg2d: Sum(rhs),rhsMax =  -4.72458254412847E+01  1.34183596603555E+00
(PID.TID 0000.0001)  ploadbar=  1.01139972341494E+05
 cg2d: Sum(rhs),rhsMax =  -4.70720890216753E+01  1.34696780285939E+00
(PID.TID 0000.0001)  ploadbar=  1.01139717383227E+05
 cg2d: Sum(rhs),rhsMax =  -4.69934532635716E+01  1.34949793041207E+00
(PID.TID 0000.0001)  ploadbar=  1.01139462424960E+05
 cg2d: Sum(rhs),rhsMax =  -4.70256809256391E+01  1.34883019299264E+00
(PID.TID 0000.0001)  ploadbar=  1.01139110885650E+05
 cg2d: Sum(rhs),rhsMax =  -4.71782995184835E+01  1.34469884869686E+00
(PID.TID 0000.0001)  ploadbar=  1.01138759346339E+05
 cg2d: Sum(rhs),rhsMax =  -4.74603224890418E+01  1.33690983312462E+00
(PID.TID 0000.0001)  ploadbar=  1.01138407807028E+05
 cg2d: Sum(rhs),rhsMax =  -4.78871498257052E+01  1.32516066036345E+00
(PID.TID 0000.0001)  ploadbar=  1.01138056267718E+05
 cg2d: Sum(rhs),rhsMax =  -4.84999756748802E+01  1.30854398055028E+00
(PID.TID 0000.0001)  ploadbar=  1.01137704728407E+05
 cg2d: Sum(rhs),rhsMax =  -4.94558548502848E+01  1.28333812918961E+00
(PID.TID 0000.0001)  ploadbar=  1.01137353189096E+05
 cg2d: Sum(rhs),rhsMax =  -4.81698423561631E+01  1.31768972221893E+00
(PID.TID 0000.0001)  ploadbar=  1.01135433671031E+05
 cg2d: Sum(rhs),rhsMax =  -4.60661554002159E+01  1.37795780736181E+00
(PID.TID 0000.0001)  ploadbar=  1.01133514152965E+05
 cg2d: Sum(rhs),rhsMax =  -4.42269789305112E+01  1.43535422716798E+00
(PID.TID 0000.0001)  ploadbar=  1.01131594634899E+05
 cg2d: Sum(rhs),rhsMax =  -4.26124913277486E+01  1.48982682918977E+00
(PID.TID 0000.0001)  ploadbar=  1.01129675116834E+05
 cg2d: Sum(rhs),rhsMax =  -4.11939464064769E+01  1.54120884725960E+00
(PID.TID 0000.0001)  ploadbar=  1.01127755598768E+05
 cg2d: Sum(rhs),rhsMax =  -3.99454557460925E+01  1.58943793225973E+00
(PID.TID 0000.0001)  ploadbar=  1.01125836080702E+05
 cg2d: Sum(rhs),rhsMax =  -3.88333141909404E+01  1.63487311890411E+00
(PID.TID 0000.0001)  ploadbar=  1.01123952432413E+05
 cg2d: Sum(rhs),rhsMax =  -3.78514959235755E+01  1.67704259829102E+00
(PID.TID 0000.0001)  ploadbar=  1.01122068784124E+05
 cg2d: Sum(rhs),rhsMax =  -3.69844522175985E+01  1.71596019821655E+00
(PID.TID 0000.0001)  ploadbar=  1.01120185135835E+05
 cg2d: Sum(rhs),rhsMax =  -3.62204941093060E+01  1.75158563961584E+00
(PID.TID 0000.0001)  ploadbar=  1.01118301487545E+05
 cg2d: Sum(rhs),rhsMax =  -3.55527605585346E+01  1.78374076176652E+00
(PID.TID 0000.0001)  ploadbar=  1.01116417839256E+05
 cg2d: Sum(rhs),rhsMax =  -3.49773884383578E+01  1.81216299745865E+00
(PID.TID 0000.0001)  ploadbar=  1.01114534190967E+05
 cg2d: Sum(rhs),rhsMax =  -3.44795054113233E+01  1.83751586571048E+00
(PID.TID 0000.0001)  ploadbar=  1.01112714093351E+05
 cg2d: Sum(rhs),rhsMax =  -3.40666245006510E+01  1.85907597807419E+00
(PID.TID 0000.0001)  ploadbar=  1.01110893995734E+05
 cg2d: Sum(rhs),rhsMax =  -3.37315183075837E+01  1.87693576351503E+00
(PID.TID 0000.0001)  ploadbar=  1.01109073898118E+05
 cg2d: Sum(rhs),rhsMax =  -3.35283565307363E+01  1.88779810073190E+00
(PID.TID 0000.0001)  ploadbar=  1.01107253800501E+05
 cg2d: Sum(rhs),rhsMax =  -3.33867537280537E+01  1.89539195301459E+00
(PID.TID 0000.0001)  ploadbar=  1.01105433702885E+05
 cg2d: Sum(rhs),rhsMax =  -3.33054861077421E+01  1.89969690313904E+00
(PID.TID 0000.0001)  ploadbar=  1.01103613605269E+05
 cg2d: Sum(rhs),rhsMax =  -3.32837417710953E+01  1.90055228820592E+00
(PID.TID 0000.0001)  ploadbar=  1.01103125396296E+05
 cg2d: Sum(rhs),rhsMax =  -3.33138331473685E+01  1.89837598445080E+00
(PID.TID 0000.0001)  ploadbar=  1.01102637187323E+05
 cg2d: Sum(rhs),rhsMax =  -3.33977979673413E+01  1.89305874293346E+00
(PID.TID 0000.0001)  ploadbar=  1.01102148978350E+05
 cg2d: Sum(rhs),rhsMax =  -3.35133945732388E+01  1.88588776894699E+00
(PID.TID 0000.0001)  ploadbar=  1.01101660769377E+05
 cg2d: Sum(rhs),rhsMax =  -3.36515363468214E+01  1.87739754393017E+00
(PID.TID 0000.0001)  ploadbar=  1.01101172560404E+05
 cg2d: Sum(rhs),rhsMax =  -3.38105469045683E+01  1.86770324409051E+00
(PID.TID 0000.0001)  ploadbar=  1.01100684351431E+05
 cg2d: Sum(rhs),rhsMax =  -3.42677758305223E+01  1.84200451597647E+00
(PID.TID 0000.0001)  ploadbar=  1.01099224848597E+05
 cg2d: Sum(rhs),rhsMax =  -3.47037374967285E+01  1.81816676100302E+00
(PID.TID 0000.0001)  ploadbar=  1.01097765345762E+05
 cg2d: Sum(rhs),rhsMax =  -3.51205865319397E+01  1.79596025757106E+00
(PID.TID 0000.0001)  ploadbar=  1.01096305842927E+05
 cg2d: Sum(rhs),rhsMax =  -3.55108634382781E+01  1.77565672781682E+00
(PID.TID 0000.0001)  ploadbar=  1.01094846340093E+05
 cg2d: Sum(rhs),rhsMax =  -3.58857712926807E+01  1.75659100007453E+00
(PID.TID 0000.0001)  ploadbar=  1.01093386837258E+05
 cg2d: Sum(rhs),rhsMax =  -3.62511680253357E+01  1.73841284146957E+00
(PID.TID 0000.0001)  ploadbar=  1.01091927334424E+05
 cg2d: Sum(rhs),rhsMax =  -3.66435737429952E+01  1.71932204009021E+00
(PID.TID 0000.0001)  ploadbar=  1.01090487436766E+05
 cg2d: Sum(rhs),rhsMax =  -3.70265319536938E+01  1.70105892480134E+00
(PID.TID 0000.0001)  ploadbar=  1.01089047539108E+05
 cg2d: Sum(rhs),rhsMax =  -3.74019717708759E+01  1.68349511405030E+00
(PID.TID 0000.0001)  ploadbar=  1.01087607641450E+05
 cg2d: Sum(rhs),rhsMax =  -3.77642847542836E+01  1.66684724930933E+00
(PID.TID 0000.0001)  ploadbar=  1.01086167743792E+05
 cg2d: Sum(rhs),rhsMax =  -3.81009813619269E+01  1.65161288196826E+00
(PID.TID 0000.0001)  ploadbar=  1.01084727846134E+05
 cg2d: Sum(rhs),rhsMax =  -3.84088564728636E+01  1.63786183335910E+00
(PID.TID 0000.0001)  ploadbar=  1.01083287948476E+05
 cg2d: Sum(rhs),rhsMax =  -3.87148979111550E+01  1.62451316413909E+00
(PID.TID 0000.0001)  ploadbar=  1.01083396012160E+05
 cg2d: Sum(rhs),rhsMax =  -3.89928856084673E+01  1.61263457640593E+00
(PID.TID 0000.0001)  ploadbar=  1.01083504075844E+05
 cg2d: Sum(rhs),rhsMax =  -3.92479314487831E+01  1.60195348263733E+00
(PID.TID 0000.0001)  ploadbar=  1.01083612139528E+05
 cg2d: Sum(rhs),rhsMax =  -3.94857687356934E+01  1.59219302724723E+00
(PID.TID 0000.0001)  ploadbar=  1.01083720203212E+05
 cg2d: Sum(rhs),rhsMax =  -3.97132081037100E+01  1.58305029290497E+00
(PID.TID 0000.0001)  ploadbar=  1.01083828266896E+05
 cg2d: Sum(rhs),rhsMax =  -3.99395953250653E+01  1.57413415139832E+00
(PID.TID 0000.0001)  ploadbar=  1.01083936330580E+05
 cg2d: Sum(rhs),rhsMax =  -4.02098195720746E+01  1.56354662383255E+00
(PID.TID 0000.0001)  ploadbar=  1.01082435624897E+05
 cg2d: Sum(rhs),rhsMax =  -4.05039348271784E+01  1.55211044056076E+00
(PID.TID 0000.0001)  ploadbar=  1.01080934919214E+05
 cg2d: Sum(rhs),rhsMax =  -4.08511965589917E+01  1.53875082756998E+00
(PID.TID 0000.0001)  ploadbar=  1.01079434213531E+05
 cg2d: Sum(rhs),rhsMax =  -4.08616961394160E+01  1.53809429399306E+00
(PID.TID 0000.0001)  ploadbar=  1.01077933507848E+05
 cg2d: Sum(rhs),rhsMax =  -4.05951491339030E+01  1.54782856027368E+00
(PID.TID 0000.0001)  ploadbar=  1.01076432802165E+05
 cg2d: Sum(rhs),rhsMax =  -4.03007375989875E+01  1.55866058995054E+00
(PID.TID 0000.0001)  ploadbar=  1.01074932096482E+05
 cg2d: Sum(rhs),rhsMax =  -3.99860306316776E+01  1.57052627356163E+00
(PID.TID 0000.0001)  ploadbar=  1.01071664570980E+05
 cg2d: Sum(rhs),rhsMax =  -3.96571316799960E+01  1.58322109123895E+00
(PID.TID 0000.0001)  ploadbar=  1.01068397045478E+05
 cg2d: Sum(rhs),rhsMax =  -3.93238438328849E+01  1.59637510438948E+00
(PID.TID 0000.0001)  ploadbar=  1.01065129519976E+05
 cg2d: Sum(rhs),rhsMax =  -3.89928046890229E+01  1.60972367826527E+00
(PID.TID 0000.0001)  ploadbar=  1.01061861994473E+05
 cg2d: Sum(rhs),rhsMax =  -3.86725083555994E+01  1.62291232456516E+00
(PID.TID 0000.0001)  ploadbar=  1.01058594468971E+05
 cg2d: Sum(rhs),rhsMax =  -3.83987253907993E+01  1.63439190592586E+00
(PID.TID 0000.0001)  ploadbar=  1.01055326943469E+05
 cg2d: Sum(rhs),rhsMax =  -3.81353856992039E+01  1.64557528305417E+00
(PID.TID 0000.0001)  ploadbar=  1.01054084723413E+05
 cg2d: Sum(rhs),rhsMax =  -3.79047622182811E+01  1.65547138410139E+00
(PID.TID 0000.0001)  ploadbar=  1.01052842503357E+05
 cg2d: Sum(rhs),rhsMax =  -3.77137227671339E+01  1.66372182318942E+00
(PID.TID 0000.0001)  ploadbar=  1.01051600283301E+05
 cg2d: Sum(rhs),rhsMax =  -3.75630259007251E+01  1.67023591039440E+00
(PID.TID 0000.0001)  ploadbar=  1.01050358063244E+05
 cg2d: Sum(rhs),rhsMax =  -3.74536591017749E+01  1.67492740814395E+00
(PID.TID 0000.0001)  ploadbar=  1.01049115843188E+05
 cg2d: Sum(rhs),rhsMax =  -3.73840401672770E+01  1.67783291894359E+00
(PID.TID 0000.0001)  ploadbar=  1.01047873623132E+05
 cg2d: Sum(rhs),rhsMax =  -3.73656468854065E+01  1.67854724587440E+00
(PID.TID 0000.0001)  ploadbar=  1.01046627081530E+05
 cg2d: Sum(rhs),rhsMax =  -3.73698552267557E+01  1.67834440474509E+00
(PID.TID 0000.0001)  ploadbar=  1.01045380539929E+05
 cg2d: Sum(rhs),rhsMax =  -3.73891300105048E+01  1.67755772616837E+00
(PID.TID 0000.0001)  ploadbar=  1.01044133998327E+05
 cg2d: Sum(rhs),rhsMax =  -3.74184237605609E+01  1.67640928819741E+00
(PID.TID 0000.0001)  ploadbar=  1.01042887456725E+05
 cg2d: Sum(rhs),rhsMax =  -3.74524690404039E+01  1.67512964271128E+00
(PID.TID 0000.0001)  ploadbar=  1.01041640915124E+05
 cg2d: Sum(rhs),rhsMax =  -3.74887631175887E+01  1.67381970253252E+00
(PID.TID 0000.0001)  ploadbar=  1.01040394373522E+05
 cg2d: Sum(rhs),rhsMax =  -3.74778873353313E+01  1.67458165202560E+00
(PID.TID 0000.0001)  ploadbar=  1.01039341910982E+05
 cg2d: Sum(rhs),rhsMax =  -3.74613851189060E+01  1.67554688045185E+00
(PID.TID 0000.0001)  ploadbar=  1.01038289448441E+05
 cg2d: Sum(rhs),rhsMax =  -3.74298784031264E+01  1.67713097356123E+00
(PID.TID 0000.0001)  ploadbar=  1.01037236985901E+05
 cg2d: Sum(rhs),rhsMax =  -3.73849548128556E+01  1.67925779153414E+00
(PID.TID 0000.0001)  ploadbar=  1.01036184523360E+05
 cg2d: Sum(rhs),rhsMax =  -3.73300884922473E+01  1.68176758159214E+00
(PID.TID 0000.0001)  ploadbar=  1.01035132060820E+05
 cg2d: Sum(rhs),rhsMax =  -3.72716368455122E+01  1.68437476927953E+00
(PID.TID 0000.0001)  ploadbar=  1.01034079598279E+05
 cg2d: Sum(rhs),rhsMax =  -3.72195691212885E+01  1.68677770647261E+00
(PID.TID 0000.0001)  ploadbar=  1.01034163956601E+05
 cg2d: Sum(rhs),rhsMax =  -3.71568741178490E+01  1.68973501234999E+00
(PID.TID 0000.0001)  ploadbar=  1.01034248314923E+05
 cg2d: Sum(rhs),rhsMax =  -3.70832894480840E+01  1.69326011487781E+00
(PID.TID 0000.0001)  ploadbar=  1.01034332673245E+05
 cg2d: Sum(rhs),rhsMax =  -3.70099713813751E+01  1.69684118317584E+00
(PID.TID 0000.0001)  ploadbar=  1.01034417031567E+05
 cg2d: Sum(rhs),rhsMax =  -3.69277021271272E+01  1.70089770905563E+00
(PID.TID 0000.0001)  ploadbar=  1.01034501389889E+05
 cg2d: Sum(rhs),rhsMax =  -3.68358472574951E+01  1.70545792953836E+00
(PID.TID 0000.0001)  ploadbar=  1.01034585748211E+05
 cg2d: Sum(rhs),rhsMax =  -3.67706303002969E+01  1.70877170884903E+00
(PID.TID 0000.0001)  ploadbar=  1.01034497765648E+05
 cg2d: Sum(rhs),rhsMax =  -3.67114873296756E+01  1.71177490540144E+00
(PID.TID 0000.0001)  ploadbar=  1.01034409783085E+05
 cg2d: Sum(rhs),rhsMax =  -3.66555363070218E+01  1.71459696777718E+00
(PID.TID 0000.0001)  ploadbar=  1.01034321800521E+05
 cg2d: Sum(rhs),rhsMax =  -3.66033864061113E+01  1.71720618201304E+00
(PID.TID 0000.0001)  ploadbar=  1.01034233817958E+05
 cg2d: Sum(rhs),rhsMax =  -3.65580488518440E+01  1.71945746579185E+00
(PID.TID 0000.0001)  ploadbar=  1.01034145835395E+05
 cg2d: Sum(rhs),rhsMax =  -3.65151089433677E+01  1.72155592057687E+00
(PID.TID 0000.0001)  ploadbar=  1.01034057852832E+05
 cg2d: Sum(rhs),rhsMax =  -3.64798965672929E+01  1.72340008311170E+00
(PID.TID 0000.0001)  ploadbar=  1.01034277849312E+05
 cg2d: Sum(rhs),rhsMax =  -3.64547529963474E+01  1.72487079573953E+00
(PID.TID 0000.0001)  ploadbar=  1.01034497845792E+05
 cg2d: Sum(rhs),rhsMax =  -3.64435618878286E+01  1.72577734602480E+00
(PID.TID 0000.0001)  ploadbar=  1.01034717842272E+05
 cg2d: Sum(rhs),rhsMax =  -3.64518640256999E+01  1.72585144820033E+00
(PID.TID 0000.0001)  ploadbar=  1.01034937838752E+05
 cg2d: Sum(rhs),rhsMax =  -3.64769201260083E+01  1.72521813128937E+00
(PID.TID 0000.0001)  ploadbar=  1.01035157835232E+05
 cg2d: Sum(rhs),rhsMax =  -3.65214101654706E+01  1.72374867662676E+00
(PID.TID 0000.0001)  ploadbar=  1.01035377831712E+05
 cg2d: Sum(rhs),rhsMax =  -3.65588126166199E+01  1.72260092677060E+00
(PID.TID 0000.0001)  ploadbar=  1.01036455749169E+05
 cg2d: Sum(rhs),rhsMax =  -3.66265421083112E+01  1.72000594872485E+00
(PID.TID 0000.0001)  ploadbar=  1.01037533666626E+05
 cg2d: Sum(rhs),rhsMax =  -3.67254819658445E+01  1.71593000394856E+00
(PID.TID 0000.0001)  ploadbar=  1.01038611584084E+05
 cg2d: Sum(rhs),rhsMax =  -3.68368370217434E+01  1.71125736846161E+00
(PID.TID 0000.0001)  ploadbar=  1.01039689501541E+05
 cg2d: Sum(rhs),rhsMax =  -3.69486180907243E+01  1.70654104061978E+00
(PID.TID 0000.0001)  ploadbar=  1.01040767418998E+05
 cg2d: Sum(rhs),rhsMax =  -3.70752655017917E+01  1.70111429441061E+00
(PID.TID 0000.0001)  ploadbar=  1.01041845336456E+05
 cg2d: Sum(rhs),rhsMax =  -3.72498908512078E+01  1.69358338840885E+00
(PID.TID 0000.0001)  ploadbar=  1.01043112636184E+05
 cg2d: Sum(rhs),rhsMax =  -3.74544916491267E+01  1.68480824174807E+00
(PID.TID 0000.0001)  ploadbar=  1.01044379935913E+05
 cg2d: Sum(rhs),rhsMax =  -3.76848032522204E+01  1.67501686197635E+00
(PID.TID 0000.0001)  ploadbar=  1.01045647235642E+05
 cg2d: Sum(rhs),rhsMax =  -3.79417657344164E+01  1.66420021216323E+00
(PID.TID 0000.0001)  ploadbar=  1.01046914535371E+05
 cg2d: Sum(rhs),rhsMax =  -3.82240263196860E+01  1.65245203150622E+00
(PID.TID 0000.0001)  ploadbar=  1.01048181835100E+05
 cg2d: Sum(rhs),rhsMax =  -3.85277529332120E+01  1.63997815842702E+00
(PID.TID 0000.0001)  ploadbar=  1.01049449134829E+05
 cg2d: Sum(rhs),rhsMax =  -3.88538550831568E+01  1.62669949504766E+00
(PID.TID 0000.0001)  ploadbar=  1.01050591823586E+05
 cg2d: Sum(rhs),rhsMax =  -3.91898916352048E+01  1.61316628744716E+00
(PID.TID 0000.0001)  ploadbar=  1.01051734512343E+05
 cg2d: Sum(rhs),rhsMax =  -3.95325848706238E+01  1.59952227548437E+00
(PID.TID 0000.0001)  ploadbar=  1.01052877201100E+05
 cg2d: Sum(rhs),rhsMax =  -3.98815411038748E+01  1.58579093653056E+00
(PID.TID 0000.0001)  ploadbar=  1.01054019889857E+05
 cg2d: Sum(rhs),rhsMax =  -4.02378141278904E+01  1.57193988076924E+00
(PID.TID 0000.0001)  ploadbar=  1.01055162578614E+05
 cg2d: Sum(rhs),rhsMax =  -4.06022957315367E+01  1.55794530329778E+00
(PID.TID 0000.0001)  ploadbar=  1.01056305267372E+05
 cg2d: Sum(rhs),rhsMax =  -4.09690546961170E+01  1.54415179542209E+00
(PID.TID 0000.0001)  ploadbar=  1.01056902169072E+05
 cg2d: Sum(rhs),rhsMax =  -4.13428376365766E+01  1.53038114028704E+00
(PID.TID 0000.0001)  ploadbar=  1.01057499070773E+05
 cg2d: Sum(rhs),rhsMax =  -4.17243794476255E+01  1.51661270164433E+00
(PID.TID 0000.0001)  ploadbar=  1.01058095972473E+05
 cg2d: Sum(rhs),rhsMax =  -4.21115741992324E+01  1.50292758125490E+00
(PID.TID 0000.0001)  ploadbar=  1.01058692874174E+05
 cg2d: Sum(rhs),rhsMax =  -4.25034231906327E+01  1.48936223759976E+00
(PID.TID 0000.0001)  ploadbar=  1.01059289775874E+05
 cg2d: Sum(rhs),rhsMax =  -4.29018004797275E+01  1.47584992806594E+00
(PID.TID 0000.0001)  ploadbar=  1.01059886677575E+05
 cg2d: Sum(rhs),rhsMax =  -4.32900824398665E+01  1.46287798296495E+00
(PID.TID 0000.0001)  ploadbar=  1.01061105258000E+05
 cg2d: Sum(rhs),rhsMax =  -4.36800230148317E+01  1.45002717328279E+00
(PID.TID 0000.0001)  ploadbar=  1.01062323838425E+05
 cg2d: Sum(rhs),rhsMax =  -4.40731939956182E+01  1.43723876257535E+00
(PID.TID 0000.0001)  ploadbar=  1.01063542418850E+05
 cg2d: Sum(rhs),rhsMax =  -4.44642318426739E+01  1.42467786066097E+00
(PID.TID 0000.0001)  ploadbar=  1.01064760999275E+05
 cg2d: Sum(rhs),rhsMax =  -4.48494216136661E+01  1.41245069357203E+00
(PID.TID 0000.0001)  ploadbar=  1.01065979579700E+05
 cg2d: Sum(rhs),rhsMax =  -4.52245292893768E+01  1.40067528871892E+00
(PID.TID 0000.0001)  ploadbar=  1.01067198160125E+05
 cg2d: Sum(rhs),rhsMax =  -4.56061219355902E+01  1.38894264876031E+00
(PID.TID 0000.0001)  ploadbar=  1.01067270766572E+05
 cg2d: Sum(rhs),rhsMax =  -4.59832179494904E+01  1.37757759316868E+00
(PID.TID 0000.0001)  ploadbar=  1.01067343373020E+05
 cg2d: Sum(rhs),rhsMax =  -4.63523845695438E+01  1.36666681506453E+00
(PID.TID 0000.0001)  ploadbar=  1.01067415979467E+05
 cg2d: Sum(rhs),rhsMax =  -4.67123470782683E+01  1.35622794533834E+00
(PID.TID 0000.0001)  ploadbar=  1.01067488585915E+05
 cg2d: Sum(rhs),rhsMax =  -4.70545793620341E+01  1.34648347634423E+00
(PID.TID 0000.0001)  ploadbar=  1.01067561192362E+05
 cg2d: Sum(rhs),rhsMax =  -4.73569656364419E+01  1.33802981067156E+00
(PID.TID 0000.0001)  ploadbar=  1.01067633798810E+05
 cg2d: Sum(rhs),rhsMax =  -4.76405980548044E+01  1.33022739718994E+00
(PID.TID 0000.0001)  ploadbar=  1.01068563882807E+05
 cg2d: Sum(rhs),rhsMax =  -4.79140947008700E+01  1.32281287816246E+00
(PID.TID 0000.0001)  ploadbar=  1.01069493966805E+05
 cg2d: Sum(rhs),rhsMax =  -4.81821550119737E+01  1.31564650058375E+00
(PID.TID 0000.0001)  ploadbar=  1.01070424050803E+05
 cg2d: Sum(rhs),rhsMax =  -4.84468316350462E+01  1.30866487701167E+00
(PID.TID 0000.0001)  ploadbar=  1.01071354134801E+05
 cg2d: Sum(rhs),rhsMax =  -4.87087177144442E+01  1.30185189268000E+00
(PID.TID 0000.0001)  ploadbar=  1.01072284218799E+05
 cg2d: Sum(rhs),rhsMax =  -4.89686760498703E+01  1.29518133854565E+00
(PID.TID 0000.0001)  ploadbar=  1.01073214302797E+05
 cg2d: Sum(rhs),rhsMax =  -4.92329621554797E+01  1.28852411484009E+00
(PID.TID 0000.0001)  ploadbar=  1.01073988983020E+05
 cg2d: Sum(rhs),rhsMax =  -4.95032823178293E+01  1.28183239653537E+00
(PID.TID 0000.0001)  ploadbar=  1.01074763663242E+05
 cg2d: Sum(rhs),rhsMax =  -4.97774711335296E+01  1.27516283766311E+00
(PID.TID 0000.0001)  ploadbar=  1.01075538343465E+05
 cg2d: Sum(rhs),rhsMax =  -5.00562204538962E+01  1.26849691486375E+00
(PID.TID 0000.0001)  ploadbar=  1.01076313023688E+05
 cg2d: Sum(rhs),rhsMax =  -5.03391126572158E+01  1.26184675657355E+00
(PID.TID 0000.0001)  ploadbar=  1.01077087703911E+05
 cg2d: Sum(rhs),rhsMax =  -5.06271333213537E+01  1.25518575333135E+00
(PID.TID 0000.0001)  ploadbar=  1.01077862384134E+05
 cg2d: Sum(rhs),rhsMax =  -5.09244021732174E+01  1.24828375858384E+00
(PID.TID 0000.0001)  ploadbar=  1.01078529683079E+05
 cg2d: Sum(rhs),rhsMax =  -5.12289326080390E+01  1.24119318066122E+00
(PID.TID 0000.0001)  ploadbar=  1.01079196982024E+05
 cg2d: Sum(rhs),rhsMax =  -5.15373927911124E+01  1.23399286989504E+00
(PID.TID 0000.0001)  ploadbar=  1.01079864280969E+05
 cg2d: Sum(rhs),rhsMax =  -5.18479087743589E+01  1.22672610472373E+00
(PID.TID 0000.0001)  ploadbar=  1.01080531579914E+05
 cg2d: Sum(rhs),rhsMax =  -5.21599705292899E+01  1.21940218425260E+00
(PID.TID 0000.0001)  ploadbar=  1.01081198878859E+05
 cg2d: Sum(rhs),rhsMax =  -5.24715683657037E+01  1.21206869978484E+00
(PID.TID 0000.0001)  ploadbar=  1.01081866177804E+05
 cg2d: Sum(rhs),rhsMax =  -5.28052205195267E+01  1.20438557044699E+00
(PID.TID 0000.0001)  ploadbar=  1.01081904464539E+05
 cg2d: Sum(rhs),rhsMax =  -5.31451966243187E+01  1.19671384632106E+00
(PID.TID 0000.0001)  ploadbar=  1.01081942751273E+05
 cg2d: Sum(rhs),rhsMax =  -5.34898453187158E+01  1.18909006593309E+00
(PID.TID 0000.0001)  ploadbar=  1.01081981038008E+05
 cg2d: Sum(rhs),rhsMax =  -5.38364411199194E+01  1.18157169153917E+00
(PID.TID 0000.0001)  ploadbar=  1.01082019324743E+05
 cg2d: Sum(rhs),rhsMax =  -5.41819732977392E+01  1.17422050694663E+00
(PID.TID 0000.0001)  ploadbar=  1.01082057611477E+05
 cg2d: Sum(rhs),rhsMax =  -5.45223830146757E+01  1.16711664255552E+00
(PID.TID 0000.0001)  ploadbar=  1.01082095898212E+05
 cg2d: Sum(rhs),rhsMax =  -5.48567128924101E+01  1.16022183736071E+00
(PID.TID 0000.0001)  ploadbar=  1.01083223599957E+05
 cg2d: Sum(rhs),rhsMax =  -5.51833740348674E+01  1.15356349921938E+00
(PID.TID 0000.0001)  ploadbar=  1.01084351301702E+05
 cg2d: Sum(rhs),rhsMax =  -5.55020925045112E+01  1.14714197880298E+00
(PID.TID 0000.0001)  ploadbar=  1.01085479003446E+05
 cg2d: Sum(rhs),rhsMax =  -5.58134414663843E+01  1.14093745710544E+00
(PID.TID 0000.0001)  ploadbar=  1.01086606705191E+05
 cg2d: Sum(rhs),rhsMax =  -5.61211807344250E+01  1.13486762099833E+00
(PID.TID 0000.0001)  ploadbar=  1.01087734406936E+05
 cg2d: Sum(rhs),rhsMax =  -5.64297297468092E+01  1.12884127725252E+00
(PID.TID 0000.0001)  ploadbar=  1.01088862108681E+05
 cg2d: Sum(rhs),rhsMax =  -5.66903777810457E+01  1.12391754020445E+00
(PID.TID 0000.0001)  ploadbar=  1.01089686799558E+05
 cg2d: Sum(rhs),rhsMax =  -5.69561492101974E+01  1.11902287298692E+00
(PID.TID 0000.0001)  ploadbar=  1.01090511490435E+05
 cg2d: Sum(rhs),rhsMax =  -5.72349978739659E+01  1.11400107001825E+00
(PID.TID 0000.0001)  ploadbar=  1.01091336181312E+05
 cg2d: Sum(rhs),rhsMax =  -5.75245344873364E+01  1.10890131714194E+00
(PID.TID 0000.0001)  ploadbar=  1.01092160872189E+05
 cg2d: Sum(rhs),rhsMax =  -5.78201081625619E+01  1.10381395286507E+00
(PID.TID 0000.0001)  ploadbar=  1.01092985563066E+05
 cg2d: Sum(rhs),rhsMax =  -5.81214602480686E+01  1.09874156758173E+00
(PID.TID 0000.0001)  ploadbar=  1.01093810253942E+05
 cg2d: Sum(rhs),rhsMax =  -5.84102405650276E+01  1.09392491430655E+00
(PID.TID 0000.0001)  ploadbar=  1.01093209512456E+05
 cg2d: Sum(rhs),rhsMax =  -5.86970144359718E+01  1.08915601318614E+00
(PID.TID 0000.0001)  ploadbar=  1.01092608770970E+05
 cg2d: Sum(rhs),rhsMax =  -5.89797407707765E+01  1.08446893789337E+00
(PID.TID 0000.0001)  ploadbar=  1.01092008029484E+05
 cg2d: Sum(rhs),rhsMax =  -5.92611523265236E+01  1.07980533519403E+00
(PID.TID 0000.0001)  ploadbar=  1.01091407287998E+05
 cg2d: Sum(rhs),rhsMax =  -5.95412230033822E+01  1.07516289259959E+00
(PID.TID 0000.0001)  ploadbar=  1.01090806546512E+05
 cg2d: Sum(rhs),rhsMax =  -5.98209303659246E+01  1.07052294738785E+00
(PID.TID 0000.0001)  ploadbar=  1.01090205805026E+05
 cg2d: Sum(rhs),rhsMax =  -6.01169514458012E+01  1.06564776436430E+00
(PID.TID 0000.0001)  ploadbar=  1.01088234175209E+05
 cg2d: Sum(rhs),rhsMax =  -6.04135841012807E+01  1.06081066442495E+00
(PID.TID 0000.0001)  ploadbar=  1.01086262545391E+05
 cg2d: Sum(rhs),rhsMax =  -6.07155112136783E+01  1.05592636809955E+00
(PID.TID 0000.0001)  ploadbar=  1.01084290915574E+05
 cg2d: Sum(rhs),rhsMax =  -6.10253710692062E+01  1.05094890672658E+00
(PID.TID 0000.0001)  ploadbar=  1.01082319285756E+05
 cg2d: Sum(rhs),rhsMax =  -6.13469739884972E+01  1.04581218889420E+00
(PID.TID 0000.0001)  ploadbar=  1.01080347655938E+05
 cg2d: Sum(rhs),rhsMax =  -6.16878269624744E+01  1.04039230080299E+00
(PID.TID 0000.0001)  ploadbar=  1.01078376026121E+05
 cg2d: Sum(rhs),rhsMax =  -6.20689273448792E+01  1.03432397566596E+00
(PID.TID 0000.0001)  ploadbar=  1.01077796548182E+05
 cg2d: Sum(rhs),rhsMax =  -6.24651302810223E+01  1.02804178049760E+00
(PID.TID 0000.0001)  ploadbar=  1.01077217070244E+05
 cg2d: Sum(rhs),rhsMax =  -6.28771123896582E+01  1.02154133457708E+00
(PID.TID 0000.0001)  ploadbar=  1.01076637592306E+05
 cg2d: Sum(rhs),rhsMax =  -6.33116165525929E+01  1.01472272129107E+00
(PID.TID 0000.0001)  ploadbar=  1.01076058114368E+05
 cg2d: Sum(rhs),rhsMax =  -6.37774003519218E+01  1.00746206190083E+00
(PID.TID 0000.0001)  ploadbar=  1.01075478636429E+05
 cg2d: Sum(rhs),rhsMax =  -6.42893042473961E+01  9.99548838157418E-01
(PID.TID 0000.0001)  ploadbar=  1.01074899158491E+05
 cg2d: Sum(rhs),rhsMax =  -6.37534912092938E+01  1.00813482073830E+00
(PID.TID 0000.0001)  ploadbar=  1.01075380999151E+05
 cg2d: Sum(rhs),rhsMax =  -6.30815082443353E+01  1.01913488062141E+00
(PID.TID 0000.0001)  ploadbar=  1.01075862839810E+05
 cg2d: Sum(rhs),rhsMax =  -6.23876119914366E+01  1.03080517980727E+00
(PID.TID 0000.0001)  ploadbar=  1.01076344680470E+05
 cg2d: Sum(rhs),rhsMax =  -6.16800108355338E+01  1.04304080744312E+00
(PID.TID 0000.0001)  ploadbar=  1.01076826521130E+05
 cg2d: Sum(rhs),rhsMax =  -6.09586135815918E+01  1.05586862998489E+00
(PID.TID 0000.0001)  ploadbar=  1.01077308361790E+05
 cg2d: Sum(rhs),rhsMax =  -6.02203892574370E+01  1.06936968785998E+00
(PID.TID 0000.0001)  ploadbar=  1.01077790202450E+05
 cg2d: Sum(rhs),rhsMax =  -5.94461648342175E+01  1.08380914814277E+00
(PID.TID 0000.0001)  ploadbar=  1.01077305201141E+05
 cg2d: Sum(rhs),rhsMax =  -5.86611599948213E+01  1.09877664049648E+00
(PID.TID 0000.0001)  ploadbar=  1.01076820199832E+05
 cg2d: Sum(rhs),rhsMax =  -5.79055005210763E+01  1.11352786178799E+00
(PID.TID 0000.0001)  ploadbar=  1.01076335198523E+05
 cg2d: Sum(rhs),rhsMax =  -5.71816525592648E+01  1.12798019874523E+00
(PID.TID 0000.0001)  ploadbar=  1.01075850197214E+05
 cg2d: Sum(rhs),rhsMax =  -5.65007780001724E+01  1.14186961759831E+00
(PID.TID 0000.0001)  ploadbar=  1.01075365195905E+05
 cg2d: Sum(rhs),rhsMax =  -5.58706331649138E+01  1.15498245412143E+00
(PID.TID 0000.0001)  ploadbar=  1.01074880194596E+05
 cg2d: Sum(rhs),rhsMax =  -5.53029641612710E+01  1.16708199518663E+00
(PID.TID 0000.0001)  ploadbar=  1.01074089618622E+05
 cg2d: Sum(rhs),rhsMax =  -5.48060328658279E+01  1.17791137439376E+00
(PID.TID 0000.0001)  ploadbar=  1.01073299042648E+05
 cg2d: Sum(rhs),rhsMax =  -5.43776634810107E+01  1.18743515011368E+00
(PID.TID 0000.0001)  ploadbar=  1.01072508466674E+05
 cg2d: Sum(rhs),rhsMax =  -5.40151529570880E+01  1.19564135726359E+00
(PID.TID 0000.0001)  ploadbar=  1.01071717890700E+05
 cg2d: Sum(rhs),rhsMax =  -5.37117222290673E+01  1.20262230975353E+00
(PID.TID 0000.0001)  ploadbar=  1.01070927314726E+05
 cg2d: Sum(rhs),rhsMax =  -5.34611945284294E+01  1.20846949574182E+00
(PID.TID 0000.0001)  ploadbar=  1.01070136738752E+05
 cg2d: Sum(rhs),rhsMax =  -5.32555560205050E+01  1.21331197847613E+00
(PID.TID 0000.0001)  ploadbar=  1.01069870937047E+05
 cg2d: Sum(rhs),rhsMax =  -5.30411930455814E+01  1.21835527335760E+00
(PID.TID 0000.0001)  ploadbar=  1.01069605135342E+05
 cg2d: Sum(rhs),rhsMax =  -5.28003802113403E+01  1.22401361274811E+00
(PID.TID 0000.0001)  ploadbar=  1.01069339333637E+05
 cg2d: Sum(rhs),rhsMax =  -5.25245906808143E+01  1.23050212308432E+00
(PID.TID 0000.0001)  ploadbar=  1.01069073531932E+05
 cg2d: Sum(rhs),rhsMax =  -5.22097892165519E+01  1.23794233208679E+00
(PID.TID 0000.0001)  ploadbar=  1.01068807730227E+05
 cg2d: Sum(rhs),rhsMax =  -5.18527107357792E+01  1.24644671644698E+00
(PID.TID 0000.0001)  ploadbar=  1.01068541928522E+05
 cg2d: Sum(rhs),rhsMax =  -5.14440906512444E+01  1.25638469085387E+00
(PID.TID 0000.0001)  ploadbar=  1.01068967481420E+05
 cg2d: Sum(rhs),rhsMax =  -5.09814382481507E+01  1.26788274608948E+00
(PID.TID 0000.0001)  ploadbar=  1.01069393034319E+05
 cg2d: Sum(rhs),rhsMax =  -5.04666754357719E+01  1.28096819425186E+00
(PID.TID 0000.0001)  ploadbar=  1.01069818587217E+05
 cg2d: Sum(rhs),rhsMax =  -4.99186248307083E+01  1.29523904688138E+00
(PID.TID 0000.0001)  ploadbar=  1.01070244140115E+05
 cg2d: Sum(rhs),rhsMax =  -4.93527152070876E+01  1.31035317811332E+00
(PID.TID 0000.0001)  ploadbar=  1.01070669693013E+05
 cg2d: Sum(rhs),rhsMax =  -4.87867665580597E+01  1.32587091955257E+00
(PID.TID 0000.0001)  ploadbar=  1.01071095245912E+05
 cg2d: Sum(rhs),rhsMax =  -4.82153224676313E+01  1.34187471532947E+00
(PID.TID 0000.0001)  ploadbar=  1.01071302467314E+05
 cg2d: Sum(rhs),rhsMax =  -4.76525360355547E+01  1.35798063316391E+00
(PID.TID 0000.0001)  ploadbar=  1.01071509688717E+05
 cg2d: Sum(rhs),rhsMax =  -4.70921895522990E+01  1.37436229609183E+00
(PID.TID 0000.0001)  ploadbar=  1.01071716910119E+05
 cg2d: Sum(rhs),rhsMax =  -4.65732078478503E+01  1.38985834412778E+00
(PID.TID 0000.0001)  ploadbar=  1.01071924131522E+05
 cg2d: Sum(rhs),rhsMax =  -4.63504848568984E+01  1.39666980807427E+00
(PID.TID 0000.0001)  ploadbar=  1.01072131352924E+05
 cg2d: Sum(rhs),rhsMax =  -4.61432300836473E+01  1.40302599176278E+00
(PID.TID 0000.0001)  ploadbar=  1.01072338574327E+05
 cg2d: Sum(rhs),rhsMax =  -4.60005446463971E+01  1.40749134841251E+00
(PID.TID 0000.0001)  ploadbar=  1.01072547695481E+05
 cg2d: Sum(rhs),rhsMax =  -4.59383861479220E+01  1.40953137992887E+00
(PID.TID 0000.0001)  ploadbar=  1.01072756816636E+05
 cg2d: Sum(rhs),rhsMax =  -4.59442190868041E+01  1.40949922082405E+00
(PID.TID 0000.0001)  ploadbar=  1.01072965937790E+05
 cg2d: Sum(rhs),rhsMax =  -4.60113048246162E+01  1.40759987072389E+00
(PID.TID 0000.0001)  ploadbar=  1.01073175058944E+05
 cg2d: Sum(rhs),rhsMax =  -4.61274958763884E+01  1.40421298339064E+00
(PID.TID 0000.0001)  ploadbar=  1.01073384180098E+05
 cg2d: Sum(rhs),rhsMax =  -4.62805144413911E+01  1.39972594366157E+00
(PID.TID 0000.0001)  ploadbar=  1.01073593301253E+05
 cg2d: Sum(rhs),rhsMax =  -4.64286971417790E+01  1.39535821191222E+00
(PID.TID 0000.0001)  ploadbar=  1.01074275660696E+05
 cg2d: Sum(rhs),rhsMax =  -4.66112931590970E+01  1.38993314230666E+00
(PID.TID 0000.0001)  ploadbar=  1.01074958020140E+05
 cg2d: Sum(rhs),rhsMax =  -4.68244933856721E+01  1.38358527840662E+00
(PID.TID 0000.0001)  ploadbar=  1.01075640379583E+05
 cg2d: Sum(rhs),rhsMax =  -4.70570851314376E+01  1.37666545416226E+00
(PID.TID 0000.0001)  ploadbar=  1.01076322739027E+05
 cg2d: Sum(rhs),rhsMax =  -4.72542413477765E+01  1.37078018418197E+00
(PID.TID 0000.0001)  ploadbar=  1.01077005098470E+05
 cg2d: Sum(rhs),rhsMax =  -4.59434835325105E+01  1.40967984112001E+00
(PID.TID 0000.0001)  ploadbar=  1.01077687457914E+05
 cg2d: Sum(rhs),rhsMax =  -4.43332679644986E+01  1.46075792764711E+00
(PID.TID 0000.0001)  ploadbar=  1.01077970783535E+05
 cg2d: Sum(rhs),rhsMax =  -4.27573710806989E+01  1.51456221675172E+00
(PID.TID 0000.0001)  ploadbar=  1.01078254109156E+05
 cg2d: Sum(rhs),rhsMax =  -4.16639909192992E+01  1.55436508661622E+00
(PID.TID 0000.0001)  ploadbar=  1.01078537434777E+05
 cg2d: Sum(rhs),rhsMax =  -4.08196410147178E+01  1.58666754390024E+00
(PID.TID 0000.0001)  ploadbar=  1.01078820760398E+05
 cg2d: Sum(rhs),rhsMax =  -4.02096249579189E+01  1.61098537645981E+00
(PID.TID 0000.0001)  ploadbar=  1.01079104086019E+05
 cg2d: Sum(rhs),rhsMax =  -3.97494373624196E+01  1.62997827565734E+00
(PID.TID 0000.0001)  ploadbar=  1.01079387411640E+05
 cg2d: Sum(rhs),rhsMax =  -3.93666142209846E+01  1.64618941294022E+00
(PID.TID 0000.0001)  ploadbar=  1.01079803834281E+05
 cg2d: Sum(rhs),rhsMax =  -3.89824744272917E+01  1.66278620185120E+00
(PID.TID 0000.0001)  ploadbar=  1.01080220256922E+05
 cg2d: Sum(rhs),rhsMax =  -3.86087916433267E+01  1.67926059298735E+00
(PID.TID 0000.0001)  ploadbar=  1.01080636679564E+05
 cg2d: Sum(rhs),rhsMax =  -3.82711947201309E+01  1.69445193724982E+00
(PID.TID 0000.0001)  ploadbar=  1.01081053102205E+05
 cg2d: Sum(rhs),rhsMax =  -3.79853205119499E+01  1.70757597088530E+00
(PID.TID 0000.0001)  ploadbar=  1.01081469524846E+05
 cg2d: Sum(rhs),rhsMax =  -3.77666081671143E+01  1.71782873085142E+00
(PID.TID 0000.0001)  ploadbar=  1.01081885947487E+05
 cg2d: Sum(rhs),rhsMax =  -3.76010065884188E+01  1.72581014501172E+00
(PID.TID 0000.0001)  ploadbar=  1.01081120790955E+05
 cg2d: Sum(rhs),rhsMax =  -3.77185888644163E+01  1.72089018079022E+00
(PID.TID 0000.0001)  ploadbar=  1.01080355634423E+05
 cg2d: Sum(rhs),rhsMax =  -3.79611313228808E+01  1.71038859267775E+00
(PID.TID 0000.0001)  ploadbar=  1.01079590477892E+05
 cg2d: Sum(rhs),rhsMax =  -3.81591166695045E+01  1.70203462803515E+00
(PID.TID 0000.0001)  ploadbar=  1.01078825321360E+05
 cg2d: Sum(rhs),rhsMax =  -3.83963699926172E+01  1.69205226713232E+00
(PID.TID 0000.0001)  ploadbar=  1.01078060164828E+05
 cg2d: Sum(rhs),rhsMax =  -3.86441562366039E+01  1.68174293094636E+00
(PID.TID 0000.0001)  ploadbar=  1.01077295008296E+05
 cg2d: Sum(rhs),rhsMax =  -3.89013380552773E+01  1.67106428491197E+00
(PID.TID 0000.0001)  ploadbar=  1.01077553162755E+05
 cg2d: Sum(rhs),rhsMax =  -3.91679736827276E+01  1.66002665065272E+00
(PID.TID 0000.0001)  ploadbar=  1.01077811317213E+05
 cg2d: Sum(rhs),rhsMax =  -3.94401975177412E+01  1.64880667083196E+00
(PID.TID 0000.0001)  ploadbar=  1.01078069471672E+05
 cg2d: Sum(rhs),rhsMax =  -3.97191479882997E+01  1.63736418712855E+00
(PID.TID 0000.0001)  ploadbar=  1.01078327626130E+05
 cg2d: Sum(rhs),rhsMax =  -4.00014222840572E+01  1.62584835683667E+00
(PID.TID 0000.0001)  ploadbar=  1.01078585780589E+05
 cg2d: Sum(rhs),rhsMax =  -4.02830524034822E+01  1.61442404280783E+00
(PID.TID 0000.0001)  ploadbar=  1.01078843935047E+05
 cg2d: Sum(rhs),rhsMax =  -4.05610677090473E+01  1.60340982659478E+00
(PID.TID 0000.0001)  ploadbar=  1.01079433724395E+05
 cg2d: Sum(rhs),rhsMax =  -4.08312568838209E+01  1.59295281052351E+00
(PID.TID 0000.0001)  ploadbar=  1.01080023513742E+05
 cg2d: Sum(rhs),rhsMax =  -4.10876380561138E+01  1.58325891348800E+00
(PID.TID 0000.0001)  ploadbar=  1.01080613303090E+05
 cg2d: Sum(rhs),rhsMax =  -4.13308732997147E+01  1.57427267369107E+00
(PID.TID 0000.0001)  ploadbar=  1.01081203092438E+05
 cg2d: Sum(rhs),rhsMax =  -4.15640625908868E+01  1.56585497266188E+00
(PID.TID 0000.0001)  ploadbar=  1.01081792881785E+05
 cg2d: Sum(rhs),rhsMax =  -4.17893952700303E+01  1.55790849357888E+00
(PID.TID 0000.0001)  ploadbar=  1.01082382671133E+05
 cg2d: Sum(rhs),rhsMax =  -4.20207614351331E+01  1.54981664200845E+00
(PID.TID 0000.0001)  ploadbar=  1.01082695315896E+05
 cg2d: Sum(rhs),rhsMax =  -4.22564808793352E+01  1.54163909334709E+00
(PID.TID 0000.0001)  ploadbar=  1.01083007960659E+05
 cg2d: Sum(rhs),rhsMax =  -4.24902091008969E+01  1.53359947599647E+00
(PID.TID 0000.0001)  ploadbar=  1.01083320605423E+05
 cg2d: Sum(rhs),rhsMax =  -4.27281761440608E+01  1.52546455153611E+00
(PID.TID 0000.0001)  ploadbar=  1.01083633250186E+05
 cg2d: Sum(rhs),rhsMax =  -4.29672735150834E+01  1.51734701399428E+00
(PID.TID 0000.0001)  ploadbar=  1.01083945894949E+05
 cg2d: Sum(rhs),rhsMax =  -4.31906451532150E+01  1.50983615387994E+00
(PID.TID 0000.0001)  ploadbar=  1.01084258539713E+05
 cg2d: Sum(rhs),rhsMax =  -4.34062194332856E+01  1.50274043111831E+00
(PID.TID 0000.0001)  ploadbar=  1.01083360084891E+05
 cg2d: Sum(rhs),rhsMax =  -4.36186452817879E+01  1.49588610393866E+00
(PID.TID 0000.0001)  ploadbar=  1.01082461630070E+05
 cg2d: Sum(rhs),rhsMax =  -4.38256059774585E+01  1.48933748554443E+00
(PID.TID 0000.0001)  ploadbar=  1.01081563175248E+05
 cg2d: Sum(rhs),rhsMax =  -4.40249391119342E+01  1.48314532093687E+00
(PID.TID 0000.0001)  ploadbar=  1.01080664720426E+05
 cg2d: Sum(rhs),rhsMax =  -4.42169486611611E+01  1.47728394552195E+00
(PID.TID 0000.0001)  ploadbar=  1.01079766265605E+05
 cg2d: Sum(rhs),rhsMax =  -4.44016661325610E+01  1.47173676345681E+00
(PID.TID 0000.0001)  ploadbar=  1.01078867810783E+05
 cg2d: Sum(rhs),rhsMax =  -4.45794647618939E+01  1.46638373871122E+00
(PID.TID 0000.0001)  ploadbar=  1.01078046442995E+05
 cg2d: Sum(rhs),rhsMax =  -4.47494261038172E+01  1.46124886995785E+00
(PID.TID 0000.0001)  ploadbar=  1.01077225075208E+05
 cg2d: Sum(rhs),rhsMax =  -4.49112024061492E+01  1.45633692283315E+00
(PID.TID 0000.0001)  ploadbar=  1.01076403707420E+05
 cg2d: Sum(rhs),rhsMax =  -4.50582038137167E+01  1.45185497291764E+00
(PID.TID 0000.0001)  ploadbar=  1.01075582339632E+05
 cg2d: Sum(rhs),rhsMax =  -4.51892517067875E+01  1.44783228597435E+00
(PID.TID 0000.0001)  ploadbar=  1.01074760971845E+05
 cg2d: Sum(rhs),rhsMax =  -4.53058901746764E+01  1.44421175743730E+00
(PID.TID 0000.0001)  ploadbar=  1.01073939604057E+05
 cg2d: Sum(rhs),rhsMax =  -4.53791257805807E+01  1.44202525316563E+00
(PID.TID 0000.0001)  ploadbar=  1.01074144409993E+05
 cg2d: Sum(rhs),rhsMax =  -4.54417838515097E+01  1.44021206307011E+00
(PID.TID 0000.0001)  ploadbar=  1.01074349215928E+05
 cg2d: Sum(rhs),rhsMax =  -4.54913857372167E+01  1.43883852467408E+00
(PID.TID 0000.0001)  ploadbar=  1.01074554021864E+05
 cg2d: Sum(rhs),rhsMax =  -4.55259009724223E+01  1.43796379687564E+00
(PID.TID 0000.0001)  ploadbar=  1.01074758827799E+05
 cg2d: Sum(rhs),rhsMax =  -4.55471625775132E+01  1.43752807654985E+00
(PID.TID 0000.0001)  ploadbar=  1.01074963633735E+05
 cg2d: Sum(rhs),rhsMax =  -4.55547904381691E+01  1.43754170977665E+00
(PID.TID 0000.0001)  ploadbar=  1.01075168439670E+05
 cg2d: Sum(rhs),rhsMax =  -4.55303403990710E+01  1.43851963936730E+00
(PID.TID 0000.0001)  ploadbar=  1.01075171212820E+05
 cg2d: Sum(rhs),rhsMax =  -4.54946459335576E+01  1.43980100573231E+00
(PID.TID 0000.0001)  ploadbar=  1.01075173985970E+05
 cg2d: Sum(rhs),rhsMax =  -4.54455149992426E+01  1.44144814396360E+00
(PID.TID 0000.0001)  ploadbar=  1.01075176759120E+05
 cg2d: Sum(rhs),rhsMax =  -4.53757020253659E+01  1.44368815636877E+00
(PID.TID 0000.0001)  ploadbar=  1.01075179532270E+05
 cg2d: Sum(rhs),rhsMax =  -4.52815639573370E+01  1.44663980527787E+00
(PID.TID 0000.0001)  ploadbar=  1.01075182305420E+05
 cg2d: Sum(rhs),rhsMax =  -4.51611246606173E+01  1.45037346091560E+00
(PID.TID 0000.0001)  ploadbar=  1.01075185078570E+05
 cg2d: Sum(rhs),rhsMax =  -4.49743309081402E+01  1.45633119048628E+00
(PID.TID 0000.0001)  ploadbar=  1.01074697220188E+05
 cg2d: Sum(rhs),rhsMax =  -4.47693594321079E+01  1.46298943262442E+00
(PID.TID 0000.0001)  ploadbar=  1.01074209361806E+05
 cg2d: Sum(rhs),rhsMax =  -4.45523811711646E+01  1.47015381059616E+00
(PID.TID 0000.0001)  ploadbar=  1.01073721503424E+05
 cg2d: Sum(rhs),rhsMax =  -4.43306243052682E+01  1.47758397609697E+00
(PID.TID 0000.0001)  ploadbar=  1.01073233645042E+05
 cg2d: Sum(rhs),rhsMax =  -4.41125937889415E+01  1.48498826277295E+00
(PID.TID 0000.0001)  ploadbar=  1.01072745786660E+05
 cg2d: Sum(rhs),rhsMax =  -4.39143147301087E+01  1.49181653831609E+00
(PID.TID 0000.0001)  ploadbar=  1.01072257928277E+05
 cg2d: Sum(rhs),rhsMax =  -4.37666245172086E+01  1.49694016364392E+00
(PID.TID 0000.0001)  ploadbar=  1.01072215795796E+05
 cg2d: Sum(rhs),rhsMax =  -4.36703777569307E+01  1.50029383049718E+00
(PID.TID 0000.0001)  ploadbar=  1.01072173663315E+05
 cg2d: Sum(rhs),rhsMax =  -4.36278210235250E+01  1.50177540127652E+00
(PID.TID 0000.0001)  ploadbar=  1.01072131530834E+05
 cg2d: Sum(rhs),rhsMax =  -4.36253863618146E+01  1.50183811003728E+00
(PID.TID 0000.0001)  ploadbar=  1.01072089398353E+05
 cg2d: Sum(rhs),rhsMax =  -4.36445759405474E+01  1.50111628075752E+00
(PID.TID 0000.0001)  ploadbar=  1.01072047265872E+05
 cg2d: Sum(rhs),rhsMax =  -4.36733123914667E+01  1.50002698882571E+00
(PID.TID 0000.0001)  ploadbar=  1.01072005133390E+05
 cg2d: Sum(rhs),rhsMax =  -4.37665663478199E+01  1.49679842421998E+00
(PID.TID 0000.0001)  ploadbar=  1.01071854020955E+05
 cg2d: Sum(rhs),rhsMax =  -4.38695018899894E+01  1.49331767170198E+00
(PID.TID 0000.0001)  ploadbar=  1.01071702908519E+05
 cg2d: Sum(rhs),rhsMax =  -4.39738173782646E+01  1.48986248725641E+00
(PID.TID 0000.0001)  ploadbar=  1.01071551796083E+05
 cg2d: Sum(rhs),rhsMax =  -4.40827678854598E+01  1.48631758236546E+00
(PID.TID 0000.0001)  ploadbar=  1.01071400683647E+05
 cg2d: Sum(rhs),rhsMax =  -4.42047037641024E+01  1.48240415601432E+00
(PID.TID 0000.0001)  ploadbar=  1.01071249571211E+05
 cg2d: Sum(rhs),rhsMax =  -4.43417922789975E+01  1.47805678605729E+00
(PID.TID 0000.0001)  ploadbar=  1.01071098458776E+05
 cg2d: Sum(rhs),rhsMax =  -4.44743755209349E+01  1.47387708312367E+00
(PID.TID 0000.0001)  ploadbar=  1.01070616010841E+05
 cg2d: Sum(rhs),rhsMax =  -4.46168690740565E+01  1.46938395956273E+00
(PID.TID 0000.0001)  ploadbar=  1.01070133562907E+05
 cg2d: Sum(rhs),rhsMax =  -4.47639645864854E+01  1.46475104252701E+00
(PID.TID 0000.0001)  ploadbar=  1.01069651114972E+05
 cg2d: Sum(rhs),rhsMax =  -4.49245369552599E+01  1.45968480842130E+00
(PID.TID 0000.0001)  ploadbar=  1.01069168667038E+05
 cg2d: Sum(rhs),rhsMax =  -4.50961244674960E+01  1.45427108724775E+00
(PID.TID 0000.0001)  ploadbar=  1.01068686219104E+05
 cg2d: Sum(rhs),rhsMax =  -4.52771546044862E+01  1.44856857002181E+00
(PID.TID 0000.0001)  ploadbar=  1.01068203771169E+05
 cg2d: Sum(rhs),rhsMax =  -4.54563767944261E+01  1.44299965902485E+00
(PID.TID 0000.0001)  ploadbar=  1.01067889600660E+05
 cg2d: Sum(rhs),rhsMax =  -4.56546772317429E+01  1.43690318580176E+00
(PID.TID 0000.0001)  ploadbar=  1.01067575430150E+05
 cg2d: Sum(rhs),rhsMax =  -4.58812196521013E+01  1.42999930546851E+00
(PID.TID 0000.0001)  ploadbar=  1.01067261259640E+05
 cg2d: Sum(rhs),rhsMax =  -4.61404865004870E+01  1.42216566443104E+00
(PID.TID 0000.0001)  ploadbar=  1.01066947089130E+05
 cg2d: Sum(rhs),rhsMax =  -4.64324343494517E+01  1.41343192330508E+00
(PID.TID 0000.0001)  ploadbar=  1.01066632918621E+05
 cg2d: Sum(rhs),rhsMax =  -4.67643834377626E+01  1.40360866884457E+00
(PID.TID 0000.0001)  ploadbar=  1.01066318748111E+05
 cg2d: Sum(rhs),rhsMax =  -4.71118924571837E+01  1.39340394824731E+00
(PID.TID 0000.0001)  ploadbar=  1.01066523597464E+05
 cg2d: Sum(rhs),rhsMax =  -4.75130260036863E+01  1.38172494309870E+00
(PID.TID 0000.0001)  ploadbar=  1.01066728446818E+05
 cg2d: Sum(rhs),rhsMax =  -4.79935529909166E+01  1.36791354357607E+00
(PID.TID 0000.0001)  ploadbar=  1.01066933296171E+05
 cg2d: Sum(rhs),rhsMax =  -4.85590479256213E+01  1.35194806430673E+00
(PID.TID 0000.0001)  ploadbar=  1.01067138145524E+05
 cg2d: Sum(rhs),rhsMax =  -4.92255538864962E+01  1.33355057482657E+00
(PID.TID 0000.0001)  ploadbar=  1.01067342994877E+05
 cg2d: Sum(rhs),rhsMax =  -5.00069659227850E+01  1.31256431712276E+00
(PID.TID 0000.0001)  ploadbar=  1.01067547844231E+05
 cg2d: Sum(rhs),rhsMax =  -5.09096131662261E+01  1.28920321771457E+00
(PID.TID 0000.0001)  ploadbar=  1.01066804910001E+05
 cg2d: Sum(rhs),rhsMax =  -5.19334258100199E+01  1.26375371308066E+00
(PID.TID 0000.0001)  ploadbar=  1.01066061975771E+05
 cg2d: Sum(rhs),rhsMax =  -5.31012087402744E+01  1.23597425793872E+00
(PID.TID 0000.0001)  ploadbar=  1.01065319041542E+05
 cg2d: Sum(rhs),rhsMax =  -5.43416159147544E+01  1.20781274858757E+00
(PID.TID 0000.0001)  ploadbar=  1.01064576107312E+05
 cg2d: Sum(rhs),rhsMax =  -5.32280673958760E+01  1.23316703122048E+00
(PID.TID 0000.0001)  ploadbar=  1.01063833173083E+05
 cg2d: Sum(rhs),rhsMax =  -5.20986324656211E+01  1.26002361859638E+00
(PID.TID 0000.0001)  ploadbar=  1.01063090238853E+05
 cg2d: Sum(rhs),rhsMax =  -5.10414100672971E+01  1.28623225905903E+00
(PID.TID 0000.0001)  ploadbar=  1.01063379898394E+05
 cg2d: Sum(rhs),rhsMax =  -5.00440193023433E+01  1.31195912480281E+00
(PID.TID 0000.0001)  ploadbar=  1.01063669557936E+05
 cg2d: Sum(rhs),rhsMax =  -4.91292017503640E+01  1.33645160918514E+00
(PID.TID 0000.0001)  ploadbar=  1.01063959217477E+05
 cg2d: Sum(rhs),rhsMax =  -4.82962792783914E+01  1.35952974673411E+00
(PID.TID 0000.0001)  ploadbar=  1.01064248877018E+05
 cg2d: Sum(rhs),rhsMax =  -4.75375697046369E+01  1.38122358613966E+00
(PID.TID 0000.0001)  ploadbar=  1.01064538536560E+05
 cg2d: Sum(rhs),rhsMax =  -4.68419829543799E+01  1.40169762425223E+00
(PID.TID 0000.0001)  ploadbar=  1.01064828196101E+05
 cg2d: Sum(rhs),rhsMax =  -4.62125625606182E+01  1.42077170508459E+00
(PID.TID 0000.0001)  ploadbar=  1.01065356269236E+05
 cg2d: Sum(rhs),rhsMax =  -4.56244159582438E+01  1.43908190612491E+00
(PID.TID 0000.0001)  ploadbar=  1.01065884342370E+05
 cg2d: Sum(rhs),rhsMax =  -4.50743434469060E+01  1.45663899114464E+00
(PID.TID 0000.0001)  ploadbar=  1.01066412415505E+05
 cg2d: Sum(rhs),rhsMax =  -4.45615241541886E+01  1.47338714146321E+00
(PID.TID 0000.0001)  ploadbar=  1.01066940488639E+05
 cg2d: Sum(rhs),rhsMax =  -4.40879056455320E+01  1.48918802500564E+00
(PID.TID 0000.0001)  ploadbar=  1.01067468561774E+05
 cg2d: Sum(rhs),rhsMax =  -4.36552779923554E+01  1.50390500169329E+00
(PID.TID 0000.0001)  ploadbar=  1.01067996634908E+05
 cg2d: Sum(rhs),rhsMax =  -4.32591966307349E+01  1.51759800920371E+00
(PID.TID 0000.0001)  ploadbar=  1.01069738467390E+05
 cg2d: Sum(rhs),rhsMax =  -4.29073234785415E+01  1.52992443327239E+00
(PID.TID 0000.0001)  ploadbar=  1.01071480299873E+05
 cg2d: Sum(rhs),rhsMax =  -4.25874821101660E+01  1.54124911867804E+00
(PID.TID 0000.0001)  ploadbar=  1.01073222132355E+05
 cg2d: Sum(rhs),rhsMax =  -4.23002887901851E+01  1.55149999022592E+00
(PID.TID 0000.0001)  ploadbar=  1.01074963964837E+05
 cg2d: Sum(rhs),rhsMax =  -4.20423495557117E+01  1.56075740719521E+00
(PID.TID 0000.0001)  ploadbar=  1.01076705797319E+05
 cg2d: Sum(rhs),rhsMax =  -4.18148522984616E+01  1.56893648790023E+00
(PID.TID 0000.0001)  ploadbar=  1.01078447629801E+05
 cg2d: Sum(rhs),rhsMax =  -4.15876686042184E+01  1.57732515170773E+00
(PID.TID 0000.0001)  ploadbar=  1.01080620880506E+05
 cg2d: Sum(rhs),rhsMax =  -4.13694484133533E+01  1.58559448927143E+00
(PID.TID 0000.0001)  ploadbar=  1.01082794131211E+05
 cg2d: Sum(rhs),rhsMax =  -4.11566287225839E+01  1.59387171625627E+00
(PID.TID 0000.0001)  ploadbar=  1.01084967381915E+05
 cg2d: Sum(rhs),rhsMax =  -4.09532734327705E+01  1.60198611214548E+00
(PID.TID 0000.0001)  ploadbar=  1.01087140632620E+05
 cg2d: Sum(rhs),rhsMax =  -4.07681575892066E+01  1.60957279012018E+00
(PID.TID 0000.0001)  ploadbar=  1.01089313883325E+05
 cg2d: Sum(rhs),rhsMax =  -4.06081231770516E+01  1.61634061628698E+00
(PID.TID 0000.0001)  ploadbar=  1.01091487134029E+05
 cg2d: Sum(rhs),rhsMax =  -4.04627918573525E+01  1.62251185572674E+00
(PID.TID 0000.0001)  ploadbar=  1.01093559835072E+05
 cg2d: Sum(rhs),rhsMax =  -4.03331402962335E+01  1.62802444081594E+00
(PID.TID 0000.0001)  ploadbar=  1.01095632536115E+05
 cg2d: Sum(rhs),rhsMax =  -4.02128417889533E+01  1.63312186574936E+00
(PID.TID 0000.0001)  ploadbar=  1.01097705237158E+05
 cg2d: Sum(rhs),rhsMax =  -4.00985229736301E+01  1.63793134961694E+00
(PID.TID 0000.0001)  ploadbar=  1.01099777938200E+05
 cg2d: Sum(rhs),rhsMax =  -3.99877215468221E+01  1.64255003401929E+00
(PID.TID 0000.0001)  ploadbar=  1.01101850639243E+05
 cg2d: Sum(rhs),rhsMax =  -3.98724246007469E+01  1.64730249357310E+00
(PID.TID 0000.0001)  ploadbar=  1.01103923340286E+05
 cg2d: Sum(rhs),rhsMax =  -3.97288419206243E+01  1.65331392223314E+00
(PID.TID 0000.0001)  ploadbar=  1.01105917522678E+05
 cg2d: Sum(rhs),rhsMax =  -3.95665204967883E+01  1.66020068888913E+00
(PID.TID 0000.0001)  ploadbar=  1.01107911705070E+05
 cg2d: Sum(rhs),rhsMax =  -3.93803840311557E+01  1.66818391518597E+00
(PID.TID 0000.0001)  ploadbar=  1.01109905887462E+05
 cg2d: Sum(rhs),rhsMax =  -3.91712202712989E+01  1.67725344512128E+00
(PID.TID 0000.0001)  ploadbar=  1.01111900069854E+05
 cg2d: Sum(rhs),rhsMax =  -3.89421246398922E+01  1.68730097613649E+00
(PID.TID 0000.0001)  ploadbar=  1.01113894252246E+05
 cg2d: Sum(rhs),rhsMax =  -3.86977702852717E+01  1.69814591794381E+00
(PID.TID 0000.0001)  ploadbar=  1.01115888434637E+05
 cg2d: Sum(rhs),rhsMax =  -3.84252410569509E+01  1.71030888616901E+00
(PID.TID 0000.0001)  ploadbar=  1.01118159780462E+05
 cg2d: Sum(rhs),rhsMax =  -3.81215003262172E+01  1.72397899404607E+00
(PID.TID 0000.0001)  ploadbar=  1.01120431126288E+05
 cg2d: Sum(rhs),rhsMax =  -3.77905087739746E+01  1.73903923398633E+00
(PID.TID 0000.0001)  ploadbar=  1.01122702472113E+05
 cg2d: Sum(rhs),rhsMax =  -3.74320372417844E+01  1.75557010450728E+00
(PID.TID 0000.0001)  ploadbar=  1.01124973817938E+05
 cg2d: Sum(rhs),rhsMax =  -3.70474082469271E+01  1.77358104506442E+00
(PID.TID 0000.0001)  ploadbar=  1.01127245163763E+05
 cg2d: Sum(rhs),rhsMax =  -3.66387117710955E+01  1.79305324877217E+00
(PID.TID 0000.0001)  ploadbar=  1.01129516509588E+05
 cg2d: Sum(rhs),rhsMax =  -3.61926012604086E+01  1.81493868119251E+00
(PID.TID 0000.0001)  ploadbar=  1.01130659557137E+05
 cg2d: Sum(rhs),rhsMax =  -3.57238561915022E+01  1.83863323172166E+00
(PID.TID 0000.0001)  ploadbar=  1.01131802604686E+05
 cg2d: Sum(rhs),rhsMax =  -3.52409704620126E+01  1.86379838618904E+00
(PID.TID 0000.0001)  ploadbar=  1.01132945652235E+05
 cg2d: Sum(rhs),rhsMax =  -3.47643699172884E+01  1.88939709165815E+00
(PID.TID 0000.0001)  ploadbar=  1.01134088699784E+05
 cg2d: Sum(rhs),rhsMax =  -3.43208645276022E+01  1.91392860386435E+00
(PID.TID 0000.0001)  ploadbar=  1.01135231747333E+05
 cg2d: Sum(rhs),rhsMax =  -3.39320338915283E+01  1.93604341816534E+00
(PID.TID 0000.0001)  ploadbar=  1.01136374794883E+05
 cg2d: Sum(rhs),rhsMax =  -3.36483690773785E+01  1.95249733654976E+00
(PID.TID 0000.0001)  ploadbar=  1.01137932159011E+05
 cg2d: Sum(rhs),rhsMax =  -3.34843364729172E+01  1.96213937144364E+00
(PID.TID 0000.0001)  ploadbar=  1.01139489523139E+05
 cg2d: Sum(rhs),rhsMax =  -3.34541225968616E+01  1.96393251902218E+00
(PID.TID 0000.0001)  ploadbar=  1.01141046887267E+05
 cg2d: Sum(rhs),rhsMax =  -3.35658084719720E+01  1.95736128289085E+00
(PID.TID 0000.0001)  ploadbar=  1.01142604251395E+05
 cg2d: Sum(rhs),rhsMax =  -3.38132808023268E+01  1.94294108099937E+00
(PID.TID 0000.0001)  ploadbar=  1.01144161615524E+05
 cg2d: Sum(rhs),rhsMax =  -3.41883870358076E+01  1.92147657212699E+00
(PID.TID 0000.0001)  ploadbar=  1.01145718979652E+05
 cg2d: Sum(rhs),rhsMax =  -3.46715283144108E+01  1.89461482593865E+00
(PID.TID 0000.0001)  ploadbar=  1.01146384758125E+05
 cg2d: Sum(rhs),rhsMax =  -3.52575500013233E+01  1.86307096233833E+00
(PID.TID 0000.0001)  ploadbar=  1.01147050536597E+05
 cg2d: Sum(rhs),rhsMax =  -3.59447152305594E+01  1.82741494265888E+00
(PID.TID 0000.0001)  ploadbar=  1.01147716315070E+05
 cg2d: Sum(rhs),rhsMax =  -3.67348546791344E+01  1.78807771536404E+00
(PID.TID 0000.0001)  ploadbar=  1.01148382093543E+05
 cg2d: Sum(rhs),rhsMax =  -3.76294441147873E+01  1.74553632967842E+00
(PID.TID 0000.0001)  ploadbar=  1.01149047872016E+05
 cg2d: Sum(rhs),rhsMax =  -3.86191346075234E+01  1.70076859534982E+00
(PID.TID 0000.0001)  ploadbar=  1.01149713650489E+05
 cg2d: Sum(rhs),rhsMax =  -3.97054765357677E+01  1.65414987963298E+00
(PID.TID 0000.0001)  ploadbar=  1.01149938498112E+05
 cg2d: Sum(rhs),rhsMax =  -4.08749515833225E+01  1.60668538911908E+00
(PID.TID 0000.0001)  ploadbar=  1.01150163345735E+05
 cg2d: Sum(rhs),rhsMax =  -4.21073534882688E+01  1.55947000513577E+00
(PID.TID 0000.0001)  ploadbar=  1.01150388193358E+05
 cg2d: Sum(rhs),rhsMax =  -4.33979126728447E+01  1.51284910690181E+00
(PID.TID 0000.0001)  ploadbar=  1.01150613040981E+05
 cg2d: Sum(rhs),rhsMax =  -4.47327379485974E+01  1.46740138488831E+00
(PID.TID 0000.0001)  ploadbar=  1.01150837888604E+05
 cg2d: Sum(rhs),rhsMax =  -4.60928480781555E+01  1.42374031759906E+00
(PID.TID 0000.0001)  ploadbar=  1.01151062736228E+05
 cg2d: Sum(rhs),rhsMax =  -4.74968229316210E+01  1.38136181662609E+00
(PID.TID 0000.0001)  ploadbar=  1.01151058725650E+05
 cg2d: Sum(rhs),rhsMax =  -4.91329259706591E+01  1.33513059861781E+00
(PID.TID 0000.0001)  ploadbar=  1.01151054715073E+05
 cg2d: Sum(rhs),rhsMax =  -5.12275208585110E+01  1.28036008534350E+00
(PID.TID 0000.0001)  ploadbar=  1.01151050704496E+05
 cg2d: Sum(rhs),rhsMax =  -5.37618049974022E+01  1.21987220765830E+00
(PID.TID 0000.0001)  ploadbar=  1.01151046693919E+05
 cg2d: Sum(rhs),rhsMax =  -5.66987936287638E+01  1.15658503558289E+00
(PID.TID 0000.0001)  ploadbar=  1.01151042683342E+05
 cg2d: Sum(rhs),rhsMax =  -6.00097882062665E+01  1.09269934332454E+00
(PID.TID 0000.0001)  ploadbar=  1.01151038672765E+05
 cg2d: Sum(rhs),rhsMax =  -6.16628702590923E+01  1.06333810066472E+00
(PID.TID 0000.0001)  ploadbar=  1.01151425596515E+05
 cg2d: Sum(rhs),rhsMax =  -5.92379819784020E+01  1.10679372415269E+00
(PID.TID 0000.0001)  ploadbar=  1.01151812520265E+05
 cg2d: Sum(rhs),rhsMax =  -5.76146918835589E+01  1.13789904311269E+00
(PID.TID 0000.0001)  ploadbar=  1.01152199444016E+05
 cg2d: Sum(rhs),rhsMax =  -5.66862497816148E+01  1.15644878163276E+00
(PID.TID 0000.0001)  ploadbar=  1.01152586367766E+05
 cg2d: Sum(rhs),rhsMax =  -5.60411889278158E+01  1.16966166789386E+00
(PID.TID 0000.0001)  ploadbar=  1.01152973291516E+05
 cg2d: Sum(rhs),rhsMax =  -5.54762417892136E+01  1.18146125936493E+00
(PID.TID 0000.0001)  ploadbar=  1.01153360215266E+05
 cg2d: Sum(rhs),rhsMax =  -5.49219315548745E+01  1.19330929040129E+00
(PID.TID 0000.0001)  ploadbar=  1.01152903098197E+05
 cg2d: Sum(rhs),rhsMax =  -5.43906469133886E+01  1.20491251812527E+00
(PID.TID 0000.0001)  ploadbar=  1.01152445981128E+05
 cg2d: Sum(rhs),rhsMax =  -5.38778917326589E+01  1.21634668921470E+00
(PID.TID 0000.0001)  ploadbar=  1.01151988864059E+05
 cg2d: Sum(rhs),rhsMax =  -5.33849555946070E+01  1.22756130963874E+00
(PID.TID 0000.0001)  ploadbar=  1.01151531746990E+05
 cg2d: Sum(rhs),rhsMax =  -5.29085686036768E+01  1.23861129472217E+00
(PID.TID 0000.0001)  ploadbar=  1.01151074629921E+05
 cg2d: Sum(rhs),rhsMax =  -5.24647301831641E+01  1.24909676103636E+00
(PID.TID 0000.0001)  ploadbar=  1.01150617512851E+05
 cg2d: Sum(rhs),rhsMax =  -5.21214425653316E+01  1.25729054474290E+00
(PID.TID 0000.0001)  ploadbar=  1.01150405509316E+05
 cg2d: Sum(rhs),rhsMax =  -5.18286883625473E+01  1.26431563582042E+00
(PID.TID 0000.0001)  ploadbar=  1.01150193505780E+05
 cg2d: Sum(rhs),rhsMax =  -5.16309739999527E+01  1.26903586685228E+00
(PID.TID 0000.0001)  ploadbar=  1.01149981502245E+05
 cg2d: Sum(rhs),rhsMax =  -5.15955704049865E+01  1.26973379563720E+00
(PID.TID 0000.0001)  ploadbar=  1.01149769498709E+05
 cg2d: Sum(rhs),rhsMax =  -5.16566110280381E+01  1.26800731401502E+00
(PID.TID 0000.0001)  ploadbar=  1.01149557495173E+05
 cg2d: Sum(rhs),rhsMax =  -5.17458985223097E+01  1.26554048735871E+00
(PID.TID 0000.0001)  ploadbar=  1.01149345491638E+05
 cg2d: Sum(rhs),rhsMax =  -5.16258122670608E+01  1.26831344402898E+00
(PID.TID 0000.0001)  ploadbar=  1.01148151061403E+05
 cg2d: Sum(rhs),rhsMax =  -5.12302415839375E+01  1.27804049832997E+00
(PID.TID 0000.0001)  ploadbar=  1.01146956631168E+05
 cg2d: Sum(rhs),rhsMax =  -5.05504837089519E+01  1.29526416498912E+00
(PID.TID 0000.0001)  ploadbar=  1.01145762200933E+05
 cg2d: Sum(rhs),rhsMax =  -4.96408213462229E+01  1.31914514041877E+00
(PID.TID 0000.0001)  ploadbar=  1.01144567770698E+05
 cg2d: Sum(rhs),rhsMax =  -4.83416084362419E+01  1.35485651371964E+00
(PID.TID 0000.0001)  ploadbar=  1.01143373340463E+05
 cg2d: Sum(rhs),rhsMax =  -4.70604557821953E+01  1.39211086938129E+00
(PID.TID 0000.0001)  ploadbar=  1.01142178910229E+05
 cg2d: Sum(rhs),rhsMax =  -4.56997605712114E+01  1.43389080525234E+00
(PID.TID 0000.0001)  ploadbar=  1.01141401859692E+05
 cg2d: Sum(rhs),rhsMax =  -4.43231270505582E+01  1.47870984701152E+00
(PID.TID 0000.0001)  ploadbar=  1.01140624809155E+05
 cg2d: Sum(rhs),rhsMax =  -4.29625127630160E+01  1.52577237630037E+00
(PID.TID 0000.0001)  ploadbar=  1.01139847758618E+05
 cg2d: Sum(rhs),rhsMax =  -4.16216428607708E+01  1.57509755806262E+00
(PID.TID 0000.0001)  ploadbar=  1.01139070708081E+05
 cg2d: Sum(rhs),rhsMax =  -4.03212228222519E+01  1.62599916888423E+00
(PID.TID 0000.0001)  ploadbar=  1.01138293657544E+05
 cg2d: Sum(rhs),rhsMax =  -3.90725080679132E+01  1.67798944041121E+00
(PID.TID 0000.0001)  ploadbar=  1.01137516607007E+05
 cg2d: Sum(rhs),rhsMax =  -3.78405855528272E+01  1.73264926684658E+00
(PID.TID 0000.0001)  ploadbar=  1.01136493715836E+05
 cg2d: Sum(rhs),rhsMax =  -3.66162652961245E+01  1.79061188349894E+00
(PID.TID 0000.0001)  ploadbar=  1.01135470824665E+05
 cg2d: Sum(rhs),rhsMax =  -3.54748862117455E+01  1.84824332740494E+00
(PID.TID 0000.0001)  ploadbar=  1.01134447933494E+05
 cg2d: Sum(rhs),rhsMax =  -3.44137907973604E+01  1.90523649273534E+00
(PID.TID 0000.0001)  ploadbar=  1.01133425042324E+05
 cg2d: Sum(rhs),rhsMax =  -3.34122766898352E+01  1.96233016061251E+00
(PID.TID 0000.0001)  ploadbar=  1.01132402151153E+05
 cg2d: Sum(rhs),rhsMax =  -3.24628098727554E+01  2.01968058883882E+00
(PID.TID 0000.0001)  ploadbar=  1.01131379259982E+05
 cg2d: Sum(rhs),rhsMax =  -3.15673439095021E+01  2.07683225824613E+00
(PID.TID 0000.0001)  ploadbar=  1.01131016250265E+05
 cg2d: Sum(rhs),rhsMax =  -3.07297280178031E+01  2.13319339887020E+00
(PID.TID 0000.0001)  ploadbar=  1.01130653240549E+05
 cg2d: Sum(rhs),rhsMax =  -2.99560778283117E+01  2.18791882858969E+00
(PID.TID 0000.0001)  ploadbar=  1.01130290230832E+05
 cg2d: Sum(rhs),rhsMax =  -2.92473236092335E+01  2.24044615507144E+00
(PID.TID 0000.0001)  ploadbar=  1.01129927221115E+05
 cg2d: Sum(rhs),rhsMax =  -2.86016785760595E+01  2.29039667263434E+00
(PID.TID 0000.0001)  ploadbar=  1.01129564211398E+05
 cg2d: Sum(rhs),rhsMax =  -2.80157582974715E+01  2.33753599813526E+00
(PID.TID 0000.0001)  ploadbar=  1.01129201201681E+05
 cg2d: Sum(rhs),rhsMax =  -2.74834497296888E+01  2.38219368114414E+00
(PID.TID 0000.0001)  ploadbar=  1.01129176840250E+05
 cg2d: Sum(rhs),rhsMax =  -2.70002718792722E+01  2.42435587372820E+00
(PID.TID 0000.0001)  ploadbar=  1.01129152478819E+05
 cg2d: Sum(rhs),rhsMax =  -2.65651321590904E+01  2.46374861982724E+00
(PID.TID 0000.0001)  ploadbar=  1.01129128117388E+05
 cg2d: Sum(rhs),rhsMax =  -2.61757410145374E+01  2.50022917483307E+00
(PID.TID 0000.0001)  ploadbar=  1.01129103755956E+05
 cg2d: Sum(rhs),rhsMax =  -2.58425477201216E+01  2.53244150280970E+00
(PID.TID 0000.0001)  ploadbar=  1.01129079394525E+05
 cg2d: Sum(rhs),rhsMax =  -2.55609996286779E+01  2.56045731782896E+00
(PID.TID 0000.0001)  ploadbar=  1.01129055033094E+05
 cg2d: Sum(rhs),rhsMax =  -2.53339062110341E+01  2.58357612062904E+00
(PID.TID 0000.0001)  ploadbar=  1.01128435533051E+05
 cg2d: Sum(rhs),rhsMax =  -2.51485914949794E+01  2.60280688077204E+00
(PID.TID 0000.0001)  ploadbar=  1.01127816033008E+05
 cg2d: Sum(rhs),rhsMax =  -2.49909547362743E+01  2.61942846843685E+00
(PID.TID 0000.0001)  ploadbar=  1.01127196532965E+05
 cg2d: Sum(rhs),rhsMax =  -2.48425210158737E+01  2.63528347204541E+00
(PID.TID 0000.0001)  ploadbar=  1.01126577032922E+05
 cg2d: Sum(rhs),rhsMax =  -2.47085443354339E+01  2.64976871932016E+00
(PID.TID 0000.0001)  ploadbar=  1.01125957532879E+05
 cg2d: Sum(rhs),rhsMax =  -2.45890460512107E+01  2.66282813034876E+00
(PID.TID 0000.0001)  ploadbar=  1.01125338032837E+05
 cg2d: Sum(rhs),rhsMax =  -2.44881783684628E+01  2.67392850322800E+00
(PID.TID 0000.0001)  ploadbar=  1.01123930954953E+05
 cg2d: Sum(rhs),rhsMax =  -2.44046920579312E+01  2.68314642600607E+00
(PID.TID 0000.0001)  ploadbar=  1.01122523877070E+05
 cg2d: Sum(rhs),rhsMax =  -2.43360945278630E+01  2.69071073864906E+00
(PID.TID 0000.0001)  ploadbar=  1.01121116799187E+05
 cg2d: Sum(rhs),rhsMax =  -2.42790597618948E+01  2.69695636977681E+00
(PID.TID 0000.0001)  ploadbar=  1.01119709721303E+05
 cg2d: Sum(rhs),rhsMax =  -2.42309722282387E+01  2.70215076128895E+00
(PID.TID 0000.0001)  ploadbar=  1.01118302643420E+05
 cg2d: Sum(rhs),rhsMax =  -2.41894009599148E+01  2.70654277149204E+00
(PID.TID 0000.0001)  ploadbar=  1.01116895565537E+05
 cg2d: Sum(rhs),rhsMax =  -2.41447565591324E+01  2.71124481314830E+00
(PID.TID 0000.0001)  ploadbar=  1.01115522792191E+05
 cg2d: Sum(rhs),rhsMax =  -2.41024728931335E+01  2.71564375520221E+00
(PID.TID 0000.0001)  ploadbar=  1.01114150018846E+05
 cg2d: Sum(rhs),rhsMax =  -2.40696701208338E+01  2.71892573090704E+00
(PID.TID 0000.0001)  ploadbar=  1.01112777245501E+05
 cg2d: Sum(rhs),rhsMax =  -2.40511302909263E+01  2.72054088078089E+00
(PID.TID 0000.0001)  ploadbar=  1.01111404472156E+05
 cg2d: Sum(rhs),rhsMax =  -2.40554153623411E+01  2.71950993617509E+00
(PID.TID 0000.0001)  ploadbar=  1.01110031698811E+05
 cg2d: Sum(rhs),rhsMax =  -2.40754874854980E+01  2.71662714246119E+00
(PID.TID 0000.0001)  ploadbar=  1.01108658925465E+05
 cg2d: Sum(rhs),rhsMax =  -2.41144482319346E+01  2.71188241436125E+00
(PID.TID 0000.0001)  ploadbar=  1.01107490639403E+05
 cg2d: Sum(rhs),rhsMax =  -2.41687162153245E+01  2.70568774994959E+00
(PID.TID 0000.0001)  ploadbar=  1.01106322353341E+05
 cg2d: Sum(rhs),rhsMax =  -2.42371191562431E+01  2.69818649147960E+00
(PID.TID 0000.0001)  ploadbar=  1.01105154067278E+05
 cg2d: Sum(rhs),rhsMax =  -2.43179436182511E+01  2.68957718603975E+00
(PID.TID 0000.0001)  ploadbar=  1.01103985781216E+05
 cg2d: Sum(rhs),rhsMax =  -2.44094575162345E+01  2.68006622073464E+00
(PID.TID 0000.0001)  ploadbar=  1.01102817495154E+05
 cg2d: Sum(rhs),rhsMax =  -2.45100771990124E+01  2.66984321664114E+00
(PID.TID 0000.0001)  ploadbar=  1.01101649209091E+05
 cg2d: Sum(rhs),rhsMax =  -2.46146990505543E+01  2.65927117619047E+00
(PID.TID 0000.0001)  ploadbar=  1.01100497555610E+05
 cg2d: Sum(rhs),rhsMax =  -2.47224579532344E+01  2.64843900633455E+00
(PID.TID 0000.0001)  ploadbar=  1.01099345902128E+05
 cg2d: Sum(rhs),rhsMax =  -2.48330906428182E+01  2.63737250981529E+00
(PID.TID 0000.0001)  ploadbar=  1.01098194248647E+05
 cg2d: Sum(rhs),rhsMax =  -2.49471989528780E+01  2.62601484484987E+00
(PID.TID 0000.0001)  ploadbar=  1.01097042595166E+05
 cg2d: Sum(rhs),rhsMax =  -2.50650047285017E+01  2.61434856747005E+00
(PID.TID 0000.0001)  ploadbar=  1.01095890941684E+05
 cg2d: Sum(rhs),rhsMax =  -2.51866409331417E+01  2.60236554575093E+00
(PID.TID 0000.0001)  ploadbar=  1.01094739288203E+05
 cg2d: Sum(rhs),rhsMax =  -2.53167344386535E+01  2.58966375034645E+00
(PID.TID 0000.0001)  ploadbar=  1.01093022608513E+05
 cg2d: Sum(rhs),rhsMax =  -2.54503903992844E+01  2.57674897191198E+00
(PID.TID 0000.0001)  ploadbar=  1.01091305928823E+05
 cg2d: Sum(rhs),rhsMax =  -2.55866399071018E+01  2.56371626624149E+00
(PID.TID 0000.0001)  ploadbar=  1.01089589249133E+05
 cg2d: Sum(rhs),rhsMax =  -2.57235588316449E+01  2.55075825750680E+00
(PID.TID 0000.0001)  ploadbar=  1.01087872569443E+05
 cg2d: Sum(rhs),rhsMax =  -2.58602494225098E+01  2.53795850095497E+00
(PID.TID 0000.0001)  ploadbar=  1.01086155889754E+05
 cg2d: Sum(rhs),rhsMax =  -2.59941531764987E+01  2.52555135926090E+00
(PID.TID 0000.0001)  ploadbar=  1.01084439210064E+05
 cg2d: Sum(rhs),rhsMax =  -2.61176544339587E+01  2.51419630840290E+00
(PID.TID 0000.0001)  ploadbar=  1.01084061144732E+05
 cg2d: Sum(rhs),rhsMax =  -2.62326982948133E+01  2.50367270972523E+00
(PID.TID 0000.0001)  ploadbar=  1.01083683079401E+05
 cg2d: Sum(rhs),rhsMax =  -2.63392875868166E+01  2.49395460715600E+00
(PID.TID 0000.0001)  ploadbar=  1.01083305014070E+05
 cg2d: Sum(rhs),rhsMax =  -2.64428520465565E+01  2.48451126455176E+00
(PID.TID 0000.0001)  ploadbar=  1.01082926948738E+05
 cg2d: Sum(rhs),rhsMax =  -2.65423054826135E+01  2.47543092686987E+00
(PID.TID 0000.0001)  ploadbar=  1.01082548883407E+05
 cg2d: Sum(rhs),rhsMax =  -2.66382782909103E+01  2.46664369546483E+00
(PID.TID 0000.0001)  ploadbar=  1.01082170818075E+05
 cg2d: Sum(rhs),rhsMax =  -2.67411838536035E+01  2.45744090031951E+00
(PID.TID 0000.0001)  ploadbar=  1.01081397867251E+05
 cg2d: Sum(rhs),rhsMax =  -2.68528531887321E+01  2.44766258055932E+00
(PID.TID 0000.0001)  ploadbar=  1.01080624916427E+05
 cg2d: Sum(rhs),rhsMax =  -2.69713474275431E+01  2.43749477864736E+00
(PID.TID 0000.0001)  ploadbar=  1.01079851965602E+05
 cg2d: Sum(rhs),rhsMax =  -2.70957501902922E+01  2.42702355212395E+00
(PID.TID 0000.0001)  ploadbar=  1.01079079014778E+05
 cg2d: Sum(rhs),rhsMax =  -2.72256943486017E+01  2.41628245933541E+00
(PID.TID 0000.0001)  ploadbar=  1.01078306063954E+05
 cg2d: Sum(rhs),rhsMax =  -2.73610519718052E+01  2.40528206514786E+00
(PID.TID 0000.0001)  ploadbar=  1.01077533113129E+05
 cg2d: Sum(rhs),rhsMax =  -2.74966863349349E+01  2.39428932350943E+00
(PID.TID 0000.0001)  ploadbar=  1.01077195217701E+05
 cg2d: Sum(rhs),rhsMax =  -2.76316384381961E+01  2.38337812591856E+00
(PID.TID 0000.0001)  ploadbar=  1.01076857322273E+05
 cg2d: Sum(rhs),rhsMax =  -2.77670142121775E+01  2.37244893441306E+00
(PID.TID 0000.0001)  ploadbar=  1.01076519426845E+05
 cg2d: Sum(rhs),rhsMax =  -2.79007616643023E+01  2.36167180343837E+00
(PID.TID 0000.0001)  ploadbar=  1.01076181531416E+05
 cg2d: Sum(rhs),rhsMax =  -2.80318124342752E+01  2.35112915719429E+00
(PID.TID 0000.0001)  ploadbar=  1.01075843635988E+05
 cg2d: Sum(rhs),rhsMax =  -2.81599136299964E+01  2.34083306732169E+00
(PID.TID 0000.0001)  ploadbar=  1.01075505740560E+05
 cg2d: Sum(rhs),rhsMax =  -2.82859474272174E+01  2.33081741543565E+00
(PID.TID 0000.0001)  ploadbar=  1.01074733860763E+05
 cg2d: Sum(rhs),rhsMax =  -2.84088794635599E+01  2.32114544714339E+00
(PID.TID 0000.0001)  ploadbar=  1.01073961980966E+05
 cg2d: Sum(rhs),rhsMax =  -2.85305266657521E+01  2.31165457589524E+00
(PID.TID 0000.0001)  ploadbar=  1.01073190101168E+05
 cg2d: Sum(rhs),rhsMax =  -2.86518386050583E+01  2.30226307858960E+00
(PID.TID 0000.0001)  ploadbar=  1.01072418221371E+05
 cg2d: Sum(rhs),rhsMax =  -2.87733497379659E+01  2.29292275538650E+00
(PID.TID 0000.0001)  ploadbar=  1.01071646341574E+05
 cg2d: Sum(rhs),rhsMax =  -2.88962607722486E+01  2.28353257916417E+00
(PID.TID 0000.0001)  ploadbar=  1.01070874461777E+05
 cg2d: Sum(rhs),rhsMax =  -2.90195473123118E+01  2.27414713380670E+00
(PID.TID 0000.0001)  ploadbar=  1.01071143684117E+05
 cg2d: Sum(rhs),rhsMax =  -2.91424506240039E+01  2.26481635169477E+00
(PID.TID 0000.0001)  ploadbar=  1.01071412906457E+05
 cg2d: Sum(rhs),rhsMax =  -2.92657149615209E+01  2.25547328141373E+00
(PID.TID 0000.0001)  ploadbar=  1.01071682128797E+05
 cg2d: Sum(rhs),rhsMax =  -2.93895193365789E+01  2.24609977301494E+00
(PID.TID 0000.0001)  ploadbar=  1.01071951351136E+05
 cg2d: Sum(rhs),rhsMax =  -2.95135010396973E+01  2.23672213125027E+00
(PID.TID 0000.0001)  ploadbar=  1.01072220573476E+05
 cg2d: Sum(rhs),rhsMax =  -2.96385947575365E+01  2.22726622463428E+00
(PID.TID 0000.0001)  ploadbar=  1.01072489795816E+05
 cg2d: Sum(rhs),rhsMax =  -2.97703629353923E+01  2.21748548251360E+00
(PID.TID 0000.0001)  ploadbar=  1.01071474444831E+05
 cg2d: Sum(rhs),rhsMax =  -2.99070020887216E+01  2.20751722837499E+00
(PID.TID 0000.0001)  ploadbar=  1.01070459093846E+05
 cg2d: Sum(rhs),rhsMax =  -3.00480634588172E+01  2.19739169173258E+00
(PID.TID 0000.0001)  ploadbar=  1.01069443742860E+05
 cg2d: Sum(rhs),rhsMax =  -3.01930418116346E+01  2.18714792306259E+00
(PID.TID 0000.0001)  ploadbar=  1.01068428391875E+05
 cg2d: Sum(rhs),rhsMax =  -3.03418216258078E+01  2.17679650113020E+00
(PID.TID 0000.0001)  ploadbar=  1.01067413040889E+05
 cg2d: Sum(rhs),rhsMax =  -3.04940838688645E+01  2.16636390318900E+00
(PID.TID 0000.0001)  ploadbar=  1.01066397689904E+05
 cg2d: Sum(rhs),rhsMax =  -3.06479734697919E+01  2.15588303179658E+00
(PID.TID 0000.0001)  ploadbar=  1.01066324645351E+05
 cg2d: Sum(rhs),rhsMax =  -3.08024062926466E+01  2.14541979547357E+00
(PID.TID 0000.0001)  ploadbar=  1.01066251600798E+05
 cg2d: Sum(rhs),rhsMax =  -3.09551141744576E+01  2.13512207361408E+00
(PID.TID 0000.0001)  ploadbar=  1.01066178556244E+05
 cg2d: Sum(rhs),rhsMax =  -3.11055925921178E+01  2.12501091504164E+00
(PID.TID 0000.0001)  ploadbar=  1.01066105511691E+05
 cg2d: Sum(rhs),rhsMax =  -3.12538483769269E+01  2.11507582900866E+00
(PID.TID 0000.0001)  ploadbar=  1.01066032467138E+05
 cg2d: Sum(rhs),rhsMax =  -3.13999035704454E+01  2.10530680091744E+00
(PID.TID 0000.0001)  ploadbar=  1.01065959422585E+05
 cg2d: Sum(rhs),rhsMax =  -3.15448977321690E+01  2.09575260966420E+00
(PID.TID 0000.0001)  ploadbar=  1.01064580700647E+05
 cg2d: Sum(rhs),rhsMax =  -3.16883515650888E+01  2.08643344987162E+00
(PID.TID 0000.0001)  ploadbar=  1.01063201978709E+05
 cg2d: Sum(rhs),rhsMax =  -3.18273439989575E+01  2.07752674577016E+00
(PID.TID 0000.0001)  ploadbar=  1.01061823256771E+05
 cg2d: Sum(rhs),rhsMax =  -3.19606143559333E+01  2.06909673353909E+00
(PID.TID 0000.0001)  ploadbar=  1.01060444534833E+05
 cg2d: Sum(rhs),rhsMax =  -3.20868649030833E+01  2.06121177177758E+00
(PID.TID 0000.0001)  ploadbar=  1.01059065812896E+05
 cg2d: Sum(rhs),rhsMax =  -3.22051126784668E+01  2.05391549583734E+00
(PID.TID 0000.0001)  ploadbar=  1.01057687090958E+05
 cg2d: Sum(rhs),rhsMax =  -3.23162997569676E+01  2.04704830663858E+00
(PID.TID 0000.0001)  ploadbar=  1.01057266102706E+05
 cg2d: Sum(rhs),rhsMax =  -3.24240446448326E+01  2.04036775737341E+00
(PID.TID 0000.0001)  ploadbar=  1.01056845114454E+05
 cg2d: Sum(rhs),rhsMax =  -3.25276316080169E+01  2.03390438349695E+00
(PID.TID 0000.0001)  ploadbar=  1.01056424126202E+05
 cg2d: Sum(rhs),rhsMax =  -3.26264876608460E+01  2.02767797649257E+00
(PID.TID 0000.0001)  ploadbar=  1.01056003137950E+05
 cg2d: Sum(rhs),rhsMax =  -3.27198984915874E+01  2.02172145046323E+00
(PID.TID 0000.0001)  ploadbar=  1.01055582149698E+05
 cg2d: Sum(rhs),rhsMax =  -3.28079044884156E+01  2.01601989209019E+00
(PID.TID 0000.0001)  ploadbar=  1.01055161161446E+05
 cg2d: Sum(rhs),rhsMax =  -3.28927820410630E+01  2.01064110800859E+00
(PID.TID 0000.0001)  ploadbar=  1.01055209394536E+05
 cg2d: Sum(rhs),rhsMax =  -3.29768827459391E+01  2.00543466861341E+00
(PID.TID 0000.0001)  ploadbar=  1.01055257627626E+05
 cg2d: Sum(rhs),rhsMax =  -3.30614667594080E+01  2.00031667483007E+00
(PID.TID 0000.0001)  ploadbar=  1.01055305860717E+05
 cg2d: Sum(rhs),rhsMax =  -3.31460832562839E+01  1.99530504111695E+00
(PID.TID 0000.0001)  ploadbar=  1.01055354093807E+05
 cg2d: Sum(rhs),rhsMax =  -3.32304355344535E+01  1.99040496031319E+00
(PID.TID 0000.0001)  ploadbar=  1.01055402326897E+05
 cg2d: Sum(rhs),rhsMax =  -3.33144332939157E+01  1.98562014696248E+00
(PID.TID 0000.0001)  ploadbar=  1.01055450559987E+05
 cg2d: Sum(rhs),rhsMax =  -3.33946858116375E+01  1.98102038027583E+00
(PID.TID 0000.0001)  ploadbar=  1.01056212725166E+05
 cg2d: Sum(rhs),rhsMax =  -3.34712466066251E+01  1.97658788880213E+00
(PID.TID 0000.0001)  ploadbar=  1.01056974890345E+05
 cg2d: Sum(rhs),rhsMax =  -3.35469060846358E+01  1.97215240784076E+00
(PID.TID 0000.0001)  ploadbar=  1.01057737055523E+05
 cg2d: Sum(rhs),rhsMax =  -3.36220768305841E+01  1.96768522031780E+00
(PID.TID 0000.0001)  ploadbar=  1.01058499220702E+05
 cg2d: Sum(rhs),rhsMax =  -3.36962337852854E+01  1.96321269196615E+00
(PID.TID 0000.0001)  ploadbar=  1.01059261385881E+05
 cg2d: Sum(rhs),rhsMax =  -3.37691688305139E+01  1.95874540169298E+00
(PID.TID 0000.0001)  ploadbar=  1.01060023551060E+05
 cg2d: Sum(rhs),rhsMax =  -3.38418127568394E+01  1.95436880086344E+00
(PID.TID 0000.0001)  ploadbar=  1.01060578095882E+05
 cg2d: Sum(rhs),rhsMax =  -3.39112988116750E+01  1.95023060619151E+00
(PID.TID 0000.0001)  ploadbar=  1.01061132640703E+05
 cg2d: Sum(rhs),rhsMax =  -3.39798567819930E+01  1.94619065692677E+00
(PID.TID 0000.0001)  ploadbar=  1.01061687185524E+05
 cg2d: Sum(rhs),rhsMax =  -3.40486167347011E+01  1.94217673953689E+00
(PID.TID 0000.0001)  ploadbar=  1.01062241730345E+05
 cg2d: Sum(rhs),rhsMax =  -3.41189093647878E+01  1.93810647381343E+00
(PID.TID 0000.0001)  ploadbar=  1.01062796275166E+05
 cg2d: Sum(rhs),rhsMax =  -3.41925225725838E+01  1.93387291602465E+00
(PID.TID 0000.0001)  ploadbar=  1.01063350819987E+05
 cg2d: Sum(rhs),rhsMax =  -3.42711016816219E+01  1.92932702607442E+00
(PID.TID 0000.0001)  ploadbar=  1.01064709760665E+05
 cg2d: Sum(rhs),rhsMax =  -3.43529117557948E+01  1.92456353704129E+00
(PID.TID 0000.0001)  ploadbar=  1.01066068701343E+05
 cg2d: Sum(rhs),rhsMax =  -3.44356720599241E+01  1.91970929238472E+00
(PID.TID 0000.0001)  ploadbar=  1.01067427642020E+05
 cg2d: Sum(rhs),rhsMax =  -3.45183659011537E+01  1.91481718544135E+00
(PID.TID 0000.0001)  ploadbar=  1.01068786582698E+05
 cg2d: Sum(rhs),rhsMax =  -3.46006900162324E+01  1.90989749448739E+00
(PID.TID 0000.0001)  ploadbar=  1.01070145523376E+05
 cg2d: Sum(rhs),rhsMax =  -3.46821379799766E+01  1.90497555727185E+00
(PID.TID 0000.0001)  ploadbar=  1.01071504464053E+05
 cg2d: Sum(rhs),rhsMax =  -3.47677237927462E+01  1.89994183731343E+00
(PID.TID 0000.0001)  ploadbar=  1.01072855019812E+05
 cg2d: Sum(rhs),rhsMax =  -3.48600202787926E+01  1.89465530700756E+00
(PID.TID 0000.0001)  ploadbar=  1.01074205575570E+05
 cg2d: Sum(rhs),rhsMax =  -3.49593759833327E+01  1.88909725336530E+00
(PID.TID 0000.0001)  ploadbar=  1.01075556131328E+05
 cg2d: Sum(rhs),rhsMax =  -3.50655868510868E+01  1.88327834163114E+00
(PID.TID 0000.0001)  ploadbar=  1.01076906687086E+05
 cg2d: Sum(rhs),rhsMax =  -3.51778762975100E+01  1.87723898278692E+00
(PID.TID 0000.0001)  ploadbar=  1.01078257242845E+05
 cg2d: Sum(rhs),rhsMax =  -3.52953823217505E+01  1.87102210450791E+00
(PID.TID 0000.0001)  ploadbar=  1.01079607798603E+05
 cg2d: Sum(rhs),rhsMax =  -3.54118893267542E+01  1.86487424815493E+00
(PID.TID 0000.0001)  ploadbar=  1.01081336288599E+05
 cg2d: Sum(rhs),rhsMax =  -3.55242309308466E+01  1.85895327742169E+00
(PID.TID 0000.0001)  ploadbar=  1.01083064778595E+05
 cg2d: Sum(rhs),rhsMax =  -3.56319552105042E+01  1.85327262732774E+00
(PID.TID 0000.0001)  ploadbar=  1.01084793268592E+05
 cg2d: Sum(rhs),rhsMax =  -3.57361833984750E+01  1.84776871669951E+00
(PID.TID 0000.0001)  ploadbar=  1.01086521758588E+05
 cg2d: Sum(rhs),rhsMax =  -3.58385044705671E+01  1.84236178275258E+00
(PID.TID 0000.0001)  ploadbar=  1.01088250248584E+05
 cg2d: Sum(rhs),rhsMax =  -3.59400909987811E+01  1.83699585958404E+00
(PID.TID 0000.0001)  ploadbar=  1.01089978738580E+05
 cg2d: Sum(rhs),rhsMax =  -3.60462729420089E+01  1.83146600224394E+00
(PID.TID 0000.0001)  ploadbar=  1.01089476385510E+05
 cg2d: Sum(rhs),rhsMax =  -3.61543080089191E+01  1.82590113544517E+00
(PID.TID 0000.0001)  ploadbar=  1.01088974032440E+05
 cg2d: Sum(rhs),rhsMax =  -3.62635280454193E+01  1.82033232799005E+00
(PID.TID 0000.0001)  ploadbar=  1.01088471679369E+05
 cg2d: Sum(rhs),rhsMax =  -3.63732025231611E+01  1.81479359170765E+00
(PID.TID 0000.0001)  ploadbar=  1.01087969326299E+05
 cg2d: Sum(rhs),rhsMax =  -3.64819293518935E+01  1.80935111022995E+00
(PID.TID 0000.0001)  ploadbar=  1.01087466973229E+05
 cg2d: Sum(rhs),rhsMax =  -3.65880773849604E+01  1.80407827565506E+00
(PID.TID 0000.0001)  ploadbar=  1.01086964620158E+05
 cg2d: Sum(rhs),rhsMax =  -3.66931202856587E+01  1.79883420152848E+00
(PID.TID 0000.0001)  ploadbar=  1.01087797054935E+05
 cg2d: Sum(rhs),rhsMax =  -3.67933048763621E+01  1.79380143729102E+00
(PID.TID 0000.0001)  ploadbar=  1.01088629489712E+05
 cg2d: Sum(rhs),rhsMax =  -3.68865840873464E+01  1.78907449877118E+00
(PID.TID 0000.0001)  ploadbar=  1.01089461924488E+05
 cg2d: Sum(rhs),rhsMax =  -3.69725574727193E+01  1.78466046877727E+00
(PID.TID 0000.0001)  ploadbar=  1.01090294359265E+05
 cg2d: Sum(rhs),rhsMax =  -3.70514386825445E+01  1.78053618289820E+00
(PID.TID 0000.0001)  ploadbar=  1.01091126794042E+05
 cg2d: Sum(rhs),rhsMax =  -3.71231841090900E+01  1.77669472130373E+00
(PID.TID 0000.0001)  ploadbar=  1.01091959228818E+05
 cg2d: Sum(rhs),rhsMax =  -3.71879976958673E+01  1.77331230210082E+00
(PID.TID 0000.0001)  ploadbar=  1.01091890843754E+05
 cg2d: Sum(rhs),rhsMax =  -3.72524338712779E+01  1.77006970678811E+00
(PID.TID 0000.0001)  ploadbar=  1.01091822458689E+05
 cg2d: Sum(rhs),rhsMax =  -3.73164721893265E+01  1.76696166709075E+00
(PID.TID 0000.0001)  ploadbar=  1.01091754073624E+05
 cg2d: Sum(rhs),rhsMax =  -3.73802456999561E+01  1.76397240480482E+00
(PID.TID 0000.0001)  ploadbar=  1.01091685688559E+05
 cg2d: Sum(rhs),rhsMax =  -3.74444508207291E+01  1.76106079180754E+00
(PID.TID 0000.0001)  ploadbar=  1.01091617303495E+05
 cg2d: Sum(rhs),rhsMax =  -3.75092094392954E+01  1.75821140562434E+00
(PID.TID 0000.0001)  ploadbar=  1.01091548918430E+05
 cg2d: Sum(rhs),rhsMax =  -3.75705812251840E+01  1.75553283751425E+00
(PID.TID 0000.0001)  ploadbar=  1.01091938409811E+05
 cg2d: Sum(rhs),rhsMax =  -3.76305589859511E+01  1.75292283944010E+00
(PID.TID 0000.0001)  ploadbar=  1.01092327901192E+05
 cg2d: Sum(rhs),rhsMax =  -3.76895472749966E+01  1.75035469199394E+00
(PID.TID 0000.0001)  ploadbar=  1.01092717392573E+05
 cg2d: Sum(rhs),rhsMax =  -3.77469242917388E+01  1.74785310682552E+00
(PID.TID 0000.0001)  ploadbar=  1.01093106883955E+05
 cg2d: Sum(rhs),rhsMax =  -3.78024570136702E+01  1.74542757880100E+00
(PID.TID 0000.0001)  ploadbar=  1.01093496375336E+05
 cg2d: Sum(rhs),rhsMax =  -3.78564405000574E+01  1.74306411761534E+00
(PID.TID 0000.0001)  ploadbar=  1.01093885866717E+05
 cg2d: Sum(rhs),rhsMax =  -3.79095405205923E+01  1.74078823272226E+00
(PID.TID 0000.0001)  ploadbar=  1.01094386738022E+05
 cg2d: Sum(rhs),rhsMax =  -3.79612464875582E+01  1.73861158944888E+00
(PID.TID 0000.0001)  ploadbar=  1.01094887609327E+05
 cg2d: Sum(rhs),rhsMax =  -3.80119909787479E+01  1.73650888588766E+00
(PID.TID 0000.0001)  ploadbar=  1.01095388480632E+05
 cg2d: Sum(rhs),rhsMax =  -3.80621867579380E+01  1.73445268746233E+00
(PID.TID 0000.0001)  ploadbar=  1.01095889351937E+05
 cg2d: Sum(rhs),rhsMax =  -3.81117169303169E+01  1.73244112446874E+00
(PID.TID 0000.0001)  ploadbar=  1.01096390223242E+05
 cg2d: Sum(rhs),rhsMax =  -3.81605891837972E+01  1.73046824308893E+00
(PID.TID 0000.0001)  ploadbar=  1.01096891094547E+05
 cg2d: Sum(rhs),rhsMax =  -3.82097361402595E+01  1.72844732773902E+00
(PID.TID 0000.0001)  ploadbar=  1.01097140132972E+05
 cg2d: Sum(rhs),rhsMax =  -3.82570798274734E+01  1.72646983425473E+00
(PID.TID 0000.0001)  ploadbar=  1.01097389171397E+05
 cg2d: Sum(rhs),rhsMax =  -3.83032535252824E+01  1.72450333003875E+00
(PID.TID 0000.0001)  ploadbar=  1.01097638209822E+05
 cg2d: Sum(rhs),rhsMax =  -3.83477492363558E+01  1.72256357431911E+00
(PID.TID 0000.0001)  ploadbar=  1.01097887248247E+05
 cg2d: Sum(rhs),rhsMax =  -3.83904239599682E+01  1.72064679044286E+00
(PID.TID 0000.0001)  ploadbar=  1.01098136286672E+05
 cg2d: Sum(rhs),rhsMax =  -3.84315459407293E+01  1.71873578460193E+00
(PID.TID 0000.0001)  ploadbar=  1.01098385325097E+05
 cg2d: Sum(rhs),rhsMax =  -3.84759499877697E+01  1.71681744669830E+00
(PID.TID 0000.0001)  ploadbar=  1.01098165844847E+05
 cg2d: Sum(rhs),rhsMax =  -3.85243418183020E+01  1.71485184287169E+00
(PID.TID 0000.0001)  ploadbar=  1.01097946364596E+05
 cg2d: Sum(rhs),rhsMax =  -3.85765476026123E+01  1.71283721324227E+00
(PID.TID 0000.0001)  ploadbar=  1.01097726884346E+05
 cg2d: Sum(rhs),rhsMax =  -3.86323395626581E+01  1.71077748047888E+00
(PID.TID 0000.0001)  ploadbar=  1.01097507404096E+05
 cg2d: Sum(rhs),rhsMax =  -3.86919786834187E+01  1.70865973025063E+00
(PID.TID 0000.0001)  ploadbar=  1.01097287923845E+05
 cg2d: Sum(rhs),rhsMax =  -3.87560415832495E+01  1.70645281459076E+00
(PID.TID 0000.0001)  ploadbar=  1.01097068443595E+05
 cg2d: Sum(rhs),rhsMax =  -3.88219019567270E+01  1.70416675618266E+00
(PID.TID 0000.0001)  ploadbar=  1.01096065444107E+05
 cg2d: Sum(rhs),rhsMax =  -3.88893558336666E+01  1.70180545105363E+00
(PID.TID 0000.0001)  ploadbar=  1.01095062444618E+05
 cg2d: Sum(rhs),rhsMax =  -3.89574488727112E+01  1.69940902916934E+00
(PID.TID 0000.0001)  ploadbar=  1.01094059445130E+05
 cg2d: Sum(rhs),rhsMax =  -3.90257973510021E+01  1.69698812727362E+00
(PID.TID 0000.0001)  ploadbar=  1.01093056445642E+05
 cg2d: Sum(rhs),rhsMax =  -3.90940219286753E+01  1.69455641037540E+00
(PID.TID 0000.0001)  ploadbar=  1.01092053446153E+05
 cg2d: Sum(rhs),rhsMax =  -3.91617545693599E+01  1.69212218698718E+00
(PID.TID 0000.0001)  ploadbar=  1.01091050446665E+05
 cg2d: Sum(rhs),rhsMax =  -3.92291837210972E+01  1.68971987831131E+00
(PID.TID 0000.0001)  ploadbar=  1.01088820959095E+05
 cg2d: Sum(rhs),rhsMax =  -3.92981726290528E+01  1.68726214500158E+00
(PID.TID 0000.0001)  ploadbar=  1.01086591471525E+05
 cg2d: Sum(rhs),rhsMax =  -3.93676790163928E+01  1.68478922473483E+00
(PID.TID 0000.0001)  ploadbar=  1.01084361983955E+05
 cg2d: Sum(rhs),rhsMax =  -3.94376286116639E+01  1.68230518012444E+00
(PID.TID 0000.0001)  ploadbar=  1.01082132496385E+05
 cg2d: Sum(rhs),rhsMax =  -3.95081643696566E+01  1.67980385195538E+00
(PID.TID 0000.0001)  ploadbar=  1.01079903008815E+05
 cg2d: Sum(rhs),rhsMax =  -3.95789744425819E+01  1.67729579550601E+00
(PID.TID 0000.0001)  ploadbar=  1.01077673521246E+05
 cg2d: Sum(rhs),rhsMax =  -3.96501403739729E+01  1.67468167935886E+00
(PID.TID 0000.0001)  ploadbar=  1.01077285593536E+05
 cg2d: Sum(rhs),rhsMax =  -3.97189035434941E+01  1.67207675969652E+00
(PID.TID 0000.0001)  ploadbar=  1.01076897665827E+05
 cg2d: Sum(rhs),rhsMax =  -3.97856588850008E+01  1.66945968421330E+00
(PID.TID 0000.0001)  ploadbar=  1.01076509738117E+05
 cg2d: Sum(rhs),rhsMax =  -3.98504549275340E+01  1.66682217144329E+00
(PID.TID 0000.0001)  ploadbar=  1.01076121810408E+05
 cg2d: Sum(rhs),rhsMax =  -3.99129575522761E+01  1.66417447826597E+00
(PID.TID 0000.0001)  ploadbar=  1.01075733882698E+05
 cg2d: Sum(rhs),rhsMax =  -3.99729679261637E+01  1.66152267306673E+00
(PID.TID 0000.0001)  ploadbar=  1.01075345954989E+05
 cg2d: Sum(rhs),rhsMax =  -4.00329938855215E+01  1.65898781519683E+00
(PID.TID 0000.0001)  ploadbar=  1.01076294250372E+05
 cg2d: Sum(rhs),rhsMax =  -4.00946606735114E+01  1.65649205524155E+00
(PID.TID 0000.0001)  ploadbar=  1.01077242545756E+05
 cg2d: Sum(rhs),rhsMax =  -4.01591889770070E+01  1.65398107767726E+00
(PID.TID 0000.0001)  ploadbar=  1.01078190841139E+05
 cg2d: Sum(rhs),rhsMax =  -4.02262497827029E+01  1.65146484240859E+00
(PID.TID 0000.0001)  ploadbar=  1.01079139136523E+05
 cg2d: Sum(rhs),rhsMax =  -4.02955821530914E+01  1.64895311935319E+00
(PID.TID 0000.0001)  ploadbar=  1.01080087431906E+05
 cg2d: Sum(rhs),rhsMax =  -4.03671296108485E+01  1.64644805111321E+00
(PID.TID 0000.0001)  ploadbar=  1.01081035727290E+05
 cg2d: Sum(rhs),rhsMax =  -4.04378640219092E+01  1.64401776379122E+00
(PID.TID 0000.0001)  ploadbar=  1.01082014077240E+05
 cg2d: Sum(rhs),rhsMax =  -4.05080465595102E+01  1.64164226643225E+00
(PID.TID 0000.0001)  ploadbar=  1.01082992427189E+05
 cg2d: Sum(rhs),rhsMax =  -4.05781938346387E+01  1.63929110070665E+00
(PID.TID 0000.0001)  ploadbar=  1.01083970777139E+05
 cg2d: Sum(rhs),rhsMax =  -4.06489051657068E+01  1.63692867896304E+00
(PID.TID 0000.0001)  ploadbar=  1.01084949127089E+05
 cg2d: Sum(rhs),rhsMax =  -4.07202519494228E+01  1.63454869235906E+00
(PID.TID 0000.0001)  ploadbar=  1.01085927477039E+05
 cg2d: Sum(rhs),rhsMax =  -4.07919976876620E+01  1.63215631089687E+00
(PID.TID 0000.0001)  ploadbar=  1.01086905826989E+05
 cg2d: Sum(rhs),rhsMax =  -4.08652967032883E+01  1.62972771712878E+00
(PID.TID 0000.0001)  ploadbar=  1.01086620204680E+05
 cg2d: Sum(rhs),rhsMax =  -4.09386609897504E+01  1.62731757003705E+00
(PID.TID 0000.0001)  ploadbar=  1.01086334582372E+05
 cg2d: Sum(rhs),rhsMax =  -4.10119883331113E+01  1.62492719660740E+00
(PID.TID 0000.0001)  ploadbar=  1.01086048960063E+05
 cg2d: Sum(rhs),rhsMax =  -4.10855641061964E+01  1.62254061294158E+00
(PID.TID 0000.0001)  ploadbar=  1.01085763337754E+05
 cg2d: Sum(rhs),rhsMax =  -4.11598739931371E+01  1.62013723974792E+00
(PID.TID 0000.0001)  ploadbar=  1.01085477715446E+05
 cg2d: Sum(rhs),rhsMax =  -4.12348799761292E+01  1.61771077539935E+00
(PID.TID 0000.0001)  ploadbar=  1.01085192093137E+05
 cg2d: Sum(rhs),rhsMax =  -4.13120199278841E+01  1.61520619089656E+00
(PID.TID 0000.0001)  ploadbar=  1.01086126575123E+05
 cg2d: Sum(rhs),rhsMax =  -4.13908231710037E+01  1.61263697394674E+00
(PID.TID 0000.0001)  ploadbar=  1.01087061057110E+05
 cg2d: Sum(rhs),rhsMax =  -4.14695120595522E+01  1.61006742881782E+00
(PID.TID 0000.0001)  ploadbar=  1.01087995539096E+05
 cg2d: Sum(rhs),rhsMax =  -4.15467632168577E+01  1.60754055505436E+00
(PID.TID 0000.0001)  ploadbar=  1.01088930021082E+05
 cg2d: Sum(rhs),rhsMax =  -4.16225111547156E+01  1.60505328103160E+00
(PID.TID 0000.0001)  ploadbar=  1.01089864503069E+05
 cg2d: Sum(rhs),rhsMax =  -4.16967944660706E+01  1.60260051710539E+00
(PID.TID 0000.0001)  ploadbar=  1.01090798985055E+05
 cg2d: Sum(rhs),rhsMax =  -4.17749051656425E+01  1.60012600082413E+00
(PID.TID 0000.0001)  ploadbar=  1.01091077247148E+05
 cg2d: Sum(rhs),rhsMax =  -4.18566501283562E+01  1.59762917223602E+00
(PID.TID 0000.0001)  ploadbar=  1.01091355509240E+05
 cg2d: Sum(rhs),rhsMax =  -4.19411408513478E+01  1.59514341610547E+00
(PID.TID 0000.0001)  ploadbar=  1.01091633771333E+05
 cg2d: Sum(rhs),rhsMax =  -4.20276918369934E+01  1.59269386037153E+00
(PID.TID 0000.0001)  ploadbar=  1.01091912033426E+05
 cg2d: Sum(rhs),rhsMax =  -4.21160315643022E+01  1.59028773678782E+00
(PID.TID 0000.0001)  ploadbar=  1.01092190295518E+05
 cg2d: Sum(rhs),rhsMax =  -4.22062810431864E+01  1.58791706260008E+00
(PID.TID 0000.0001)  ploadbar=  1.01092468557611E+05
 cg2d: Sum(rhs),rhsMax =  -4.22942593219658E+01  1.58561592799523E+00
(PID.TID 0000.0001)  ploadbar=  1.01092830157831E+05
 cg2d: Sum(rhs),rhsMax =  -4.23809917297245E+01  1.58333734825331E+00
(PID.TID 0000.0001)  ploadbar=  1.01093191758051E+05
 cg2d: Sum(rhs),rhsMax =  -4.24661512471985E+01  1.58108662374943E+00
(PID.TID 0000.0001)  ploadbar=  1.01093553358271E+05
 cg2d: Sum(rhs),rhsMax =  -4.25495461013778E+01  1.57886777928086E+00
(PID.TID 0000.0001)  ploadbar=  1.01093914958491E+05
 cg2d: Sum(rhs),rhsMax =  -4.26311422985622E+01  1.57668249056541E+00
(PID.TID 0000.0001)  ploadbar=  1.01094276558711E+05
 cg2d: Sum(rhs),rhsMax =  -4.27106348784687E+01  1.57453955504190E+00
(PID.TID 0000.0001)  ploadbar=  1.01094638158931E+05
 cg2d: Sum(rhs),rhsMax =  -4.27911153206873E+01  1.57237667193999E+00
(PID.TID 0000.0001)  ploadbar=  1.01094290436834E+05
 cg2d: Sum(rhs),rhsMax =  -4.28707313219339E+01  1.57025707310637E+00
(PID.TID 0000.0001)  ploadbar=  1.01093942714737E+05
 cg2d: Sum(rhs),rhsMax =  -4.29490414262507E+01  1.56819772574874E+00
(PID.TID 0000.0001)  ploadbar=  1.01093594992640E+05
 cg2d: Sum(rhs),rhsMax =  -4.30273884936848E+01  1.56614763052781E+00
(PID.TID 0000.0001)  ploadbar=  1.01093247270543E+05
 cg2d: Sum(rhs),rhsMax =  -4.31061163004527E+01  1.56409582058919E+00
(PID.TID 0000.0001)  ploadbar=  1.01092899548446E+05
 cg2d: Sum(rhs),rhsMax =  -4.31851596513682E+01  1.56204484142462E+00
(PID.TID 0000.0001)  ploadbar=  1.01092551826349E+05
 cg2d: Sum(rhs),rhsMax =  -4.32637721186598E+01  1.55992853933825E+00
(PID.TID 0000.0001)  ploadbar=  1.01092167809785E+05
 cg2d: Sum(rhs),rhsMax =  -4.33423306997829E+01  1.55772696271801E+00
(PID.TID 0000.0001)  ploadbar=  1.01091783793220E+05
 cg2d: Sum(rhs),rhsMax =  -4.34181313454341E+01  1.55553359088584E+00
(PID.TID 0000.0001)  ploadbar=  1.01091399776655E+05
 cg2d: Sum(rhs),rhsMax =  -4.34893720847760E+01  1.55340900761727E+00
(PID.TID 0000.0001)  ploadbar=  1.01091015760090E+05
 cg2d: Sum(rhs),rhsMax =  -4.35547842853121E+01  1.55139357299526E+00
(PID.TID 0000.0001)  ploadbar=  1.01090631743525E+05
 cg2d: Sum(rhs),rhsMax =  -4.36140638529043E+01  1.54949753812882E+00
(PID.TID 0000.0001)  ploadbar=  1.01090247726960E+05
 cg2d: Sum(rhs),rhsMax =  -4.36736690618114E+01  1.54772966131473E+00
(PID.TID 0000.0001)  ploadbar=  1.01087484875857E+05
 cg2d: Sum(rhs),rhsMax =  -4.37363740184492E+01  1.54598392469531E+00
(PID.TID 0000.0001)  ploadbar=  1.01084722024753E+05
 cg2d: Sum(rhs),rhsMax =  -4.38001090322552E+01  1.54433386011059E+00
(PID.TID 0000.0001)  ploadbar=  1.01081959173649E+05
 cg2d: Sum(rhs),rhsMax =  -4.38650530424475E+01  1.54277413534963E+00
(PID.TID 0000.0001)  ploadbar=  1.01079196322546E+05
 cg2d: Sum(rhs),rhsMax =  -4.39318863980986E+01  1.54128215400884E+00
(PID.TID 0000.0001)  ploadbar=  1.01076433471442E+05
 cg2d: Sum(rhs),rhsMax =  -4.40000937387720E+01  1.53987178452911E+00
(PID.TID 0000.0001)  ploadbar=  1.01073670620339E+05
 cg2d: Sum(rhs),rhsMax =  -4.40534897276863E+01  1.53896259920425E+00
(PID.TID 0000.0001)  ploadbar=  1.01072372548199E+05
 cg2d: Sum(rhs),rhsMax =  -4.41010931943423E+01  1.53823206900646E+00
(PID.TID 0000.0001)  ploadbar=  1.01071074476059E+05
 cg2d: Sum(rhs),rhsMax =  -4.41397526526535E+01  1.53778880864225E+00
(PID.TID 0000.0001)  ploadbar=  1.01069776403919E+05
 cg2d: Sum(rhs),rhsMax =  -4.41665888333463E+01  1.53773045552456E+00
(PID.TID 0000.0001)  ploadbar=  1.01068478331779E+05
 cg2d: Sum(rhs),rhsMax =  -4.41823418624966E+01  1.53803075648658E+00
(PID.TID 0000.0001)  ploadbar=  1.01067180259639E+05
 cg2d: Sum(rhs),rhsMax =  -4.41896236351192E+01  1.53860021951503E+00
(PID.TID 0000.0001)  ploadbar=  1.01065882187499E+05
 cg2d: Sum(rhs),rhsMax =  -4.41839629517097E+01  1.53963388394781E+00
(PID.TID 0000.0001)  ploadbar=  1.01064831839690E+05
 cg2d: Sum(rhs),rhsMax =  -4.41751442953980E+01  1.54078724142972E+00
(PID.TID 0000.0001)  ploadbar=  1.01063781491880E+05
 cg2d: Sum(rhs),rhsMax =  -4.41725664867944E+01  1.54173583723341E+00
(PID.TID 0000.0001)  ploadbar=  1.01062731144071E+05
 cg2d: Sum(rhs),rhsMax =  -4.41849977613858E+01  1.54218085140887E+00
(PID.TID 0000.0001)  ploadbar=  1.01061680796262E+05
 cg2d: Sum(rhs),rhsMax =  -4.42180769812051E+01  1.54192723515645E+00
(PID.TID 0000.0001)  ploadbar=  1.01060630448452E+05
 cg2d: Sum(rhs),rhsMax =  -4.42689586277447E+01  1.54108459198360E+00
(PID.TID 0000.0001)  ploadbar=  1.01059580100643E+05
 cg2d: Sum(rhs),rhsMax =  -4.43155125543030E+01  1.54032614839713E+00
(PID.TID 0000.0001)  ploadbar=  1.01058288647696E+05
 cg2d: Sum(rhs),rhsMax =  -4.43459369826935E+01  1.54005791960360E+00
(PID.TID 0000.0001)  ploadbar=  1.01056997194750E+05
 cg2d: Sum(rhs),rhsMax =  -4.43641245594075E+01  1.54014339285505E+00
(PID.TID 0000.0001)  ploadbar=  1.01055705741803E+05
 cg2d: Sum(rhs),rhsMax =  -4.43711812302268E+01  1.54054003143738E+00
(PID.TID 0000.0001)  ploadbar=  1.01054414288856E+05
 cg2d: Sum(rhs),rhsMax =  -4.43706614715444E+01  1.54112382319927E+00
(PID.TID 0000.0001)  ploadbar=  1.01053122835910E+05
 cg2d: Sum(rhs),rhsMax =  -4.43665171553234E+01  1.54175887195410E+00
(PID.TID 0000.0001)  ploadbar=  1.01051831382963E+05
 cg2d: Sum(rhs),rhsMax =  -4.43571241218756E+01  1.54259741486997E+00
(PID.TID 0000.0001)  ploadbar=  1.01050410014458E+05
 cg2d: Sum(rhs),rhsMax =  -4.43388042561307E+01  1.54376800499751E+00
(PID.TID 0000.0001)  ploadbar=  1.01048988645952E+05
 cg2d: Sum(rhs),rhsMax =  -4.43287726892227E+01  1.54467302991075E+00
(PID.TID 0000.0001)  ploadbar=  1.01047567277446E+05
 cg2d: Sum(rhs),rhsMax =  -4.43033125176559E+01  1.54614217767531E+00
(PID.TID 0000.0001)  ploadbar=  1.01046145908941E+05
 cg2d: Sum(rhs),rhsMax =  -4.42611461841342E+01  1.54822640685799E+00
(PID.TID 0000.0001)  ploadbar=  1.01044724540435E+05
 cg2d: Sum(rhs),rhsMax =  -4.42083042239624E+01  1.55071425471134E+00
(PID.TID 0000.0001)  ploadbar=  1.01043303171930E+05
 cg2d: Sum(rhs),rhsMax =  -4.41628513564792E+01  1.55291216286203E+00
(PID.TID 0000.0001)  ploadbar=  1.01042169733065E+05
 cg2d: Sum(rhs),rhsMax =  -4.41090748699734E+01  1.55536708415114E+00
(PID.TID 0000.0001)  ploadbar=  1.01041036294200E+05
 cg2d: Sum(rhs),rhsMax =  -4.40504615621002E+01  1.55795585153199E+00
(PID.TID 0000.0001)  ploadbar=  1.01039902855335E+05
 cg2d: Sum(rhs),rhsMax =  -4.39903139491417E+01  1.56056047727211E+00
(PID.TID 0000.0001)  ploadbar=  1.01038769416470E+05
 cg2d: Sum(rhs),rhsMax =  -4.39283903219628E+01  1.56319519890596E+00
(PID.TID 0000.0001)  ploadbar=  1.01037635977605E+05
 cg2d: Sum(rhs),rhsMax =  -4.38650400020950E+01  1.56584652514610E+00
(PID.TID 0000.0001)  ploadbar=  1.01036502538740E+05
 cg2d: Sum(rhs),rhsMax =  -4.38109162262396E+01  1.56824513657988E+00
(PID.TID 0000.0001)  ploadbar=  1.01035921159873E+05
 cg2d: Sum(rhs),rhsMax =  -4.37643352849675E+01  1.57044898494497E+00
(PID.TID 0000.0001)  ploadbar=  1.01035339781006E+05
 cg2d: Sum(rhs),rhsMax =  -4.37250128802191E+01  1.57247028574099E+00
(PID.TID 0000.0001)  ploadbar=  1.01034758402139E+05
 cg2d: Sum(rhs),rhsMax =  -4.36939143049550E+01  1.57427719167904E+00
(PID.TID 0000.0001)  ploadbar=  1.01034177023272E+05
 cg2d: Sum(rhs),rhsMax =  -4.36718717988212E+01  1.57583893725855E+00
(PID.TID 0000.0001)  ploadbar=  1.01033595644405E+05
 cg2d: Sum(rhs),rhsMax =  -4.36596280737428E+01  1.57713126660276E+00
(PID.TID 0000.0001)  ploadbar=  1.01033014265538E+05
 cg2d: Sum(rhs),rhsMax =  -4.36637848665578E+01  1.57782205073090E+00
(PID.TID 0000.0001)  ploadbar=  1.01032437648681E+05
 cg2d: Sum(rhs),rhsMax =  -4.36803034243874E+01  1.57805417365964E+00
(PID.TID 0000.0001)  ploadbar=  1.01031861031825E+05
 cg2d: Sum(rhs),rhsMax =  -4.37053207137087E+01  1.57796548308528E+00
(PID.TID 0000.0001)  ploadbar=  1.01031284414968E+05
 cg2d: Sum(rhs),rhsMax =  -4.37387810592650E+01  1.57755474411391E+00
(PID.TID 0000.0001)  ploadbar=  1.01030707798112E+05
 cg2d: Sum(rhs),rhsMax =  -4.37786797155435E+01  1.57688957682238E+00
(PID.TID 0000.0001)  ploadbar=  1.01030131181255E+05
 cg2d: Sum(rhs),rhsMax =  -4.38251610827077E+01  1.57596703362699E+00
(PID.TID 0000.0001)  ploadbar=  1.01029554564399E+05
 cg2d: Sum(rhs),rhsMax =  -4.38760703232947E+01  1.57493328966250E+00
(PID.TID 0000.0001)  ploadbar=  1.01029717728708E+05
 cg2d: Sum(rhs),rhsMax =  -4.39365261823461E+01  1.57360322863584E+00
(PID.TID 0000.0001)  ploadbar=  1.01029880893018E+05
 cg2d: Sum(rhs),rhsMax =  -4.40004199647423E+01  1.57219740401924E+00
(PID.TID 0000.0001)  ploadbar=  1.01030044057328E+05
 cg2d: Sum(rhs),rhsMax =  -4.40672502693698E+01  1.57073908449225E+00
(PID.TID 0000.0001)  ploadbar=  1.01030207221638E+05
 cg2d: Sum(rhs),rhsMax =  -4.41376811940589E+01  1.56920659915253E+00
(PID.TID 0000.0001)  ploadbar=  1.01030370385948E+05
 cg2d: Sum(rhs),rhsMax =  -4.42117138893082E+01  1.56759682727077E+00
(PID.TID 0000.0001)  ploadbar=  1.01030533550258E+05
 cg2d: Sum(rhs),rhsMax =  -4.42796942903865E+01  1.56614060451352E+00
(PID.TID 0000.0001)  ploadbar=  1.01029995454329E+05
 cg2d: Sum(rhs),rhsMax =  -4.43498547601833E+01  1.56453473384361E+00
(PID.TID 0000.0001)  ploadbar=  1.01029457358401E+05
 cg2d: Sum(rhs),rhsMax =  -4.44209538459060E+01  1.56281841509339E+00
(PID.TID 0000.0001)  ploadbar=  1.01028919262472E+05
 cg2d: Sum(rhs),rhsMax =  -4.44923252116196E+01  1.56101608301491E+00
(PID.TID 0000.0001)  ploadbar=  1.01028381166544E+05
 cg2d: Sum(rhs),rhsMax =  -4.45639124681567E+01  1.55913244866269E+00
(PID.TID 0000.0001)  ploadbar=  1.01027843070615E+05
 cg2d: Sum(rhs),rhsMax =  -4.46346806898270E+01  1.55720603788185E+00
(PID.TID 0000.0001)  ploadbar=  1.01027304974687E+05
 cg2d: Sum(rhs),rhsMax =  -4.47025496763037E+01  1.55539003470338E+00
(PID.TID 0000.0001)  ploadbar=  1.01025997723040E+05
 cg2d: Sum(rhs),rhsMax =  -4.47704708136188E+01  1.55357986494735E+00
(PID.TID 0000.0001)  ploadbar=  1.01024690471393E+05
 cg2d: Sum(rhs),rhsMax =  -4.48403220954791E+01  1.55171250748202E+00
(PID.TID 0000.0001)  ploadbar=  1.01023383219745E+05
 cg2d: Sum(rhs),rhsMax =  -4.49117504064402E+01  1.54980088200275E+00
(PID.TID 0000.0001)  ploadbar=  1.01022075968098E+05
 cg2d: Sum(rhs),rhsMax =  -4.49845987794668E+01  1.54785207486488E+00
(PID.TID 0000.0001)  ploadbar=  1.01020768716451E+05
 cg2d: Sum(rhs),rhsMax =  -4.50591045969512E+01  1.54586208189886E+00
(PID.TID 0000.0001)  ploadbar=  1.01019461464804E+05
 cg2d: Sum(rhs),rhsMax =  -4.51289191869148E+01  1.54394805192192E+00
(PID.TID 0000.0001)  ploadbar=  1.01019433592891E+05
 cg2d: Sum(rhs),rhsMax =  -4.51960869470136E+01  1.54203475552667E+00
(PID.TID 0000.0001)  ploadbar=  1.01019405720978E+05
 cg2d: Sum(rhs),rhsMax =  -4.52626600540070E+01  1.54004809175235E+00
(PID.TID 0000.0001)  ploadbar=  1.01019377849066E+05
 cg2d: Sum(rhs),rhsMax =  -4.53287089217484E+01  1.53798088670164E+00
(PID.TID 0000.0001)  ploadbar=  1.01019349977153E+05
 cg2d: Sum(rhs),rhsMax =  -4.53940376237529E+01  1.53583704138775E+00
(PID.TID 0000.0001)  ploadbar=  1.01019322105240E+05
 cg2d: Sum(rhs),rhsMax =  -4.54589966647092E+01  1.53360154117928E+00
(PID.TID 0000.0001)  ploadbar=  1.01019294233328E+05
 cg2d: Sum(rhs),rhsMax =  -4.55329987356592E+01  1.53116709696559E+00
(PID.TID 0000.0001)  ploadbar=  1.01020232934041E+05
 cg2d: Sum(rhs),rhsMax =  -4.56134426380251E+01  1.52861913947018E+00
(PID.TID 0000.0001)  ploadbar=  1.01021171634755E+05
 cg2d: Sum(rhs),rhsMax =  -4.57059691554261E+01  1.52577268136402E+00
(PID.TID 0000.0001)  ploadbar=  1.01022110335469E+05
 cg2d: Sum(rhs),rhsMax =  -4.58112617473972E+01  1.52260894834469E+00
(PID.TID 0000.0001)  ploadbar=  1.01023049036182E+05
 cg2d: Sum(rhs),rhsMax =  -4.59292085426751E+01  1.51913625373911E+00
(PID.TID 0000.0001)  ploadbar=  1.01023987736896E+05
 cg2d: Sum(rhs),rhsMax =  -4.60601704726983E+01  1.51534429850721E+00
(PID.TID 0000.0001)  ploadbar=  1.01024926437610E+05
 cg2d: Sum(rhs),rhsMax =  -4.62022023629363E+01  1.51121510480866E+00
(PID.TID 0000.0001)  ploadbar=  1.01026031060063E+05
 cg2d: Sum(rhs),rhsMax =  -4.63510099816399E+01  1.50688373607902E+00
(PID.TID 0000.0001)  ploadbar=  1.01027135682516E+05
 cg2d: Sum(rhs),rhsMax =  -4.65083853194949E+01  1.50229435287720E+00
(PID.TID 0000.0001)  ploadbar=  1.01028240304969E+05
 cg2d: Sum(rhs),rhsMax =  -4.66737311510800E+01  1.49746885486771E+00
(PID.TID 0000.0001)  ploadbar=  1.01029344927421E+05
 cg2d: Sum(rhs),rhsMax =  -4.68466137291607E+01  1.49242491378143E+00
(PID.TID 0000.0001)  ploadbar=  1.01030449549874E+05
 cg2d: Sum(rhs),rhsMax =  -4.70282676265243E+01  1.48713159955933E+00
(PID.TID 0000.0001)  ploadbar=  1.01031554172327E+05
 cg2d: Sum(rhs),rhsMax =  -4.72296226211838E+01  1.48126491556153E+00
(PID.TID 0000.0001)  ploadbar=  1.01033153068061E+05
 cg2d: Sum(rhs),rhsMax =  -4.74431067740825E+01  1.47506748752238E+00
(PID.TID 0000.0001)  ploadbar=  1.01034751963794E+05
 cg2d: Sum(rhs),rhsMax =  -4.76597930048424E+01  1.46881960292896E+00
(PID.TID 0000.0001)  ploadbar=  1.01036350859527E+05
 cg2d: Sum(rhs),rhsMax =  -4.78783756782592E+01  1.46256026746515E+00
(PID.TID 0000.0001)  ploadbar=  1.01037949755261E+05
 cg2d: Sum(rhs),rhsMax =  -4.80968559875328E+01  1.45635069813005E+00
(PID.TID 0000.0001)  ploadbar=  1.01039548650994E+05
 cg2d: Sum(rhs),rhsMax =  -4.83128545223002E+01  1.45025779383294E+00
(PID.TID 0000.0001)  ploadbar=  1.01041147546728E+05
 cg2d: Sum(rhs),rhsMax =  -4.85044902730571E+01  1.44488612323501E+00
(PID.TID 0000.0001)  ploadbar=  1.01042675117581E+05
 cg2d: Sum(rhs),rhsMax =  -4.86838740897336E+01  1.43985198010853E+00
(PID.TID 0000.0001)  ploadbar=  1.01044202688434E+05
 cg2d: Sum(rhs),rhsMax =  -4.88451379331660E+01  1.43531856175741E+00
(PID.TID 0000.0001)  ploadbar=  1.01045730259287E+05
 cg2d: Sum(rhs),rhsMax =  -4.89874772915335E+01  1.43129092278491E+00
(PID.TID 0000.0001)  ploadbar=  1.01047257830141E+05
 cg2d: Sum(rhs),rhsMax =  -4.91153594264568E+01  1.42762231864630E+00
(PID.TID 0000.0001)  ploadbar=  1.01048785400994E+05
 cg2d: Sum(rhs),rhsMax =  -4.92314232947137E+01  1.42422297526086E+00
(PID.TID 0000.0001)  ploadbar=  1.01050312971847E+05
 cg2d: Sum(rhs),rhsMax =  -4.93569113324308E+01  1.42061469113640E+00
(PID.TID 0000.0001)  ploadbar=  1.01052441550712E+05
 cg2d: Sum(rhs),rhsMax =  -4.94910240942299E+01  1.41681695370355E+00
(PID.TID 0000.0001)  ploadbar=  1.01054570129577E+05
 cg2d: Sum(rhs),rhsMax =  -4.96344689885116E+01  1.41280704809218E+00
(PID.TID 0000.0001)  ploadbar=  1.01056698708442E+05
 cg2d: Sum(rhs),rhsMax =  -4.97847137965204E+01  1.40865322427431E+00
(PID.TID 0000.0001)  ploadbar=  1.01058827287307E+05
 cg2d: Sum(rhs),rhsMax =  -4.99409476503944E+01  1.40437391179380E+00
(PID.TID 0000.0001)  ploadbar=  1.01060955866172E+05
 cg2d: Sum(rhs),rhsMax =  -5.01018980354324E+01  1.40000198698550E+00
(PID.TID 0000.0001)  ploadbar=  1.01063084445038E+05
 cg2d: Sum(rhs),rhsMax =  -5.02559940468351E+01  1.39588191159776E+00
(PID.TID 0000.0001)  ploadbar=  1.01064346764520E+05
 cg2d: Sum(rhs),rhsMax =  -5.04070770160824E+01  1.39189792855760E+00
(PID.TID 0000.0001)  ploadbar=  1.01065609084003E+05
 cg2d: Sum(rhs),rhsMax =  -5.05580162053345E+01  1.38796245809830E+00
(PID.TID 0000.0001)  ploadbar=  1.01066871403486E+05
 cg2d: Sum(rhs),rhsMax =  -5.07092701793941E+01  1.38405701990700E+00
(PID.TID 0000.0001)  ploadbar=  1.01068133722968E+05
 cg2d: Sum(rhs),rhsMax =  -5.08602994686910E+01  1.38019339889710E+00
(PID.TID 0000.0001)  ploadbar=  1.01069396042451E+05
 cg2d: Sum(rhs),rhsMax =  -5.10100009610788E+01  1.37639679531270E+00
(PID.TID 0000.0001)  ploadbar=  1.01070658361934E+05
 cg2d: Sum(rhs),rhsMax =  -5.11776377509494E+01  1.37216147477291E+00
(PID.TID 0000.0001)  ploadbar=  1.01071753268818E+05
 cg2d: Sum(rhs),rhsMax =  -5.13493835850624E+01  1.36785609292231E+00
(PID.TID 0000.0001)  ploadbar=  1.01072848175702E+05
 cg2d: Sum(rhs),rhsMax =  -5.15265603672593E+01  1.36344208312718E+00
(PID.TID 0000.0001)  ploadbar=  1.01073943082586E+05
 cg2d: Sum(rhs),rhsMax =  -5.17070364292229E+01  1.35897310535629E+00
(PID.TID 0000.0001)  ploadbar=  1.01075037989469E+05
 cg2d: Sum(rhs),rhsMax =  -5.18867063840381E+01  1.35455245720000E+00
(PID.TID 0000.0001)  ploadbar=  1.01076132896353E+05
 cg2d: Sum(rhs),rhsMax =  -5.20643118590235E+01  1.35020900692360E+00
(PID.TID 0000.0001)  ploadbar=  1.01077227803237E+05
 cg2d: Sum(rhs),rhsMax =  -5.22420718273139E+01  1.34586999344051E+00
(PID.TID 0000.0001)  ploadbar=  1.01077961329228E+05
 cg2d: Sum(rhs),rhsMax =  -5.24109042457989E+01  1.34176542427974E+00
(PID.TID 0000.0001)  ploadbar=  1.01078694855220E+05
 cg2d: Sum(rhs),rhsMax =  -5.25669564452006E+01  1.33798385946261E+00
(PID.TID 0000.0001)  ploadbar=  1.01079428381211E+05
 cg2d: Sum(rhs),rhsMax =  -5.27065680977826E+01  1.33460573027200E+00
(PID.TID 0000.0001)  ploadbar=  1.01080161907202E+05
 cg2d: Sum(rhs),rhsMax =  -5.28227919319058E+01  1.33179307537254E+00
(PID.TID 0000.0001)  ploadbar=  1.01080895433193E+05
 cg2d: Sum(rhs),rhsMax =  -5.29114006294953E+01  1.32964123670267E+00
(PID.TID 0000.0001)  ploadbar=  1.01081628959184E+05
 cg2d: Sum(rhs),rhsMax =  -5.29829153915324E+01  1.32802347573678E+00
(PID.TID 0000.0001)  ploadbar=  1.01082478472604E+05
 cg2d: Sum(rhs),rhsMax =  -5.30595027172954E+01  1.32637739022744E+00
(PID.TID 0000.0001)  ploadbar=  1.01083327986023E+05
 cg2d: Sum(rhs),rhsMax =  -5.31384208448210E+01  1.32476761499965E+00
(PID.TID 0000.0001)  ploadbar=  1.01084177499442E+05
 cg2d: Sum(rhs),rhsMax =  -5.32209924604294E+01  1.32315787119448E+00
(PID.TID 0000.0001)  ploadbar=  1.01085027012862E+05
 cg2d: Sum(rhs),rhsMax =  -5.33130790440822E+01  1.32139953890609E+00
(PID.TID 0000.0001)  ploadbar=  1.01085876526281E+05
 cg2d: Sum(rhs),rhsMax =  -5.34187166736823E+01  1.31938870082569E+00
(PID.TID 0000.0001)  ploadbar=  1.01086726039700E+05
 cg2d: Sum(rhs),rhsMax =  -5.35311722707340E+01  1.31722561905806E+00
(PID.TID 0000.0001)  ploadbar=  1.01087502067399E+05
 cg2d: Sum(rhs),rhsMax =  -5.36777943111364E+01  1.31423211022689E+00
(PID.TID 0000.0001)      cg2d_init_res =   2.58699193907297E-01
(PID.TID 0000.0001)      cg2d_iters(min,last) =      -1     142
(PID.TID 0000.0001)      cg2d_last_res =   9.76392220779584E-08
(PID.TID 0000.0001) // =======================================================
(PID.TID 0000.0001) // Begin MONITOR dynamic field statistics
(PID.TID 0000.0001) // =======================================================
(PID.TID 0000.0001) %MON time_tsnumber                =                  3504
(PID.TID 0000.0001) %MON time_secondsf                =   1.2614400000000E+07
(PID.TID 0000.0001) %MON dynstat_eta_max              =   1.1087857203648E+00
(PID.TID 0000.0001) %MON dynstat_eta_min              =  -5.5388261374471E+00
(PID.TID 0000.0001) %MON dynstat_eta_mean             =   3.5705059433360E-02
(PID.TID 0000.0001) %MON dynstat_eta_sd               =   7.6155651949827E-01
(PID.TID 0000.0001) %MON dynstat_eta_del2             =   2.0454284405178E-04
(PID.TID 0000.0001) %MON dynstat_uvel_max             =   1.2342719216303E+00
(PID.TID 0000.0001) %MON dynstat_uvel_min             =  -8.9289081073183E-01
(PID.TID 0000.0001) %MON dynstat_uvel_mean            =   1.4082137591168E-03
(PID.TID 0000.0001) %MON dynstat_uvel_sd              =   2.1136739432641E-02
(PID.TID 0000.0001) %MON dynstat_uvel_del2            =   8.2041651281437E-06
(PID.TID 0000.0001) %MON dynstat_vvel_max             =   7.8299522683121E-01
(PID.TID 0000.0001) %MON dynstat_vvel_min             =  -9.8603143966967E-01
(PID.TID 0000.0001) %MON dynstat_vvel_mean            =   8.4713732583623E-04
(PID.TID 0000.0001) %MON dynstat_vvel_sd              =   2.1138364636799E-02
(PID.TID 0000.0001) %MON dynstat_vvel_del2            =   8.4249778734528E-06
(PID.TID 0000.0001) %MON dynstat_wvel_max             =   5.8519540259066E-04
(PID.TID 0000.0001) %MON dynstat_wvel_min             =  -8.3612269576984E-04
(PID.TID 0000.0001) %MON dynstat_wvel_mean            =  -8.4453244654920E-09
(PID.TID 0000.0001) %MON dynstat_wvel_sd              =   2.2191113880414E-05
(PID.TID 0000.0001) %MON dynstat_wvel_del2            =   1.6453835005352E-08
(PID.TID 0000.0001) %MON dynstat_theta_max            =   3.2118782383984E+01
(PID.TID 0000.0001) %MON dynstat_theta_min            =  -2.1143761654634E+00
(PID.TID 0000.0001) %MON dynstat_theta_mean           =   3.5857029671721E+00
(PID.TID 0000.0001) %MON dynstat_theta_sd             =   4.4435511223253E+00
(PID.TID 0000.0001) %MON dynstat_theta_del2           =   8.4036795021626E-05
(PID.TID 0000.0001) %MON dynstat_salt_max             =   4.0641907180778E+01
(PID.TID 0000.0001) %MON dynstat_salt_min             =   2.3214968195132E+01
(PID.TID 0000.0001) %MON dynstat_salt_mean            =   3.4727297843588E+01
(PID.TID 0000.0001) %MON dynstat_salt_sd              =   3.7704582264438E-01
(PID.TID 0000.0001) %MON dynstat_salt_del2            =   1.8726168169562E-05
(PID.TID 0000.0001) %MON dynstat_sst_max              =   3.2100100322755E+01
(PID.TID 0000.0001) %MON dynstat_sst_min              =  -1.9608767497733E+00
(PID.TID 0000.0001) %MON dynstat_sst_mean             =   1.8223433375860E+01
(PID.TID 0000.0001) %MON dynstat_sst_sd               =   1.0421513041006E+01
(PID.TID 0000.0001) %MON dynstat_sst_del2             =   6.4514207223400E-04
(PID.TID 0000.0001) %MON dynstat_sss_max              =   3.9994135409263E+01
(PID.TID 0000.0001) %MON dynstat_sss_min              =   2.3214968195132E+01
(PID.TID 0000.0001) %MON dynstat_sss_mean             =   3.4745987399698E+01
(PID.TID 0000.0001) %MON dynstat_sss_sd               =   1.1732545791926E+00
(PID.TID 0000.0001) %MON dynstat_sss_del2             =   3.0601355798956E-04
(PID.TID 0000.0001) %MON forcing_qnet_max             =   7.2743302052305E+02
(PID.TID 0000.0001) %MON forcing_qnet_min             =  -5.7879601065392E+02
(PID.TID 0000.0001) %MON forcing_qnet_mean            =   3.6388039206338E+01
(PID.TID 0000.0001) %MON forcing_qnet_sd              =   1.6223758573329E+02
(PID.TID 0000.0001) %MON forcing_qnet_del2            =   9.3865490440791E-02
(PID.TID 0000.0001) %MON forcing_qsw_max              =   4.1153482476635E+01
(PID.TID 0000.0001) %MON forcing_qsw_min              =  -7.0969266628829E+02
(PID.TID 0000.0001) %MON forcing_qsw_mean             =  -1.1735183013318E+02
(PID.TID 0000.0001) %MON forcing_qsw_sd               =   1.4746686752280E+02
(PID.TID 0000.0001) %MON forcing_qsw_del2             =   5.5389010131715E-02
(PID.TID 0000.0001) %MON forcing_empmr_max            =   1.8849809584900E-03
(PID.TID 0000.0001) %MON forcing_empmr_min            =  -3.2062395609351E-03
(PID.TID 0000.0001) %MON forcing_empmr_mean           =  -4.6944205033553E-06
(PID.TID 0000.0001) %MON forcing_empmr_sd             =   9.4324879345141E-05
(PID.TID 0000.0001) %MON forcing_empmr_del2           =   2.7184427477667E-07
(PID.TID 0000.0001) %MON forcing_fu_max               =   1.0205816626549E+00
(PID.TID 0000.0001) %MON forcing_fu_min               =  -8.4115873922499E-01
(PID.TID 0000.0001) %MON forcing_fu_mean              =   1.4135167333798E-02
(PID.TID 0000.0001) %MON forcing_fu_sd                =   1.3792706833853E-01
(PID.TID 0000.0001) %MON forcing_fu_del2              =   7.4023576952751E-05
(PID.TID 0000.0001) %MON forcing_fv_max               =   7.0983179671574E-01
(PID.TID 0000.0001) %MON forcing_fv_min               =  -8.9562466774769E-01
(PID.TID 0000.0001) %MON forcing_fv_mean              =   5.5756165856762E-04
(PID.TID 0000.0001) %MON forcing_fv_sd                =   1.0077837299190E-01
(PID.TID 0000.0001) %MON forcing_fv_del2              =   6.2508505235219E-05
(PID.TID 0000.0001) %MON trAdv_CFL_u_max              =   5.3662284853025E-02
(PID.TID 0000.0001) %MON trAdv_CFL_v_max              =   5.8538706041969E-02
(PID.TID 0000.0001) %MON trAdv_CFL_w_max              =   1.2442537896857E-01
(PID.TID 0000.0001) %MON advcfl_uvel_max              =   4.6822986988977E-02
(PID.TID 0000.0001) %MON advcfl_vvel_max              =   6.1740340691929E-02
(PID.TID 0000.0001) %MON advcfl_wvel_max              =   1.2795505599953E-01
(PID.TID 0000.0001) %MON advcfl_W_hf_max              =   1.2903341482670E-01
(PID.TID 0000.0001) %MON pe_b_mean                    =   1.2901093621043E-03
(PID.TID 0000.0001) %MON ke_max                       =   8.0889186529394E-01
(PID.TID 0000.0001) %MON ke_mean                      =   4.3218427798504E-04
(PID.TID 0000.0001) %MON ke_vol                       =   1.3350106539656E+18
(PID.TID 0000.0001) %MON vort_r_min                   =  -1.1407901756126E-05
(PID.TID 0000.0001) %MON vort_r_max                   =   2.2508455957971E-05
(PID.TID 0000.0001) %MON vort_a_mean                  =  -1.9727725442933E-05
(PID.TID 0000.0001) %MON vort_a_sd                    =   7.4542893502001E-05
(PID.TID 0000.0001) %MON vort_p_mean                  =  -2.1760120551457E-05
(PID.TID 0000.0001) %MON vort_p_sd                    =   9.7244361847203E-05
(PID.TID 0000.0001) %MON surfExpan_theta_mean         =  -1.5620214395402E-07
(PID.TID 0000.0001) %MON surfExpan_salt_mean          =   1.2563446189405E-08
(PID.TID 0000.0001) // =======================================================
(PID.TID 0000.0001) // End MONITOR dynamic field statistics
(PID.TID 0000.0001) // =======================================================
(PID.TID 0000.0001)  ploadbar=  1.01088278095097E+05
(PID.TID 0000.0001) %SBO sbo_mass                     =   1.3737549509513E+21
(PID.TID 0000.0001) %SBO sbo_mass_fw                  =   4.2135580810287E+16
(PID.TID 0000.0001) %SBO sbo_zoamc                    =   9.6896490671214E+24
(PID.TID 0000.0001) %SBO sbo_zoamp                    =   2.9276559886755E+30
(PID.TID 0000.0001) // =======================================================
(PID.TID 0000.0001) // Begin MONITOR SEAICE statistics
(PID.TID 0000.0001) // =======================================================
(PID.TID 0000.0001) %MON seaice_tsnumber              =                  3504
(PID.TID 0000.0001) %MON seaice_time_sec              =   1.2614400000000E+07
(PID.TID 0000.0001) %MON seaice_uice_max              =   4.0000000000000E-01
(PID.TID 0000.0001) %MON seaice_uice_min              =  -4.0000000000000E-01
(PID.TID 0000.0001) %MON seaice_uice_mean             =   1.3416716864032E-03
(PID.TID 0000.0001) %MON seaice_uice_sd               =   1.7385442418300E-01
(PID.TID 0000.0001) %MON seaice_uice_del2             =   1.3558076532538E-04
(PID.TID 0000.0001) %MON seaice_vice_max              =   4.0000000000000E-01
(PID.TID 0000.0001) %MON seaice_vice_min              =  -4.0000000000000E-01
(PID.TID 0000.0001) %MON seaice_vice_mean             =  -1.3642461333226E-02
(PID.TID 0000.0001) %MON seaice_vice_sd               =   1.7203221303662E-01
(PID.TID 0000.0001) %MON seaice_vice_del2             =   1.3397381515198E-04
(PID.TID 0000.0001) %MON seaice_area_max              =   9.7000000000000E-01
(PID.TID 0000.0001) %MON seaice_area_min              =   0.0000000000000E+00
(PID.TID 0000.0001) %MON seaice_area_mean             =   6.3455332025179E-02
(PID.TID 0000.0001) %MON seaice_area_sd               =   2.2855734739703E-01
(PID.TID 0000.0001) %MON seaice_area_del2             =   2.2093900271090E-04
(PID.TID 0000.0001) %MON seaice_heff_max              =   5.4882331356251E+00
(PID.TID 0000.0001) %MON seaice_heff_min              =   0.0000000000000E+00
(PID.TID 0000.0001) %MON seaice_heff_mean             =   8.4943240142411E-02
(PID.TID 0000.0001) %MON seaice_heff_sd               =   4.0122522373741E-01
(PID.TID 0000.0001) %MON seaice_heff_del2             =   2.1501225941152E-04
(PID.TID 0000.0001) %MON seaice_hsnow_max             =   1.0146053347930E+00
(PID.TID 0000.0001) %MON seaice_hsnow_min             =  -7.7267868900481E-05
(PID.TID 0000.0001) %MON seaice_hsnow_mean            =   1.1071944115860E-02
(PID.TID 0000.0001) %MON seaice_hsnow_sd              =   5.4349723073440E-02
(PID.TID 0000.0001) %MON seaice_hsnow_del2            =   4.4683607923389E-05
(PID.TID 0000.0001) // =======================================================
(PID.TID 0000.0001) // End MONITOR SEAICE statistics
(PID.TID 0000.0001) // =======================================================
(PID.TID 0000.0001) // =======================================================
(PID.TID 0000.0001) // Begin MONITOR EXF statistics
(PID.TID 0000.0001) // =======================================================
(PID.TID 0000.0001) %MON exf_tsnumber                 =                  3504
(PID.TID 0000.0001) %MON exf_time_sec                 =   1.2614400000000E+07
(PID.TID 0000.0001) %MON exf_ustress_max              =   1.0689419507980E+00
(PID.TID 0000.0001) %MON exf_ustress_min              =  -9.7425293922424E-01
(PID.TID 0000.0001) %MON exf_ustress_mean             =   1.3479582094127E-02
(PID.TID 0000.0001) %MON exf_ustress_sd               =   1.3757625812486E-01
(PID.TID 0000.0001) %MON exf_ustress_del2             =   8.3301926847449E-05
(PID.TID 0000.0001) %MON exf_vstress_max              =   9.1810378432274E-01
(PID.TID 0000.0001) %MON exf_vstress_min              =  -9.6884948015213E-01
(PID.TID 0000.0001) %MON exf_vstress_mean             =   6.4878148788062E-04
(PID.TID 0000.0001) %MON exf_vstress_sd               =   1.0014277228988E-01
(PID.TID 0000.0001) %MON exf_vstress_del2             =   6.8436375280729E-05
(PID.TID 0000.0001) %MON exf_hflux_max                =   1.1233439669277E+03
(PID.TID 0000.0001) %MON exf_hflux_min                =  -5.5457006257148E+02
(PID.TID 0000.0001) %MON exf_hflux_mean               =   3.6990262927870E+01
(PID.TID 0000.0001) %MON exf_hflux_sd                 =   1.8163209993025E+02
(PID.TID 0000.0001) %MON exf_hflux_del2               =   4.2809872695959E-01
(PID.TID 0000.0001) %MON exf_sflux_max                =   1.8753515850925E-07
(PID.TID 0000.0001) %MON exf_sflux_min                =  -3.1903483297025E-06
(PID.TID 0000.0001) %MON exf_sflux_mean               =  -2.8791391069034E-09
(PID.TID 0000.0001) %MON exf_sflux_sd                 =   8.2360406508765E-08
(PID.TID 0000.0001) %MON exf_sflux_del2               =   2.2741736970945E-10
(PID.TID 0000.0001) %MON exf_wspeed_max               =   2.1747757911682E+01
(PID.TID 0000.0001) %MON exf_wspeed_min               =   4.5171645283699E-01
(PID.TID 0000.0001) %MON exf_wspeed_mean              =   6.9145142769840E+00
(PID.TID 0000.0001) %MON exf_wspeed_sd                =   3.3907369120128E+00
(PID.TID 0000.0001) %MON exf_wspeed_del2              =   1.6878042961943E-02
(PID.TID 0000.0001) %MON exf_atemp_max                =   3.1031335487366E+02
(PID.TID 0000.0001) %MON exf_atemp_min                =   2.2812844123840E+02
(PID.TID 0000.0001) %MON exf_atemp_mean               =   2.8969302668465E+02
(PID.TID 0000.0001) %MON exf_atemp_sd                 =   1.1379368631382E+01
(PID.TID 0000.0001) %MON exf_atemp_del2               =   3.4874076593752E-02
(PID.TID 0000.0001) %MON exf_aqh_max                  =   2.2745097987354E-02
(PID.TID 0000.0001) %MON exf_aqh_min                  =   3.8203865187825E-05
(PID.TID 0000.0001) %MON exf_aqh_mean                 =   1.1070233996496E-02
(PID.TID 0000.0001) %MON exf_aqh_sd                   =   5.7188517777648E-03
(PID.TID 0000.0001) %MON exf_aqh_del2                 =   2.0972141415135E-05
(PID.TID 0000.0001) %MON exf_lwflux_max               =   2.0311101114720E+02
(PID.TID 0000.0001) %MON exf_lwflux_min               =  -4.5552496289892E+01
(PID.TID 0000.0001) %MON exf_lwflux_mean              =   4.4201015707566E+01
(PID.TID 0000.0001) %MON exf_lwflux_sd                =   2.3979114164139E+01
(PID.TID 0000.0001) %MON exf_lwflux_del2              =   1.1259692866722E-01
(PID.TID 0000.0001) %MON exf_evap_max                 =   2.1094469921752E-07
(PID.TID 0000.0001) %MON exf_evap_min                 =  -3.6056526784515E-08
(PID.TID 0000.0001) %MON exf_evap_mean                =   4.0534994838052E-08
(PID.TID 0000.0001) %MON exf_evap_sd                  =   2.7392186075196E-08
(PID.TID 0000.0001) %MON exf_evap_del2                =   8.8612962725333E-11
(PID.TID 0000.0001) %MON exf_precip_max               =   1.1666218675543E-06
(PID.TID 0000.0001) %MON exf_precip_min               =  -2.8915873251378E-08
(PID.TID 0000.0001) %MON exf_precip_mean              =   3.8762863071012E-08
(PID.TID 0000.0001) %MON exf_precip_sd                =   6.4522070156089E-08
(PID.TID 0000.0001) %MON exf_precip_del2              =   1.9790191868686E-10
(PID.TID 0000.0001) %MON exf_swflux_max               =   4.6561129760742E+01
(PID.TID 0000.0001) %MON exf_swflux_min               =  -6.1722453062445E+02
(PID.TID 0000.0001) %MON exf_swflux_mean              =  -1.2904225836271E+02
(PID.TID 0000.0001) %MON exf_swflux_sd                =   1.5171333457640E+02
(PID.TID 0000.0001) %MON exf_swflux_del2              =   3.8439811294452E-01
(PID.TID 0000.0001) %MON exf_swdown_max               =   6.7127566528320E+02
(PID.TID 0000.0001) %MON exf_swdown_min               =  -6.6515899658203E+01
(PID.TID 0000.0001) %MON exf_swdown_mean              =   1.4033617899137E+02
(PID.TID 0000.0001) %MON exf_swdown_sd                =   1.6419588575056E+02
(PID.TID 0000.0001) %MON exf_swdown_del2              =   4.1869782150425E-01
(PID.TID 0000.0001) %MON exf_lwdown_max               =   4.6666184997559E+02
(PID.TID 0000.0001) %MON exf_lwdown_min               =   9.7291194915771E+01
(PID.TID 0000.0001) %MON exf_lwdown_mean              =   3.6620146414850E+02
(PID.TID 0000.0001) %MON exf_lwdown_sd                =   5.9842911143372E+01
(PID.TID 0000.0001) %MON exf_lwdown_del2              =   7.0101515601397E-01
(PID.TID 0000.0001) %MON exf_apressure_max            =   1.0380930078125E+05
(PID.TID 0000.0001) %MON exf_apressure_min            =   9.5583203125000E+04
(PID.TID 0000.0001) %MON exf_apressure_mean           =   1.0108905412279E+05
(PID.TID 0000.0001) %MON exf_apressure_sd             =   1.0670048925677E+03
(PID.TID 0000.0001) %MON exf_apressure_del2           =   2.0691349899492E+02
(PID.TID 0000.0001) %MON exf_runoff_max               =   3.1856565641885E-06
(PID.TID 0000.0001) %MON exf_runoff_min               =   0.0000000000000E+00
(PID.TID 0000.0001) %MON exf_runoff_mean              =   4.6512708739432E-09
(PID.TID 0000.0001) %MON exf_runoff_sd                =   4.0722969529259E-08
(PID.TID 0000.0001) %MON exf_runoff_del2              =   1.1789714852047E-10
(PID.TID 0000.0001) // =======================================================
(PID.TID 0000.0001) // End MONITOR EXF statistics
(PID.TID 0000.0001) // =======================================================
 cg2d: Sum(rhs),rhsMax =  -5.38554295119097E+01  1.31049183490776E+00
(PID.TID 0000.0001)  ploadbar=  1.01089054122795E+05
 cg2d: Sum(rhs),rhsMax =  -5.40530796744893E+01  1.30628356654143E+00
(PID.TID 0000.0001)  ploadbar=  1.01089830150493E+05
 cg2d: Sum(rhs),rhsMax =  -5.42621871531617E+01  1.30182292010565E+00
(PID.TID 0000.0001)  ploadbar=  1.01090606178191E+05
 cg2d: Sum(rhs),rhsMax =  -5.44733086075759E+01  1.29734431409794E+00
(PID.TID 0000.0001)  ploadbar=  1.01091382205890E+05
 cg2d: Sum(rhs),rhsMax =  -5.46607979614618E+01  1.29347965713067E+00
(PID.TID 0000.0001)  ploadbar=  1.01091783353874E+05
 cg2d: Sum(rhs),rhsMax =  -5.48368151893881E+01  1.28992108137113E+00
(PID.TID 0000.0001)  ploadbar=  1.01092184501859E+05
 cg2d: Sum(rhs),rhsMax =  -5.50025966450768E+01  1.28663337944576E+00
(PID.TID 0000.0001)  ploadbar=  1.01092585649844E+05
 cg2d: Sum(rhs),rhsMax =  -5.51518670251158E+01  1.28375449885919E+00
(PID.TID 0000.0001)  ploadbar=  1.01092986797828E+05
 cg2d: Sum(rhs),rhsMax =  -5.52816779116086E+01  1.28134755697622E+00
(PID.TID 0000.0001)  ploadbar=  1.01093387945813E+05
 cg2d: Sum(rhs),rhsMax =  -5.53916139947494E+01  1.27941995028501E+00
(PID.TID 0000.0001)  ploadbar=  1.01093789093798E+05
 cg2d: Sum(rhs),rhsMax =  -5.54935549998565E+01  1.27763761873529E+00
(PID.TID 0000.0001)  ploadbar=  1.01093885995982E+05
 cg2d: Sum(rhs),rhsMax =  -5.55663764497877E+01  1.27647582420700E+00
(PID.TID 0000.0001)  ploadbar=  1.01093982898167E+05
 cg2d: Sum(rhs),rhsMax =  -5.56203173629492E+01  1.27569301048777E+00
(PID.TID 0000.0001)  ploadbar=  1.01094079800352E+05
 cg2d: Sum(rhs),rhsMax =  -5.56584008234736E+01  1.27521696782477E+00
(PID.TID 0000.0001)  ploadbar=  1.01094176702536E+05
 cg2d: Sum(rhs),rhsMax =  -5.56824186551193E+01  1.27500106067492E+00
(PID.TID 0000.0001)  ploadbar=  1.01094273604721E+05
 cg2d: Sum(rhs),rhsMax =  -5.56960280832062E+01  1.27495475200423E+00
(PID.TID 0000.0001)  ploadbar=  1.01094370506905E+05
 cg2d: Sum(rhs),rhsMax =  -5.57176785579273E+01  1.27481956285659E+00
(PID.TID 0000.0001)  ploadbar=  1.01093443163608E+05
 cg2d: Sum(rhs),rhsMax =  -5.57339730671914E+01  1.27490065619641E+00
(PID.TID 0000.0001)  ploadbar=  1.01092515820310E+05
 cg2d: Sum(rhs),rhsMax =  -5.57392724208927E+01  1.27532791189417E+00
(PID.TID 0000.0001)  ploadbar=  1.01091588477012E+05
 cg2d: Sum(rhs),rhsMax =  -5.57461482666828E+01  1.27581206104257E+00
(PID.TID 0000.0001)  ploadbar=  1.01090661133715E+05
 cg2d: Sum(rhs),rhsMax =  -5.57526312813497E+01  1.27639518486844E+00
(PID.TID 0000.0001)  ploadbar=  1.01089733790417E+05
 cg2d: Sum(rhs),rhsMax =  -5.57582788514221E+01  1.27708339021409E+00
(PID.TID 0000.0001)  ploadbar=  1.01088806447119E+05
 cg2d: Sum(rhs),rhsMax =  -5.57658082010711E+01  1.27770689017781E+00
(PID.TID 0000.0001)  ploadbar=  1.01088859504385E+05
 cg2d: Sum(rhs),rhsMax =  -5.57813199773781E+01  1.27812090030950E+00
(PID.TID 0000.0001)  ploadbar=  1.01088912561651E+05
 cg2d: Sum(rhs),rhsMax =  -5.58095729855971E+01  1.27821704603803E+00
(PID.TID 0000.0001)  ploadbar=  1.01088965618917E+05
 cg2d: Sum(rhs),rhsMax =  -5.58677687765593E+01  1.27760302576039E+00
(PID.TID 0000.0001)  ploadbar=  1.01089018676182E+05
 cg2d: Sum(rhs),rhsMax =  -5.59521222938584E+01  1.27636997905345E+00
(PID.TID 0000.0001)  ploadbar=  1.01089071733448E+05
 cg2d: Sum(rhs),rhsMax =  -5.60509886198953E+01  1.27479154846799E+00
(PID.TID 0000.0001)  ploadbar=  1.01089124790714E+05
 cg2d: Sum(rhs),rhsMax =  -5.61594491614439E+01  1.27305361616524E+00
(PID.TID 0000.0001)  ploadbar=  1.01089230459680E+05
 cg2d: Sum(rhs),rhsMax =  -5.62806507669264E+01  1.27107932908021E+00
(PID.TID 0000.0001)  ploadbar=  1.01089336128646E+05
 cg2d: Sum(rhs),rhsMax =  -5.64073139096405E+01  1.26903343079440E+00
(PID.TID 0000.0001)  ploadbar=  1.01089441797612E+05
 cg2d: Sum(rhs),rhsMax =  -5.65372091011384E+01  1.26696814479702E+00
(PID.TID 0000.0001)  ploadbar=  1.01089547466577E+05
 cg2d: Sum(rhs),rhsMax =  -5.66697374682471E+01  1.26489738456537E+00
(PID.TID 0000.0001)  ploadbar=  1.01089653135543E+05
 cg2d: Sum(rhs),rhsMax =  -5.68035270694340E+01  1.26285107636144E+00
(PID.TID 0000.0001)  ploadbar=  1.01089758804509E+05
 cg2d: Sum(rhs),rhsMax =  -5.69265972759771E+01  1.26097890063728E+00
(PID.TID 0000.0001)  ploadbar=  1.01090225424117E+05
 cg2d: Sum(rhs),rhsMax =  -5.70423565492281E+01  1.25920474379638E+00
(PID.TID 0000.0001)  ploadbar=  1.01090692043725E+05
 cg2d: Sum(rhs),rhsMax =  -5.71548340615931E+01  1.25743816838735E+00
(PID.TID 0000.0001)  ploadbar=  1.01091158663333E+05
 cg2d: Sum(rhs),rhsMax =  -5.72643179392062E+01  1.25567254061267E+00
(PID.TID 0000.0001)  ploadbar=  1.01091625282940E+05
 cg2d: Sum(rhs),rhsMax =  -5.73729486911527E+01  1.25385599211486E+00
(PID.TID 0000.0001)  ploadbar=  1.01092091902548E+05
 cg2d: Sum(rhs),rhsMax =  -5.74836180068328E+01  1.25192732148470E+00
(PID.TID 0000.0001)  ploadbar=  1.01092558522156E+05
 cg2d: Sum(rhs),rhsMax =  -5.75997474001204E+01  1.24991026106636E+00
(PID.TID 0000.0001)  ploadbar=  1.01093809264398E+05
 cg2d: Sum(rhs),rhsMax =  -5.77227193749618E+01  1.24777802618151E+00
(PID.TID 0000.0001)  ploadbar=  1.01095060006640E+05
 cg2d: Sum(rhs),rhsMax =  -5.78587066728894E+01  1.24540142547045E+00
(PID.TID 0000.0001)  ploadbar=  1.01096310748882E+05
 cg2d: Sum(rhs),rhsMax =  -5.80023853083310E+01  1.24289827103772E+00
(PID.TID 0000.0001)  ploadbar=  1.01097561491124E+05
 cg2d: Sum(rhs),rhsMax =  -5.81508124415070E+01  1.24033237911507E+00
(PID.TID 0000.0001)  ploadbar=  1.01098812233366E+05
 cg2d: Sum(rhs),rhsMax =  -5.83027849041666E+01  1.23772662172364E+00
(PID.TID 0000.0001)  ploadbar=  1.01100062975608E+05
 cg2d: Sum(rhs),rhsMax =  -5.84593205183004E+01  1.23503359199890E+00
(PID.TID 0000.0001)  ploadbar=  1.01099993154061E+05
 cg2d: Sum(rhs),rhsMax =  -5.86200619881660E+01  1.23225979892760E+00
(PID.TID 0000.0001)  ploadbar=  1.01099923332513E+05
 cg2d: Sum(rhs),rhsMax =  -5.87794466679028E+01  1.22952339298388E+00
(PID.TID 0000.0001)  ploadbar=  1.01099853510966E+05
 cg2d: Sum(rhs),rhsMax =  -5.89422943131335E+01  1.22672319393308E+00
(PID.TID 0000.0001)  ploadbar=  1.01099783689419E+05
 cg2d: Sum(rhs),rhsMax =  -5.91100589471502E+01  1.22383163980843E+00
(PID.TID 0000.0001)  ploadbar=  1.01099713867871E+05
 cg2d: Sum(rhs),rhsMax =  -5.92810418322307E+01  1.22088453475051E+00
(PID.TID 0000.0001)  ploadbar=  1.01099644046324E+05
 cg2d: Sum(rhs),rhsMax =  -5.94604005715705E+01  1.21779031619795E+00
(PID.TID 0000.0001)  ploadbar=  1.01099517381915E+05
 cg2d: Sum(rhs),rhsMax =  -5.96443138270030E+01  1.21462076428510E+00
(PID.TID 0000.0001)  ploadbar=  1.01099390717506E+05
 cg2d: Sum(rhs),rhsMax =  -5.98238184876477E+01  1.21155611456068E+00
(PID.TID 0000.0001)  ploadbar=  1.01099264053097E+05
 cg2d: Sum(rhs),rhsMax =  -5.99973719287149E+01  1.20862701295225E+00
(PID.TID 0000.0001)  ploadbar=  1.01099137388688E+05
 cg2d: Sum(rhs),rhsMax =  -6.01614126444487E+01  1.20589933931743E+00
(PID.TID 0000.0001)  ploadbar=  1.01099010724279E+05
 cg2d: Sum(rhs),rhsMax =  -6.03178004021025E+01  1.20333278483995E+00
(PID.TID 0000.0001)  ploadbar=  1.01098884059870E+05
 cg2d: Sum(rhs),rhsMax =  -6.04648542841155E+01  1.20093327412871E+00
(PID.TID 0000.0001)  ploadbar=  1.01099628686003E+05
 cg2d: Sum(rhs),rhsMax =  -6.06020853759998E+01  1.19870532252483E+00
(PID.TID 0000.0001)  ploadbar=  1.01100373312136E+05
 cg2d: Sum(rhs),rhsMax =  -6.07341528027095E+01  1.19655470656805E+00
(PID.TID 0000.0001)  ploadbar=  1.01101117938269E+05
 cg2d: Sum(rhs),rhsMax =  -6.08606093627395E+01  1.19448946317455E+00
(PID.TID 0000.0001)  ploadbar=  1.01101862564402E+05
 cg2d: Sum(rhs),rhsMax =  -6.09799783482598E+01  1.19253427053538E+00
(PID.TID 0000.0001)  ploadbar=  1.01102607190535E+05
 cg2d: Sum(rhs),rhsMax =  -6.10518206209083E+01  1.19147274532669E+00
(PID.TID 0000.0001)  ploadbar=  1.01103351816669E+05
 cg2d: Sum(rhs),rhsMax =  -6.09307891064529E+01  1.19421092828757E+00
(PID.TID 0000.0001)  ploadbar=  1.01103914504107E+05
 cg2d: Sum(rhs),rhsMax =  -6.08250088360348E+01  1.19668647808938E+00
(PID.TID 0000.0001)  ploadbar=  1.01104477191545E+05
 cg2d: Sum(rhs),rhsMax =  -6.07539199535473E+01  1.19851042157483E+00
(PID.TID 0000.0001)  ploadbar=  1.01105039878984E+05
 cg2d: Sum(rhs),rhsMax =  -6.07259372768679E+01  1.19951203868354E+00
(PID.TID 0000.0001)  ploadbar=  1.01105602566422E+05
 cg2d: Sum(rhs),rhsMax =  -6.07230741837193E+01  1.20004110900610E+00
(PID.TID 0000.0001)  ploadbar=  1.01106165253861E+05
 cg2d: Sum(rhs),rhsMax =  -6.07453572368949E+01  1.20009300684603E+00
(PID.TID 0000.0001)  ploadbar=  1.01106727941299E+05
 cg2d: Sum(rhs),rhsMax =  -6.07370697742156E+01  1.20073923149340E+00
(PID.TID 0000.0001)  ploadbar=  1.01106038296416E+05
 cg2d: Sum(rhs),rhsMax =  -6.07180236275371E+01  1.20158793096625E+00
(PID.TID 0000.0001)  ploadbar=  1.01105348651532E+05
 cg2d: Sum(rhs),rhsMax =  -6.07075380840876E+01  1.20225879054466E+00
(PID.TID 0000.0001)  ploadbar=  1.01104659006648E+05
 cg2d: Sum(rhs),rhsMax =  -6.07285219255268E+01  1.20229780124657E+00
(PID.TID 0000.0001)  ploadbar=  1.01103969361764E+05
 cg2d: Sum(rhs),rhsMax =  -6.09086530380162E+01  1.19918628531586E+00
(PID.TID 0000.0001)  ploadbar=  1.01103279716880E+05
 cg2d: Sum(rhs),rhsMax =  -6.12618899566923E+01  1.19270551702291E+00
(PID.TID 0000.0001)  ploadbar=  1.01102590071997E+05
 cg2d: Sum(rhs),rhsMax =  -6.17743153358864E+01  1.18324791684465E+00
(PID.TID 0000.0001)  ploadbar=  1.01103144254783E+05
 cg2d: Sum(rhs),rhsMax =  -6.24285913584805E+01  1.17127698237679E+00
(PID.TID 0000.0001)  ploadbar=  1.01103698437569E+05
 cg2d: Sum(rhs),rhsMax =  -6.26951103218419E+01  1.16672272257839E+00
(PID.TID 0000.0001)  ploadbar=  1.01104252620356E+05
 cg2d: Sum(rhs),rhsMax =  -6.28105758456419E+01  1.16499933816617E+00
(PID.TID 0000.0001)  ploadbar=  1.01104806803142E+05
 cg2d: Sum(rhs),rhsMax =  -6.29254977400118E+01  1.16328871777465E+00
(PID.TID 0000.0001)  ploadbar=  1.01105360985929E+05
 cg2d: Sum(rhs),rhsMax =  -6.30392029791312E+01  1.16160259781864E+00
(PID.TID 0000.0001)  ploadbar=  1.01105915168715E+05
 cg2d: Sum(rhs),rhsMax =  -6.31492211153020E+01  1.15996613210121E+00
(PID.TID 0000.0001)  ploadbar=  1.01106792428384E+05
 cg2d: Sum(rhs),rhsMax =  -6.32576649940904E+01  1.15833559006076E+00
(PID.TID 0000.0001)  ploadbar=  1.01107669688053E+05
 cg2d: Sum(rhs),rhsMax =  -6.33632086117425E+01  1.15673549717505E+00
(PID.TID 0000.0001)  ploadbar=  1.01108546947722E+05
 cg2d: Sum(rhs),rhsMax =  -6.34642868756574E+01  1.15519510829759E+00
(PID.TID 0000.0001)  ploadbar=  1.01109424207391E+05
 cg2d: Sum(rhs),rhsMax =  -6.35607732225893E+01  1.15371642570255E+00
(PID.TID 0000.0001)  ploadbar=  1.01110301467060E+05
 cg2d: Sum(rhs),rhsMax =  -6.36522579938291E+01  1.15230235653449E+00
(PID.TID 0000.0001)  ploadbar=  1.01111178726729E+05
 cg2d: Sum(rhs),rhsMax =  -6.37404465999433E+01  1.15099855749711E+00
(PID.TID 0000.0001)  ploadbar=  1.01112834359122E+05
 cg2d: Sum(rhs),rhsMax =  -6.38305308386345E+01  1.14970478687724E+00
(PID.TID 0000.0001)  ploadbar=  1.01114489991515E+05
 cg2d: Sum(rhs),rhsMax =  -6.39227059061821E+01  1.14841599173938E+00
(PID.TID 0000.0001)  ploadbar=  1.01116145623908E+05
 cg2d: Sum(rhs),rhsMax =  -6.40169636176876E+01  1.14713237387945E+00
(PID.TID 0000.0001)  ploadbar=  1.01117801256301E+05
 cg2d: Sum(rhs),rhsMax =  -6.41149051579580E+01  1.14582583534436E+00
(PID.TID 0000.0001)  ploadbar=  1.01119456888694E+05
 cg2d: Sum(rhs),rhsMax =  -6.42173696560993E+01  1.14448104504963E+00
(PID.TID 0000.0001)  ploadbar=  1.01121112521087E+05
 cg2d: Sum(rhs),rhsMax =  -6.42218707212351E+01  1.14487271109219E+00
(PID.TID 0000.0001)  ploadbar=  1.01122428013007E+05
 cg2d: Sum(rhs),rhsMax =  -6.42137274272023E+01  1.14548075288278E+00
(PID.TID 0000.0001)  ploadbar=  1.01123743504928E+05
 cg2d: Sum(rhs),rhsMax =  -6.42631842198901E+01  1.14505343317700E+00
(PID.TID 0000.0001)  ploadbar=  1.01125058996848E+05
 cg2d: Sum(rhs),rhsMax =  -6.43736762780430E+01  1.14353296016350E+00
(PID.TID 0000.0001)  ploadbar=  1.01126374488769E+05
 cg2d: Sum(rhs),rhsMax =  -6.45505302466095E+01  1.14083658403524E+00
(PID.TID 0000.0001)  ploadbar=  1.01127689980690E+05
 cg2d: Sum(rhs),rhsMax =  -6.47877699314115E+01  1.13708855641885E+00
(PID.TID 0000.0001)  ploadbar=  1.01129005472610E+05
 cg2d: Sum(rhs),rhsMax =  -6.49379993401692E+01  1.13488486481581E+00
(PID.TID 0000.0001)  ploadbar=  1.01129441914724E+05
 cg2d: Sum(rhs),rhsMax =  -6.50323779145205E+01  1.13365783044373E+00
(PID.TID 0000.0001)  ploadbar=  1.01129878356838E+05
 cg2d: Sum(rhs),rhsMax =  -6.51240331620396E+01  1.13247331052851E+00
(PID.TID 0000.0001)  ploadbar=  1.01130314798952E+05
 cg2d: Sum(rhs),rhsMax =  -6.52160799813436E+01  1.13127806138046E+00
(PID.TID 0000.0001)  ploadbar=  1.01130751241066E+05
 cg2d: Sum(rhs),rhsMax =  -6.53040211709258E+01  1.13014960109565E+00
(PID.TID 0000.0001)  ploadbar=  1.01131187683180E+05
 cg2d: Sum(rhs),rhsMax =  -6.53862199170060E+01  1.12911723644211E+00
(PID.TID 0000.0001)  ploadbar=  1.01131624125294E+05
 cg2d: Sum(rhs),rhsMax =  -6.54747849572612E+01  1.12790832035326E+00
(PID.TID 0000.0001)  ploadbar=  1.01132742994063E+05
 cg2d: Sum(rhs),rhsMax =  -6.55515165873623E+01  1.12683526710105E+00
(PID.TID 0000.0001)  ploadbar=  1.01133861862831E+05
 cg2d: Sum(rhs),rhsMax =  -6.56183382376018E+01  1.12586606087880E+00
(PID.TID 0000.0001)  ploadbar=  1.01134980731600E+05
 cg2d: Sum(rhs),rhsMax =  -6.56798684668673E+01  1.12492139635411E+00
(PID.TID 0000.0001)  ploadbar=  1.01136099600369E+05
 cg2d: Sum(rhs),rhsMax =  -6.57354028805595E+01  1.12401162951463E+00
(PID.TID 0000.0001)  ploadbar=  1.01137218469137E+05
 cg2d: Sum(rhs),rhsMax =  -6.57844390978503E+01  1.12314031862386E+00
(PID.TID 0000.0001)  ploadbar=  1.01138337337906E+05
 cg2d: Sum(rhs),rhsMax =  -6.58270220922660E+01  1.12242764593206E+00
(PID.TID 0000.0001)  ploadbar=  1.01138990439520E+05
 cg2d: Sum(rhs),rhsMax =  -6.58657817675834E+01  1.12182702296754E+00
(PID.TID 0000.0001)  ploadbar=  1.01139643541135E+05
 cg2d: Sum(rhs),rhsMax =  -6.59062430303789E+01  1.12124452864407E+00
(PID.TID 0000.0001)  ploadbar=  1.01140296642749E+05
 cg2d: Sum(rhs),rhsMax =  -6.59497624206660E+01  1.12065759375998E+00
(PID.TID 0000.0001)  ploadbar=  1.01140949744364E+05
 cg2d: Sum(rhs),rhsMax =  -6.54145057775786E+01  1.13002858646594E+00
(PID.TID 0000.0001)  ploadbar=  1.01141602845978E+05
 cg2d: Sum(rhs),rhsMax =  -6.45265588253581E+01  1.14583002252577E+00
(PID.TID 0000.0001)  ploadbar=  1.01142255947592E+05
 cg2d: Sum(rhs),rhsMax =  -6.36027657636451E+01  1.16271520270650E+00
(PID.TID 0000.0001)  ploadbar=  1.01142744952462E+05
 cg2d: Sum(rhs),rhsMax =  -6.26739424126639E+01  1.18017769452351E+00
(PID.TID 0000.0001)  ploadbar=  1.01143233957332E+05
 cg2d: Sum(rhs),rhsMax =  -6.17665163617655E+01  1.19773532721024E+00
(PID.TID 0000.0001)  ploadbar=  1.01143722962201E+05
 cg2d: Sum(rhs),rhsMax =  -6.08621524650954E+01  1.21573726170759E+00
(PID.TID 0000.0001)  ploadbar=  1.01144211967071E+05
 cg2d: Sum(rhs),rhsMax =  -5.99739439248870E+01  1.23393184739421E+00
(PID.TID 0000.0001)  ploadbar=  1.01144700971940E+05
 cg2d: Sum(rhs),rhsMax =  -5.91646430530733E+01  1.25098702974643E+00
(PID.TID 0000.0001)  ploadbar=  1.01145189976810E+05
 cg2d: Sum(rhs),rhsMax =  -5.84350083753312E+01  1.26681671865234E+00
(PID.TID 0000.0001)  ploadbar=  1.01146070302159E+05
 cg2d: Sum(rhs),rhsMax =  -5.78114882822254E+01  1.28071244042203E+00
(PID.TID 0000.0001)  ploadbar=  1.01146950627509E+05
 cg2d: Sum(rhs),rhsMax =  -5.73131324277021E+01  1.29210019879904E+00
(PID.TID 0000.0001)  ploadbar=  1.01147830952858E+05
 cg2d: Sum(rhs),rhsMax =  -5.69415156706421E+01  1.30080236302767E+00
(PID.TID 0000.0001)  ploadbar=  1.01148711278208E+05
 cg2d: Sum(rhs),rhsMax =  -5.66973933089075E+01  1.30668895540985E+00
(PID.TID 0000.0001)  ploadbar=  1.01149591603557E+05
 cg2d: Sum(rhs),rhsMax =  -5.65547397056630E+01  1.31028867465987E+00
(PID.TID 0000.0001)  ploadbar=  1.01150471928906E+05
 cg2d: Sum(rhs),rhsMax =  -5.65163006917671E+01  1.31143178061638E+00
(PID.TID 0000.0001)  ploadbar=  1.01150312956801E+05
 cg2d: Sum(rhs),rhsMax =  -5.65188615680810E+01  1.31157043510936E+00
(PID.TID 0000.0001)  ploadbar=  1.01150153984696E+05
 cg2d: Sum(rhs),rhsMax =  -5.65615780297358E+01  1.31072260208366E+00
(PID.TID 0000.0001)  ploadbar=  1.01149995012590E+05
 cg2d: Sum(rhs),rhsMax =  -5.66363226960758E+01  1.30908076182168E+00
(PID.TID 0000.0001)  ploadbar=  1.01149836040485E+05
 cg2d: Sum(rhs),rhsMax =  -5.67390943773194E+01  1.30674200972755E+00
(PID.TID 0000.0001)  ploadbar=  1.01149677068380E+05
 cg2d: Sum(rhs),rhsMax =  -5.68726604944090E+01  1.30363998136695E+00
(PID.TID 0000.0001)  ploadbar=  1.01149518096274E+05
 cg2d: Sum(rhs),rhsMax =  -5.71542728540761E+01  1.29727430858931E+00
(PID.TID 0000.0001)  ploadbar=  1.01148826412879E+05
 cg2d: Sum(rhs),rhsMax =  -5.74302507154289E+01  1.29118586071872E+00
(PID.TID 0000.0001)  ploadbar=  1.01148134729483E+05
 cg2d: Sum(rhs),rhsMax =  -5.77752712395173E+01  1.28370359951931E+00
(PID.TID 0000.0001)  ploadbar=  1.01147443046088E+05
 cg2d: Sum(rhs),rhsMax =  -5.82434045424708E+01  1.27369359232571E+00
(PID.TID 0000.0001)  ploadbar=  1.01146751362692E+05
 cg2d: Sum(rhs),rhsMax =  -5.76947808481231E+01  1.28619749664951E+00
(PID.TID 0000.0001)  ploadbar=  1.01146059679296E+05
 cg2d: Sum(rhs),rhsMax =  -5.71170459664877E+01  1.29968266428062E+00
(PID.TID 0000.0001)  ploadbar=  1.01145367995901E+05
 cg2d: Sum(rhs),rhsMax =  -5.65787112779044E+01  1.31249047307686E+00
(PID.TID 0000.0001)  ploadbar=  1.01145278734782E+05
 cg2d: Sum(rhs),rhsMax =  -5.60727285201690E+01  1.32473719731559E+00
(PID.TID 0000.0001)  ploadbar=  1.01145189473664E+05
 cg2d: Sum(rhs),rhsMax =  -5.55900407400488E+01  1.33660504988991E+00
(PID.TID 0000.0001)  ploadbar=  1.01145100212546E+05
 cg2d: Sum(rhs),rhsMax =  -5.50996742695987E+01  1.34883039195128E+00
(PID.TID 0000.0001)  ploadbar=  1.01145010951427E+05
 cg2d: Sum(rhs),rhsMax =  -5.47163511967974E+01  1.35857297337341E+00
(PID.TID 0000.0001)  ploadbar=  1.01144921690309E+05
 cg2d: Sum(rhs),rhsMax =  -5.44765687070781E+01  1.36481237286134E+00
(PID.TID 0000.0001)  ploadbar=  1.01144832429190E+05
 cg2d: Sum(rhs),rhsMax =  -5.43403934120586E+01  1.36855208150756E+00
(PID.TID 0000.0001)  ploadbar=  1.01144666659087E+05
 cg2d: Sum(rhs),rhsMax =  -5.42667980961589E+01  1.37077160601602E+00
(PID.TID 0000.0001)  ploadbar=  1.01144500888984E+05
 cg2d: Sum(rhs),rhsMax =  -5.42072589437441E+01  1.37268345295615E+00
(PID.TID 0000.0001)  ploadbar=  1.01144335118881E+05
 cg2d: Sum(rhs),rhsMax =  -5.41619114638532E+01  1.37428481050325E+00
(PID.TID 0000.0001)  ploadbar=  1.01144169348778E+05
 cg2d: Sum(rhs),rhsMax =  -5.41212473638334E+01  1.37581588360873E+00
(PID.TID 0000.0001)  ploadbar=  1.01144003578675E+05
 cg2d: Sum(rhs),rhsMax =  -5.40740618147265E+01  1.37756025442744E+00
(PID.TID 0000.0001)  ploadbar=  1.01143837808572E+05
 cg2d: Sum(rhs),rhsMax =  -5.40193083582177E+01  1.37946090213012E+00
(PID.TID 0000.0001)  ploadbar=  1.01142980129414E+05
 cg2d: Sum(rhs),rhsMax =  -5.39720409841900E+01  1.38113343840068E+00
(PID.TID 0000.0001)  ploadbar=  1.01142122450255E+05
 cg2d: Sum(rhs),rhsMax =  -5.39254308442785E+01  1.38274997914404E+00
(PID.TID 0000.0001)  ploadbar=  1.01141264771097E+05
 cg2d: Sum(rhs),rhsMax =  -5.38899638428903E+01  1.38404201741599E+00
(PID.TID 0000.0001)  ploadbar=  1.01140407091938E+05
 cg2d: Sum(rhs),rhsMax =  -5.38787195521424E+01  1.38466634984259E+00
(PID.TID 0000.0001)  ploadbar=  1.01139549412780E+05
 cg2d: Sum(rhs),rhsMax =  -5.38992484748600E+01  1.38441833982904E+00
(PID.TID 0000.0001)  ploadbar=  1.01138691733622E+05
 cg2d: Sum(rhs),rhsMax =  -5.39203157555095E+01  1.38420798443990E+00
(PID.TID 0000.0001)  ploadbar=  1.01139273009373E+05
 cg2d: Sum(rhs),rhsMax =  -5.39655749574812E+01  1.38342621259839E+00
(PID.TID 0000.0001)  ploadbar=  1.01139854285125E+05
 cg2d: Sum(rhs),rhsMax =  -5.40186532234227E+01  1.38249197055120E+00
(PID.TID 0000.0001)  ploadbar=  1.01140435560877E+05
 cg2d: Sum(rhs),rhsMax =  -5.40753617147188E+01  1.38151149201000E+00
(PID.TID 0000.0001)  ploadbar=  1.01141016836629E+05
 cg2d: Sum(rhs),rhsMax =  -5.39969199963084E+01  1.38403384165597E+00
(PID.TID 0000.0001)  ploadbar=  1.01141598112380E+05
 cg2d: Sum(rhs),rhsMax =  -5.36286469054502E+01  1.39410208274950E+00
(PID.TID 0000.0001)  ploadbar=  1.01142179388132E+05
 cg2d: Sum(rhs),rhsMax =  -5.32967620126106E+01  1.40332601167948E+00
(PID.TID 0000.0001)  ploadbar=  1.01141632540320E+05
 cg2d: Sum(rhs),rhsMax =  -5.30015917206568E+01  1.41166141266971E+00
(PID.TID 0000.0001)  ploadbar=  1.01141085692508E+05
 cg2d: Sum(rhs),rhsMax =  -5.27402374187071E+01  1.41915283937275E+00
(PID.TID 0000.0001)  ploadbar=  1.01140538844696E+05
 cg2d: Sum(rhs),rhsMax =  -5.25116174731258E+01  1.42580481085166E+00
(PID.TID 0000.0001)  ploadbar=  1.01139991996884E+05
 cg2d: Sum(rhs),rhsMax =  -5.23220497932830E+01  1.43142157912141E+00
(PID.TID 0000.0001)  ploadbar=  1.01139445149072E+05
 cg2d: Sum(rhs),rhsMax =  -5.21802432609135E+01  1.43574140707566E+00
(PID.TID 0000.0001)  ploadbar=  1.01138898301261E+05
 cg2d: Sum(rhs),rhsMax =  -5.20378916876561E+01  1.44012050676371E+00
(PID.TID 0000.0001)  ploadbar=  1.01137338028573E+05
 cg2d: Sum(rhs),rhsMax =  -5.19416687263775E+01  1.44325737012165E+00
(PID.TID 0000.0001)  ploadbar=  1.01135777755886E+05
 cg2d: Sum(rhs),rhsMax =  -5.18957999180083E+01  1.44501822880977E+00
(PID.TID 0000.0001)  ploadbar=  1.01134217483198E+05
 cg2d: Sum(rhs),rhsMax =  -5.18797760035754E+01  1.44596587893434E+00
(PID.TID 0000.0001)  ploadbar=  1.01132657210511E+05
 cg2d: Sum(rhs),rhsMax =  -5.19043635540177E+01  1.44580180770384E+00
(PID.TID 0000.0001)  ploadbar=  1.01131096937824E+05
 cg2d: Sum(rhs),rhsMax =  -5.19750743636903E+01  1.44437424503045E+00
(PID.TID 0000.0001)  ploadbar=  1.01129536665136E+05
 cg2d: Sum(rhs),rhsMax =  -5.21121699941123E+01  1.44106082915734E+00
(PID.TID 0000.0001)  ploadbar=  1.01128523156498E+05
 cg2d: Sum(rhs),rhsMax =  -5.22625625686226E+01  1.43734338267112E+00
(PID.TID 0000.0001)  ploadbar=  1.01127509647859E+05
 cg2d: Sum(rhs),rhsMax =  -5.24453450225781E+01  1.43270785625028E+00
(PID.TID 0000.0001)  ploadbar=  1.01126496139220E+05
 cg2d: Sum(rhs),rhsMax =  -5.26386954741426E+01  1.42776341251116E+00
(PID.TID 0000.0001)  ploadbar=  1.01125482630582E+05
 cg2d: Sum(rhs),rhsMax =  -5.28479273654152E+01  1.42236757048470E+00
(PID.TID 0000.0001)  ploadbar=  1.01124469121943E+05
 cg2d: Sum(rhs),rhsMax =  -5.30679606650636E+01  1.41665887768418E+00
(PID.TID 0000.0001)  ploadbar=  1.01123455613305E+05
 cg2d: Sum(rhs),rhsMax =  -5.33565642477770E+01  1.40923710471851E+00
(PID.TID 0000.0001)  ploadbar=  1.01123031552206E+05
 cg2d: Sum(rhs),rhsMax =  -5.36567662793866E+01  1.40164341332787E+00
(PID.TID 0000.0001)  ploadbar=  1.01122607491108E+05
 cg2d: Sum(rhs),rhsMax =  -5.39584243010103E+01  1.39414833117049E+00
(PID.TID 0000.0001)  ploadbar=  1.01122183430009E+05
 cg2d: Sum(rhs),rhsMax =  -5.42500684740824E+01  1.38704532225927E+00
(PID.TID 0000.0001)  ploadbar=  1.01121759368910E+05
 cg2d: Sum(rhs),rhsMax =  -5.44394678901249E+01  1.38266252114085E+00
(PID.TID 0000.0001)  ploadbar=  1.01121335307812E+05
 cg2d: Sum(rhs),rhsMax =  -5.45123079589169E+01  1.38130724632650E+00
(PID.TID 0000.0001)  ploadbar=  1.01120911246713E+05
 cg2d: Sum(rhs),rhsMax =  -5.45946627940957E+01  1.37972858852331E+00
(PID.TID 0000.0001)  ploadbar=  1.01120006456304E+05
 cg2d: Sum(rhs),rhsMax =  -5.46699653147181E+01  1.37834133178438E+00
(PID.TID 0000.0001)  ploadbar=  1.01119101665894E+05
 cg2d: Sum(rhs),rhsMax =  -5.47449389762486E+01  1.37697379637645E+00
(PID.TID 0000.0001)  ploadbar=  1.01118196875485E+05
 cg2d: Sum(rhs),rhsMax =  -5.48158562246317E+01  1.37571846401450E+00
(PID.TID 0000.0001)  ploadbar=  1.01117292085075E+05
 cg2d: Sum(rhs),rhsMax =  -5.48778173620159E+01  1.37469810537294E+00
(PID.TID 0000.0001)  ploadbar=  1.01116387294666E+05
 cg2d: Sum(rhs),rhsMax =  -5.49312184880392E+01  1.37390580339421E+00
(PID.TID 0000.0001)  ploadbar=  1.01115482504256E+05
 cg2d: Sum(rhs),rhsMax =  -5.49203540772575E+01  1.37473410788740E+00
(PID.TID 0000.0001)  ploadbar=  1.01115349068450E+05
 cg2d: Sum(rhs),rhsMax =  -5.49049619579474E+01  1.37568455816123E+00
(PID.TID 0000.0001)  ploadbar=  1.01115215632643E+05
 cg2d: Sum(rhs),rhsMax =  -5.48540550819229E+01  1.37753384601068E+00
(PID.TID 0000.0001)  ploadbar=  1.01115082196837E+05
 cg2d: Sum(rhs),rhsMax =  -5.48106445945665E+01  1.37920415734010E+00
(PID.TID 0000.0001)  ploadbar=  1.01114948761030E+05
 cg2d: Sum(rhs),rhsMax =  -5.47699184116410E+01  1.38081211176853E+00
(PID.TID 0000.0001)  ploadbar=  1.01114815325224E+05
 cg2d: Sum(rhs),rhsMax =  -5.47316957792608E+01  1.38236390121088E+00
(PID.TID 0000.0001)  ploadbar=  1.01114681889417E+05
 cg2d: Sum(rhs),rhsMax =  -5.47318784717412E+01  1.38288090232916E+00
(PID.TID 0000.0001)  ploadbar=  1.01115414858209E+05
 cg2d: Sum(rhs),rhsMax =  -5.47294667022763E+01  1.38339205412436E+00
(PID.TID 0000.0001)  ploadbar=  1.01116147827001E+05
 cg2d: Sum(rhs),rhsMax =  -5.47220478591424E+01  1.38395714205923E+00
(PID.TID 0000.0001)  ploadbar=  1.01116880795793E+05
 cg2d: Sum(rhs),rhsMax =  -5.47146427194628E+01  1.38444960868448E+00
(PID.TID 0000.0001)  ploadbar=  1.01117613764585E+05
 cg2d: Sum(rhs),rhsMax =  -5.47021698466334E+01  1.38499476243013E+00
(PID.TID 0000.0001)  ploadbar=  1.01118346733377E+05
 cg2d: Sum(rhs),rhsMax =  -5.46841248905061E+01  1.38559755607230E+00
(PID.TID 0000.0001)  ploadbar=  1.01119079702169E+05
 cg2d: Sum(rhs),rhsMax =  -5.46857186437043E+01  1.38578822171418E+00
(PID.TID 0000.0001)  ploadbar=  1.01121456037074E+05
 cg2d: Sum(rhs),rhsMax =  -5.46950372840190E+01  1.38586610686937E+00
(PID.TID 0000.0001)  ploadbar=  1.01123832371979E+05
 cg2d: Sum(rhs),rhsMax =  -5.47130565544771E+01  1.38580598743078E+00
(PID.TID 0000.0001)  ploadbar=  1.01126208706885E+05
 cg2d: Sum(rhs),rhsMax =  -5.47397485312018E+01  1.38560723934694E+00
(PID.TID 0000.0001)  ploadbar=  1.01128585041790E+05
 cg2d: Sum(rhs),rhsMax =  -5.47717961378609E+01  1.38535402138291E+00
(PID.TID 0000.0001)  ploadbar=  1.01130961376695E+05
 cg2d: Sum(rhs),rhsMax =  -5.48066145447946E+01  1.38511106637053E+00
(PID.TID 0000.0001)  ploadbar=  1.01133337711600E+05
 cg2d: Sum(rhs),rhsMax =  -5.48544876118551E+01  1.38453294418069E+00
(PID.TID 0000.0001)  ploadbar=  1.01136020827045E+05
 cg2d: Sum(rhs),rhsMax =  -5.48972524675229E+01  1.38407246558038E+00
(PID.TID 0000.0001)  ploadbar=  1.01138703942489E+05
 cg2d: Sum(rhs),rhsMax =  -5.49316295365734E+01  1.38380998623450E+00
(PID.TID 0000.0001)  ploadbar=  1.01141387057933E+05
 cg2d: Sum(rhs),rhsMax =  -5.49660444187625E+01  1.38353510566378E+00
(PID.TID 0000.0001)  ploadbar=  1.01144070173378E+05
 cg2d: Sum(rhs),rhsMax =  -5.50088952720926E+01  1.38304334050205E+00
(PID.TID 0000.0001)  ploadbar=  1.01146753288822E+05
 cg2d: Sum(rhs),rhsMax =  -5.50635906665101E+01  1.38226164736018E+00
(PID.TID 0000.0001)  ploadbar=  1.01149436404267E+05
 cg2d: Sum(rhs),rhsMax =  -5.51233282601956E+01  1.38136290250689E+00
(PID.TID 0000.0001)  ploadbar=  1.01151700027060E+05
 cg2d: Sum(rhs),rhsMax =  -5.51896467015882E+01  1.38029716117414E+00
(PID.TID 0000.0001)  ploadbar=  1.01153963649853E+05
 cg2d: Sum(rhs),rhsMax =  -5.52611973719129E+01  1.37909684173745E+00
(PID.TID 0000.0001)  ploadbar=  1.01156227272646E+05
 cg2d: Sum(rhs),rhsMax =  -5.53412296247637E+01  1.37768187494242E+00
(PID.TID 0000.0001)  ploadbar=  1.01158490895440E+05
 cg2d: Sum(rhs),rhsMax =  -5.54283294084410E+01  1.37608833331589E+00
(PID.TID 0000.0001)  ploadbar=  1.01160754518233E+05
 cg2d: Sum(rhs),rhsMax =  -5.55195853947845E+01  1.37439082783100E+00
(PID.TID 0000.0001)  ploadbar=  1.01163018141026E+05
 cg2d: Sum(rhs),rhsMax =  -5.56353949796223E+01  1.37203282727756E+00
(PID.TID 0000.0001)  ploadbar=  1.01164271766714E+05
 cg2d: Sum(rhs),rhsMax =  -5.57586462224173E+01  1.36943906384124E+00
(PID.TID 0000.0001)  ploadbar=  1.01165525392401E+05
 cg2d: Sum(rhs),rhsMax =  -5.58686579428441E+01  1.36711900438628E+00
(PID.TID 0000.0001)  ploadbar=  1.01166779018089E+05
 cg2d: Sum(rhs),rhsMax =  -5.59602671342777E+01  1.36519514248022E+00
(PID.TID 0000.0001)  ploadbar=  1.01168032643776E+05
 cg2d: Sum(rhs),rhsMax =  -5.60329065777608E+01  1.36367176419245E+00
(PID.TID 0000.0001)  ploadbar=  1.01169286269464E+05
 cg2d: Sum(rhs),rhsMax =  -5.60839728466831E+01  1.36260324569910E+00
(PID.TID 0000.0001)  ploadbar=  1.01170539895152E+05
 cg2d: Sum(rhs),rhsMax =  -5.62202569501224E+01  1.35952324423429E+00
(PID.TID 0000.0001)  ploadbar=  1.01170886560771E+05
 cg2d: Sum(rhs),rhsMax =  -5.63811022889605E+01  1.35591662366060E+00
(PID.TID 0000.0001)  ploadbar=  1.01171233226391E+05
 cg2d: Sum(rhs),rhsMax =  -5.65571536999021E+01  1.35201561946365E+00
(PID.TID 0000.0001)  ploadbar=  1.01171579892010E+05
 cg2d: Sum(rhs),rhsMax =  -5.67367266493914E+01  1.34810174287150E+00
(PID.TID 0000.0001)  ploadbar=  1.01171926557630E+05
 cg2d: Sum(rhs),rhsMax =  -5.69194556964309E+01  1.34418303253121E+00
(PID.TID 0000.0001)  ploadbar=  1.01172273223250E+05
 cg2d: Sum(rhs),rhsMax =  -5.71224048618554E+01  1.33985730004175E+00
(PID.TID 0000.0001)  ploadbar=  1.01172619888869E+05
 cg2d: Sum(rhs),rhsMax =  -5.73689334742115E+01  1.33452099751726E+00
(PID.TID 0000.0001)  ploadbar=  1.01172951574043E+05
 cg2d: Sum(rhs),rhsMax =  -5.76888858337665E+01  1.32750795511776E+00
(PID.TID 0000.0001)  ploadbar=  1.01173283259217E+05
 cg2d: Sum(rhs),rhsMax =  -5.80573255755522E+01  1.31943909105208E+00
(PID.TID 0000.0001)  ploadbar=  1.01173614944391E+05
 cg2d: Sum(rhs),rhsMax =  -5.84751598780875E+01  1.31033574136055E+00
(PID.TID 0000.0001)  ploadbar=  1.01173946629565E+05
 cg2d: Sum(rhs),rhsMax =  -5.89620836649583E+01  1.29981003956822E+00
(PID.TID 0000.0001)  ploadbar=  1.01174278314738E+05
 cg2d: Sum(rhs),rhsMax =  -5.95480222720337E+01  1.28728778625122E+00
(PID.TID 0000.0001)  ploadbar=  1.01174609999912E+05
 cg2d: Sum(rhs),rhsMax =  -6.01636384355498E+01  1.27443720669690E+00
(PID.TID 0000.0001)  ploadbar=  1.01173873106345E+05
 cg2d: Sum(rhs),rhsMax =  -6.17418417683970E+01  1.24222131578266E+00
(PID.TID 0000.0001)  ploadbar=  1.01173136212778E+05
 cg2d: Sum(rhs),rhsMax =  -6.35565794111872E+01  1.20714724756981E+00
(PID.TID 0000.0001)  ploadbar=  1.01172399319211E+05
 cg2d: Sum(rhs),rhsMax =  -6.38529999885633E+01  1.20198389867527E+00
(PID.TID 0000.0001)  ploadbar=  1.01171662425644E+05
 cg2d: Sum(rhs),rhsMax =  -6.36986873116379E+01  1.20538320242161E+00
(PID.TID 0000.0001)  ploadbar=  1.01170925532077E+05
 cg2d: Sum(rhs),rhsMax =  -6.35546328637003E+01  1.20865072963857E+00
(PID.TID 0000.0001)  ploadbar=  1.01170188638510E+05
 cg2d: Sum(rhs),rhsMax =  -6.34142713722672E+01  1.21179535217562E+00
(PID.TID 0000.0001)  ploadbar=  1.01169965996292E+05
 cg2d: Sum(rhs),rhsMax =  -6.33229332466466E+01  1.21393888331797E+00
(PID.TID 0000.0001)  ploadbar=  1.01169743354074E+05
 cg2d: Sum(rhs),rhsMax =  -6.32642892715878E+01  1.21538513546584E+00
(PID.TID 0000.0001)  ploadbar=  1.01169520711857E+05
 cg2d: Sum(rhs),rhsMax =  -6.32366289231237E+01  1.21616559879124E+00
(PID.TID 0000.0001)  ploadbar=  1.01169298069639E+05
 cg2d: Sum(rhs),rhsMax =  -6.32231814846353E+01  1.21659486215015E+00
(PID.TID 0000.0001)  ploadbar=  1.01169075427421E+05
 cg2d: Sum(rhs),rhsMax =  -6.32039536472197E+01  1.21705268015877E+00
(PID.TID 0000.0001)  ploadbar=  1.01168852785203E+05
 cg2d: Sum(rhs),rhsMax =  -6.31482822262010E+01  1.21825008913737E+00
(PID.TID 0000.0001)  ploadbar=  1.01169387030025E+05
 cg2d: Sum(rhs),rhsMax =  -6.30135836516225E+01  1.22101458857611E+00
(PID.TID 0000.0001)  ploadbar=  1.01169921274847E+05
 cg2d: Sum(rhs),rhsMax =  -6.27931880111140E+01  1.22549659628053E+00
(PID.TID 0000.0001)  ploadbar=  1.01170455519669E+05
 cg2d: Sum(rhs),rhsMax =  -6.24890770214504E+01  1.23169300794779E+00
(PID.TID 0000.0001)  ploadbar=  1.01170989764491E+05
 cg2d: Sum(rhs),rhsMax =  -6.21322204654254E+01  1.23903481524768E+00
(PID.TID 0000.0001)  ploadbar=  1.01171524009313E+05
 cg2d: Sum(rhs),rhsMax =  -6.17982489456948E+01  1.24603549594060E+00
(PID.TID 0000.0001)  ploadbar=  1.01172058254135E+05
 cg2d: Sum(rhs),rhsMax =  -6.15537136309177E+01  1.25127554265811E+00
(PID.TID 0000.0001)  ploadbar=  1.01171796891589E+05
 cg2d: Sum(rhs),rhsMax =  -6.13511628479543E+01  1.25567969046696E+00
(PID.TID 0000.0001)  ploadbar=  1.01171535529044E+05
 cg2d: Sum(rhs),rhsMax =  -6.12179497518702E+01  1.25867086364033E+00
(PID.TID 0000.0001)  ploadbar=  1.01171274166498E+05
 cg2d: Sum(rhs),rhsMax =  -6.11802781191356E+01  1.25969134225115E+00
(PID.TID 0000.0001)  ploadbar=  1.01171012803952E+05
 cg2d: Sum(rhs),rhsMax =  -6.12441403549367E+01  1.25861219429898E+00
(PID.TID 0000.0001)  ploadbar=  1.01170751441406E+05
 cg2d: Sum(rhs),rhsMax =  -6.14098370129447E+01  1.25544768061870E+00
(PID.TID 0000.0001)  ploadbar=  1.01170490078860E+05
 cg2d: Sum(rhs),rhsMax =  -6.16994993776867E+01  1.24982772648613E+00
(PID.TID 0000.0001)  ploadbar=  1.01170199969621E+05
 cg2d: Sum(rhs),rhsMax =  -6.20508476190384E+01  1.24305895045930E+00
(PID.TID 0000.0001)  ploadbar=  1.01169909860381E+05
 cg2d: Sum(rhs),rhsMax =  -6.24668593024843E+01  1.23512265426112E+00
(PID.TID 0000.0001)  ploadbar=  1.01169619751141E+05
 cg2d: Sum(rhs),rhsMax =  -6.29271766646692E+01  1.22646634901880E+00
(PID.TID 0000.0001)  ploadbar=  1.01169329641902E+05
 cg2d: Sum(rhs),rhsMax =  -6.34309137461879E+01  1.21714225303254E+00
(PID.TID 0000.0001)  ploadbar=  1.01169039532662E+05
 cg2d: Sum(rhs),rhsMax =  -6.39624694767172E+01  1.20748135161910E+00
(PID.TID 0000.0001)  ploadbar=  1.01168749423423E+05
 cg2d: Sum(rhs),rhsMax =  -6.45966040451164E+01  1.19603972132415E+00
(PID.TID 0000.0001)  ploadbar=  1.01168403221914E+05
 cg2d: Sum(rhs),rhsMax =  -6.52083692513876E+01  1.18518530569440E+00
(PID.TID 0000.0001)  ploadbar=  1.01168057020405E+05
 cg2d: Sum(rhs),rhsMax =  -6.57690735991284E+01  1.17540544765640E+00
(PID.TID 0000.0001)  ploadbar=  1.01167710818896E+05
 cg2d: Sum(rhs),rhsMax =  -6.62402272931634E+01  1.16733301951155E+00
(PID.TID 0000.0001)  ploadbar=  1.01167364617388E+05
 cg2d: Sum(rhs),rhsMax =  -6.65930258717439E+01  1.16140194712863E+00
(PID.TID 0000.0001)  ploadbar=  1.01167018415879E+05
 cg2d: Sum(rhs),rhsMax =  -6.68050390428266E+01  1.15793196438882E+00
(PID.TID 0000.0001)  ploadbar=  1.01166672214370E+05
 cg2d: Sum(rhs),rhsMax =  -6.68869482624396E+01  1.15678246198162E+00
(PID.TID 0000.0001)  ploadbar=  1.01166412029815E+05
 cg2d: Sum(rhs),rhsMax =  -6.69358927916183E+01  1.15625553848018E+00
(PID.TID 0000.0001)  ploadbar=  1.01166151845261E+05
 cg2d: Sum(rhs),rhsMax =  -6.70212995075154E+01  1.15515240099793E+00
(PID.TID 0000.0001)  ploadbar=  1.01165891660706E+05
 cg2d: Sum(rhs),rhsMax =  -6.73002070556929E+01  1.15078485796303E+00
(PID.TID 0000.0001)  ploadbar=  1.01165631476152E+05
 cg2d: Sum(rhs),rhsMax =  -6.79534783987293E+01  1.14018800783843E+00
(PID.TID 0000.0001)  ploadbar=  1.01165371291597E+05
 cg2d: Sum(rhs),rhsMax =  -6.86588248354974E+01  1.12898561052910E+00
(PID.TID 0000.0001)  ploadbar=  1.01165111107043E+05
 cg2d: Sum(rhs),rhsMax =  -6.90693704801220E+01  1.12278812953587E+00
(PID.TID 0000.0001)  ploadbar=  1.01165252991953E+05
 cg2d: Sum(rhs),rhsMax =  -6.90042891171547E+01  1.12436308072904E+00
(PID.TID 0000.0001)  ploadbar=  1.01165394876864E+05
 cg2d: Sum(rhs),rhsMax =  -6.82435901075476E+01  1.13742177949083E+00
(PID.TID 0000.0001)  ploadbar=  1.01165536761774E+05
 cg2d: Sum(rhs),rhsMax =  -6.70076667801650E+01  1.15894326226460E+00
(PID.TID 0000.0001)  ploadbar=  1.01165678646685E+05
 cg2d: Sum(rhs),rhsMax =  -6.54697272601987E+01  1.18673373523472E+00
(PID.TID 0000.0001)  ploadbar=  1.01165820531595E+05
 cg2d: Sum(rhs),rhsMax =  -6.37832470748336E+01  1.21870442718357E+00
(PID.TID 0000.0001)  ploadbar=  1.01165962416505E+05
 cg2d: Sum(rhs),rhsMax =  -6.20391810443542E+01  1.25359145394562E+00
(PID.TID 0000.0001)  ploadbar=  1.01165139519651E+05
 cg2d: Sum(rhs),rhsMax =  -6.04595449623905E+01  1.28699926998797E+00
(PID.TID 0000.0001)  ploadbar=  1.01164316622796E+05
 cg2d: Sum(rhs),rhsMax =  -5.90929545149506E+01  1.31744484288598E+00
(PID.TID 0000.0001)  ploadbar=  1.01163493725942E+05
 cg2d: Sum(rhs),rhsMax =  -5.79897616778160E+01  1.34321656331289E+00
(PID.TID 0000.0001)  ploadbar=  1.01162670829088E+05
 cg2d: Sum(rhs),rhsMax =  -5.72248863708791E+01  1.36190121951335E+00
(PID.TID 0000.0001)  ploadbar=  1.01161847932233E+05
 cg2d: Sum(rhs),rhsMax =  -5.68380188319113E+01  1.37192342601525E+00
(PID.TID 0000.0001)  ploadbar=  1.01161025035379E+05
 cg2d: Sum(rhs),rhsMax =  -5.65604388666984E+01  1.37931658378019E+00
(PID.TID 0000.0001)  ploadbar=  1.01159815421633E+05
 cg2d: Sum(rhs),rhsMax =  -5.66238385387808E+01  1.37833382874214E+00
(PID.TID 0000.0001)  ploadbar=  1.01158605807888E+05
 cg2d: Sum(rhs),rhsMax =  -5.70606234676211E+01  1.36824616045980E+00
(PID.TID 0000.0001)  ploadbar=  1.01157396194143E+05
 cg2d: Sum(rhs),rhsMax =  -5.77908905410700E+01  1.35132507750211E+00
(PID.TID 0000.0001)  ploadbar=  1.01156186580398E+05
 cg2d: Sum(rhs),rhsMax =  -5.87766781230564E+01  1.32893879335112E+00
(PID.TID 0000.0001)  ploadbar=  1.01154976966653E+05
 cg2d: Sum(rhs),rhsMax =  -6.00037549706481E+01  1.30194772227665E+00
(PID.TID 0000.0001)  ploadbar=  1.01153767352908E+05
 cg2d: Sum(rhs),rhsMax =  -6.12950241800627E+01  1.27478493699381E+00
(PID.TID 0000.0001)  ploadbar=  1.01152669937715E+05
 cg2d: Sum(rhs),rhsMax =  -6.22662624708274E+01  1.25524001226644E+00
(PID.TID 0000.0001)  ploadbar=  1.01151572522522E+05
 cg2d: Sum(rhs),rhsMax =  -6.28801545914318E+01  1.24339890926058E+00
(PID.TID 0000.0001)  ploadbar=  1.01150475107329E+05
 cg2d: Sum(rhs),rhsMax =  -6.32086649630715E+01  1.23742814599767E+00
(PID.TID 0000.0001)  ploadbar=  1.01149377692136E+05
 cg2d: Sum(rhs),rhsMax =  -6.34062008043203E+01  1.23414508446250E+00
(PID.TID 0000.0001)  ploadbar=  1.01148280276944E+05
 cg2d: Sum(rhs),rhsMax =  -6.35934118021594E+01  1.23116315361624E+00
(PID.TID 0000.0001)  ploadbar=  1.01147182861751E+05
 cg2d: Sum(rhs),rhsMax =  -6.39962952270616E+01  1.22405163064710E+00
(PID.TID 0000.0001)  ploadbar=  1.01146502013109E+05
 cg2d: Sum(rhs),rhsMax =  -6.44650101804781E+01  1.21577771375615E+00
(PID.TID 0000.0001)  ploadbar=  1.01145821164466E+05
 cg2d: Sum(rhs),rhsMax =  -6.49501454617709E+01  1.20731082301932E+00
(PID.TID 0000.0001)  ploadbar=  1.01145140315824E+05
 cg2d: Sum(rhs),rhsMax =  -6.54122409273298E+01  1.19938684476209E+00
(PID.TID 0000.0001)  ploadbar=  1.01144459467182E+05
 cg2d: Sum(rhs),rhsMax =  -6.56331005522953E+01  1.19595690239184E+00
(PID.TID 0000.0001)  ploadbar=  1.01143778618539E+05
 cg2d: Sum(rhs),rhsMax =  -6.54847501906019E+01  1.19928121132656E+00
(PID.TID 0000.0001)  ploadbar=  1.01143097769897E+05
 cg2d: Sum(rhs),rhsMax =  -6.54010906614149E+01  1.20143127994506E+00
(PID.TID 0000.0001)  ploadbar=  1.01142112627958E+05
 cg2d: Sum(rhs),rhsMax =  -6.53775459405458E+01  1.20247005519109E+00
(PID.TID 0000.0001)  ploadbar=  1.01141127486018E+05
 cg2d: Sum(rhs),rhsMax =  -6.54187555610482E+01  1.20230773779566E+00
(PID.TID 0000.0001)  ploadbar=  1.01140142344079E+05
 cg2d: Sum(rhs),rhsMax =  -6.55171273137145E+01  1.20108754828727E+00
(PID.TID 0000.0001)  ploadbar=  1.01139157202140E+05
 cg2d: Sum(rhs),rhsMax =  -6.56689958075332E+01  1.19888614904914E+00
(PID.TID 0000.0001)  ploadbar=  1.01138172060200E+05
 cg2d: Sum(rhs),rhsMax =  -6.58672477744781E+01  1.19584588967983E+00
(PID.TID 0000.0001)  ploadbar=  1.01137186918261E+05
 cg2d: Sum(rhs),rhsMax =  -6.60675265595751E+01  1.19271436904426E+00
(PID.TID 0000.0001)  ploadbar=  1.01135858037308E+05
 cg2d: Sum(rhs),rhsMax =  -6.62498125251202E+01  1.18984850087563E+00
(PID.TID 0000.0001)  ploadbar=  1.01134529156354E+05
 cg2d: Sum(rhs),rhsMax =  -6.62389542493115E+01  1.19038451600984E+00
(PID.TID 0000.0001)  ploadbar=  1.01133200275401E+05
 cg2d: Sum(rhs),rhsMax =  -6.61717864383838E+01  1.19186300983649E+00
(PID.TID 0000.0001)  ploadbar=  1.01131871394447E+05
 cg2d: Sum(rhs),rhsMax =  -6.60796393944683E+01  1.19372778139744E+00
(PID.TID 0000.0001)  ploadbar=  1.01130542513494E+05
 cg2d: Sum(rhs),rhsMax =  -6.59664841476619E+01  1.19590775414233E+00
(PID.TID 0000.0001)  ploadbar=  1.01129213632540E+05
 cg2d: Sum(rhs),rhsMax =  -6.57886030871133E+01  1.19932180078624E+00
(PID.TID 0000.0001)  ploadbar=  1.01129978402546E+05
 cg2d: Sum(rhs),rhsMax =  -6.55995208055687E+01  1.20300770858741E+00
(PID.TID 0000.0001)  ploadbar=  1.01130743172552E+05
 cg2d: Sum(rhs),rhsMax =  -6.53720286590240E+01  1.20747293657792E+00
(PID.TID 0000.0001)  ploadbar=  1.01131507942559E+05
 cg2d: Sum(rhs),rhsMax =  -6.51279890418690E+01  1.21232739110268E+00
(PID.TID 0000.0001)  ploadbar=  1.01132272712565E+05
 cg2d: Sum(rhs),rhsMax =  -6.49243931756169E+01  1.21651038826857E+00
(PID.TID 0000.0001)  ploadbar=  1.01133037482571E+05
 cg2d: Sum(rhs),rhsMax =  -6.47680448428102E+01  1.21987816465373E+00
(PID.TID 0000.0001)  ploadbar=  1.01133802252577E+05
 cg2d: Sum(rhs),rhsMax =  -6.46190044798258E+01  1.22311060910794E+00
(PID.TID 0000.0001)  ploadbar=  1.01132484449642E+05
 cg2d: Sum(rhs),rhsMax =  -6.44753096708787E+01  1.22624283689577E+00
(PID.TID 0000.0001)  ploadbar=  1.01131166646707E+05
 cg2d: Sum(rhs),rhsMax =  -6.43716448271549E+01  1.22861710185110E+00
(PID.TID 0000.0001)  ploadbar=  1.01129848843772E+05
 cg2d: Sum(rhs),rhsMax =  -6.43001585325535E+01  1.23037770582166E+00
(PID.TID 0000.0001)  ploadbar=  1.01128531040837E+05
 cg2d: Sum(rhs),rhsMax =  -6.42572550801311E+01  1.23159537917721E+00
(PID.TID 0000.0001)  ploadbar=  1.01127213237903E+05
 cg2d: Sum(rhs),rhsMax =  -6.42122317670835E+01  1.23286217951748E+00
(PID.TID 0000.0001)  ploadbar=  1.01125895434968E+05
 cg2d: Sum(rhs),rhsMax =  -6.40843339142125E+01  1.23572659918373E+00
(PID.TID 0000.0001)  ploadbar=  1.01124829209727E+05
 cg2d: Sum(rhs),rhsMax =  -6.39571701485543E+01  1.23857908023573E+00
(PID.TID 0000.0001)  ploadbar=  1.01123762984485E+05
 cg2d: Sum(rhs),rhsMax =  -6.38331302980210E+01  1.24137089859894E+00
(PID.TID 0000.0001)  ploadbar=  1.01122696759244E+05
 cg2d: Sum(rhs),rhsMax =  -6.37158941194855E+01  1.24402678711041E+00
(PID.TID 0000.0001)  ploadbar=  1.01121630534003E+05
 cg2d: Sum(rhs),rhsMax =  -6.36071206442911E+01  1.24651150062572E+00
(PID.TID 0000.0001)  ploadbar=  1.01120564308762E+05
 cg2d: Sum(rhs),rhsMax =  -6.35071508418479E+01  1.24881523905447E+00
(PID.TID 0000.0001)  ploadbar=  1.01119498083521E+05
 cg2d: Sum(rhs),rhsMax =  -6.34162861292231E+01  1.25090657775685E+00
(PID.TID 0000.0001)  ploadbar=  1.01118239131688E+05
 cg2d: Sum(rhs),rhsMax =  -6.33122261648982E+01  1.25322444566065E+00
(PID.TID 0000.0001)  ploadbar=  1.01116980179855E+05
 cg2d: Sum(rhs),rhsMax =  -6.31950294761484E+01  1.25577315653638E+00
(PID.TID 0000.0001)  ploadbar=  1.01115721228022E+05
 cg2d: Sum(rhs),rhsMax =  -6.30764566687065E+01  1.25832317762832E+00
(PID.TID 0000.0001)  ploadbar=  1.01114462276189E+05
 cg2d: Sum(rhs),rhsMax =  -6.29520540535344E+01  1.26096543908287E+00
(PID.TID 0000.0001)  ploadbar=  1.01113203324357E+05
 cg2d: Sum(rhs),rhsMax =  -6.28179574088565E+01  1.26377386166539E+00
(PID.TID 0000.0001)  ploadbar=  1.01111944372524E+05
 cg2d: Sum(rhs),rhsMax =  -6.26597375737995E+01  1.26713585227995E+00
(PID.TID 0000.0001)  ploadbar=  1.01111167582509E+05
 cg2d: Sum(rhs),rhsMax =  -6.25017261636983E+01  1.27056159690381E+00
(PID.TID 0000.0001)  ploadbar=  1.01110390792494E+05
 cg2d: Sum(rhs),rhsMax =  -6.23511464384004E+01  1.27390165505001E+00
(PID.TID 0000.0001)  ploadbar=  1.01109614002479E+05
 cg2d: Sum(rhs),rhsMax =  -6.22106881979696E+01  1.27709946649409E+00
(PID.TID 0000.0001)  ploadbar=  1.01108837212465E+05
 cg2d: Sum(rhs),rhsMax =  -6.20817101098506E+01  1.28012442629989E+00
(PID.TID 0000.0001)  ploadbar=  1.01108060422450E+05
 cg2d: Sum(rhs),rhsMax =  -6.19643886009728E+01  1.28297013755638E+00
(PID.TID 0000.0001)  ploadbar=  1.01107283632435E+05
 cg2d: Sum(rhs),rhsMax =  -6.18942026797584E+01  1.28483059182998E+00
(PID.TID 0000.0001)  ploadbar=  1.01106215628180E+05
 cg2d: Sum(rhs),rhsMax =  -6.18304386326951E+01  1.28654522503651E+00
(PID.TID 0000.0001)  ploadbar=  1.01105147623925E+05
 cg2d: Sum(rhs),rhsMax =  -6.17720526623086E+01  1.28813646873254E+00
(PID.TID 0000.0001)  ploadbar=  1.01104079619670E+05
 cg2d: Sum(rhs),rhsMax =  -6.17194493614892E+01  1.28959925461957E+00
(PID.TID 0000.0001)  ploadbar=  1.01103011615415E+05
 cg2d: Sum(rhs),rhsMax =  -6.16711750560639E+01  1.29096864548217E+00
(PID.TID 0000.0001)  ploadbar=  1.01101943611160E+05
 cg2d: Sum(rhs),rhsMax =  -6.16254900562799E+01  1.29228072234174E+00
(PID.TID 0000.0001)  ploadbar=  1.01100875606905E+05
 cg2d: Sum(rhs),rhsMax =  -6.15626049537336E+01  1.29397846202039E+00
(PID.TID 0000.0001)  ploadbar=  1.01101916688943E+05
 cg2d: Sum(rhs),rhsMax =  -6.14926429425050E+01  1.29584478782378E+00
(PID.TID 0000.0001)  ploadbar=  1.01102957770981E+05
 cg2d: Sum(rhs),rhsMax =  -6.14138996444142E+01  1.29792034740236E+00
(PID.TID 0000.0001)  ploadbar=  1.01103998853019E+05
 cg2d: Sum(rhs),rhsMax =  -6.13187255919126E+01  1.30036967807789E+00
(PID.TID 0000.0001)  ploadbar=  1.01105039935057E+05
 cg2d: Sum(rhs),rhsMax =  -6.11997057066896E+01  1.30335439606241E+00
(PID.TID 0000.0001)  ploadbar=  1.01106081017095E+05
 cg2d: Sum(rhs),rhsMax =  -6.10499830531922E+01  1.30702760768159E+00
(PID.TID 0000.0001)  ploadbar=  1.01107122099133E+05
 cg2d: Sum(rhs),rhsMax =  -6.08696363887082E+01  1.31131398403985E+00
(PID.TID 0000.0001)  ploadbar=  1.01107155440714E+05
 cg2d: Sum(rhs),rhsMax =  -6.06630065637049E+01  1.31612628666033E+00
(PID.TID 0000.0001)  ploadbar=  1.01107188782296E+05
 cg2d: Sum(rhs),rhsMax =  -6.04338475605821E+01  1.32139546366907E+00
(PID.TID 0000.0001)  ploadbar=  1.01107222123877E+05
 cg2d: Sum(rhs),rhsMax =  -6.01956671240519E+01  1.32683792124982E+00
(PID.TID 0000.0001)  ploadbar=  1.01107255465458E+05
 cg2d: Sum(rhs),rhsMax =  -5.99666244570457E+01  1.33205895241501E+00
(PID.TID 0000.0001)  ploadbar=  1.01107288807040E+05
 cg2d: Sum(rhs),rhsMax =  -5.97628495941603E+01  1.33668949584159E+00
(PID.TID 0000.0001)  ploadbar=  1.01107322148621E+05
 cg2d: Sum(rhs),rhsMax =  -5.95289869707594E+01  1.34208212773303E+00
(PID.TID 0000.0001)  ploadbar=  1.01106796604661E+05
 cg2d: Sum(rhs),rhsMax =  -5.93063667020054E+01  1.34731245183374E+00
(PID.TID 0000.0001)  ploadbar=  1.01106271060700E+05
 cg2d: Sum(rhs),rhsMax =  -5.90981561719667E+01  1.35230203777227E+00
(PID.TID 0000.0001)  ploadbar=  1.01105745516740E+05
 cg2d: Sum(rhs),rhsMax =  -5.89059681934293E+01  1.35700885324515E+00
(PID.TID 0000.0001)  ploadbar=  1.01105219972780E+05
 cg2d: Sum(rhs),rhsMax =  -5.87278092612012E+01  1.36147606883011E+00
(PID.TID 0000.0001)  ploadbar=  1.01104694428819E+05
 cg2d: Sum(rhs),rhsMax =  -5.86307096943566E+01  1.36413991252658E+00
(PID.TID 0000.0001)  ploadbar=  1.01104168884859E+05
 cg2d: Sum(rhs),rhsMax =  -5.92452389232883E+01  1.35038770421356E+00
(PID.TID 0000.0001)  ploadbar=  1.01104900793006E+05
 cg2d: Sum(rhs),rhsMax =  -5.99224980829061E+01  1.33551358251114E+00
(PID.TID 0000.0001)  ploadbar=  1.01105632701153E+05
 cg2d: Sum(rhs),rhsMax =  -6.06610230983671E+01  1.31963703973421E+00
(PID.TID 0000.0001)  ploadbar=  1.01106364609300E+05
 cg2d: Sum(rhs),rhsMax =  -6.14645708349180E+01  1.30276756531189E+00
(PID.TID 0000.0001)  ploadbar=  1.01107096517447E+05
 cg2d: Sum(rhs),rhsMax =  -6.23306230279611E+01  1.28505406734164E+00
(PID.TID 0000.0001)  ploadbar=  1.01107828425594E+05
 cg2d: Sum(rhs),rhsMax =  -6.32646084800560E+01  1.26647641484978E+00
(PID.TID 0000.0001)  ploadbar=  1.01108560333741E+05
 cg2d: Sum(rhs),rhsMax =  -6.42392348081895E+01  1.24767850137153E+00
(PID.TID 0000.0001)  ploadbar=  1.01109126972413E+05
 cg2d: Sum(rhs),rhsMax =  -6.52136074353247E+01  1.22947093758488E+00
(PID.TID 0000.0001)  ploadbar=  1.01109693611086E+05
 cg2d: Sum(rhs),rhsMax =  -6.61736295272746E+01  1.21208871783375E+00
(PID.TID 0000.0001)  ploadbar=  1.01110260249758E+05
 cg2d: Sum(rhs),rhsMax =  -6.71136573668930E+01  1.19558840206990E+00
(PID.TID 0000.0001)  ploadbar=  1.01110826888430E+05
 cg2d: Sum(rhs),rhsMax =  -6.80324247382324E+01  1.17994193903904E+00
(PID.TID 0000.0001)  ploadbar=  1.01111393527103E+05
 cg2d: Sum(rhs),rhsMax =  -6.89322333433352E+01  1.16506431832927E+00
(PID.TID 0000.0001)  ploadbar=  1.01111960165775E+05
 cg2d: Sum(rhs),rhsMax =  -6.98219157220994E+01  1.15069178715835E+00
(PID.TID 0000.0001)  ploadbar=  1.01113234911292E+05
 cg2d: Sum(rhs),rhsMax =  -7.03144580740858E+01  1.14305093148697E+00
(PID.TID 0000.0001)  ploadbar=  1.01114509656809E+05
 cg2d: Sum(rhs),rhsMax =  -7.00021881694414E+01  1.14852352785580E+00
(PID.TID 0000.0001)  ploadbar=  1.01115784402326E+05
 cg2d: Sum(rhs),rhsMax =  -6.97034958519189E+01  1.15377394826775E+00
(PID.TID 0000.0001)  ploadbar=  1.01117059147843E+05
 cg2d: Sum(rhs),rhsMax =  -6.94077618391907E+01  1.15897329207667E+00
(PID.TID 0000.0001)  ploadbar=  1.01118333893360E+05
 cg2d: Sum(rhs),rhsMax =  -6.91065766793520E+01  1.16425813933396E+00
(PID.TID 0000.0001)  ploadbar=  1.01119608638877E+05
 cg2d: Sum(rhs),rhsMax =  -6.88309525305097E+01  1.16918679289718E+00
(PID.TID 0000.0001)  ploadbar=  1.01120220236145E+05
 cg2d: Sum(rhs),rhsMax =  -6.85650810599616E+01  1.17401761790262E+00
(PID.TID 0000.0001)  ploadbar=  1.01120831833413E+05
 cg2d: Sum(rhs),rhsMax =  -6.83002649434340E+01  1.17889797420146E+00
(PID.TID 0000.0001)  ploadbar=  1.01121443430680E+05
 cg2d: Sum(rhs),rhsMax =  -6.80392009277602E+01  1.18378271068939E+00
(PID.TID 0000.0001)  ploadbar=  1.01122055027948E+05
 cg2d: Sum(rhs),rhsMax =  -6.77832158921061E+01  1.18864823860090E+00
(PID.TID 0000.0001)  ploadbar=  1.01122666625215E+05
 cg2d: Sum(rhs),rhsMax =  -6.75312219749215E+01  1.19351524982575E+00
(PID.TID 0000.0001)  ploadbar=  1.01123278222483E+05
 cg2d: Sum(rhs),rhsMax =  -6.72634409324748E+01  1.19868573801615E+00
(PID.TID 0000.0001)  ploadbar=  1.01124307438285E+05
 cg2d: Sum(rhs),rhsMax =  -6.70087906819726E+01  1.20364782831515E+00
(PID.TID 0000.0001)  ploadbar=  1.01125336654088E+05
 cg2d: Sum(rhs),rhsMax =  -6.67961358050814E+01  1.20787757020954E+00
(PID.TID 0000.0001)  ploadbar=  1.01126365869891E+05
 cg2d: Sum(rhs),rhsMax =  -6.66281566985290E+01  1.21130926743010E+00
(PID.TID 0000.0001)  ploadbar=  1.01127395085693E+05
 cg2d: Sum(rhs),rhsMax =  -6.65066561673096E+01  1.21390268301127E+00
(PID.TID 0000.0001)  ploadbar=  1.01128424301496E+05
 cg2d: Sum(rhs),rhsMax =  -6.64303267277731E+01  1.21566821481205E+00
(PID.TID 0000.0001)  ploadbar=  1.01129453517298E+05
 cg2d: Sum(rhs),rhsMax =  -6.65205105929671E+01  1.21441074067683E+00
(PID.TID 0000.0001)  ploadbar=  1.01129701330261E+05
 cg2d: Sum(rhs),rhsMax =  -6.65532277408264E+01  1.21422125192827E+00
(PID.TID 0000.0001)  ploadbar=  1.01129949143223E+05
 cg2d: Sum(rhs),rhsMax =  -6.65436082304993E+01  1.21482234354250E+00
(PID.TID 0000.0001)  ploadbar=  1.01130196956185E+05
 cg2d: Sum(rhs),rhsMax =  -6.65062259895998E+01  1.21594951392697E+00
(PID.TID 0000.0001)  ploadbar=  1.01130444769147E+05
 cg2d: Sum(rhs),rhsMax =  -6.64571887501264E+01  1.21731459874047E+00
(PID.TID 0000.0001)  ploadbar=  1.01130692582110E+05
 cg2d: Sum(rhs),rhsMax =  -6.64040428989406E+01  1.21878287708982E+00
(PID.TID 0000.0001)  ploadbar=  1.01130940395072E+05
 cg2d: Sum(rhs),rhsMax =  -6.64531694644276E+01  1.21830177658717E+00
(PID.TID 0000.0001)  ploadbar=  1.01131295781730E+05
 cg2d: Sum(rhs),rhsMax =  -6.65456263949916E+01  1.21695037270943E+00
(PID.TID 0000.0001)  ploadbar=  1.01131651168389E+05
 cg2d: Sum(rhs),rhsMax =  -6.66821568359595E+01  1.21472473473607E+00
(PID.TID 0000.0001)  ploadbar=  1.01132006555047E+05
 cg2d: Sum(rhs),rhsMax =  -6.68901714154186E+01  1.21114031869216E+00
(PID.TID 0000.0001)  ploadbar=  1.01132361941706E+05
 cg2d: Sum(rhs),rhsMax =  -6.71475374265042E+01  1.20661747355307E+00
(PID.TID 0000.0001)  ploadbar=  1.01132717328364E+05
 cg2d: Sum(rhs),rhsMax =  -6.74451720667908E+01  1.20133798023090E+00
(PID.TID 0000.0001)  ploadbar=  1.01133072715023E+05
 cg2d: Sum(rhs),rhsMax =  -6.76412539031935E+01  1.19796560161875E+00
(PID.TID 0000.0001)  ploadbar=  1.01132503151574E+05
 cg2d: Sum(rhs),rhsMax =  -6.78383800596924E+01  1.19465477778530E+00
(PID.TID 0000.0001)  ploadbar=  1.01131933588125E+05
 cg2d: Sum(rhs),rhsMax =  -6.80043640244014E+01  1.19196681038432E+00
(PID.TID 0000.0001)  ploadbar=  1.01131364024676E+05
 cg2d: Sum(rhs),rhsMax =  -6.81363897620531E+01  1.18994471089308E+00
(PID.TID 0000.0001)  ploadbar=  1.01130794461228E+05
 cg2d: Sum(rhs),rhsMax =  -6.82329655592940E+01  1.18861032530456E+00
(PID.TID 0000.0001)  ploadbar=  1.01130224897779E+05
 cg2d: Sum(rhs),rhsMax =  -6.82947162768131E+01  1.18794780109694E+00
(PID.TID 0000.0001)  ploadbar=  1.01129655334330E+05
 cg2d: Sum(rhs),rhsMax =  -6.82851064616870E+01  1.18851052904044E+00
(PID.TID 0000.0001)  ploadbar=  1.01130308624749E+05
 cg2d: Sum(rhs),rhsMax =  -6.82616295892739E+01  1.18929806564220E+00
(PID.TID 0000.0001)  ploadbar=  1.01130961915168E+05
 cg2d: Sum(rhs),rhsMax =  -6.82262073212446E+01  1.19027798708634E+00
(PID.TID 0000.0001)  ploadbar=  1.01131615205587E+05
 cg2d: Sum(rhs),rhsMax =  -6.81866919571682E+01  1.19131391389120E+00
(PID.TID 0000.0001)  ploadbar=  1.01132268496006E+05
 cg2d: Sum(rhs),rhsMax =  -6.81646230112152E+01  1.19202920130583E+00
(PID.TID 0000.0001)  ploadbar=  1.01132921786425E+05
 cg2d: Sum(rhs),rhsMax =  -6.81679291816522E+01  1.19228471505880E+00
(PID.TID 0000.0001)  ploadbar=  1.01133575076843E+05
 cg2d: Sum(rhs),rhsMax =  -6.81107682265812E+01  1.19360120660194E+00
(PID.TID 0000.0001)  ploadbar=  1.01133789471669E+05
 cg2d: Sum(rhs),rhsMax =  -6.80812013375108E+01  1.19443188739517E+00
(PID.TID 0000.0001)  ploadbar=  1.01134003866495E+05
 cg2d: Sum(rhs),rhsMax =  -6.80542120598884E+01  1.19521362429427E+00
(PID.TID 0000.0001)  ploadbar=  1.01134218261320E+05
 cg2d: Sum(rhs),rhsMax =  -6.80306330491964E+01  1.19593261763795E+00
(PID.TID 0000.0001)  ploadbar=  1.01134432656146E+05
 cg2d: Sum(rhs),rhsMax =  -6.80164382088976E+01  1.19648585977729E+00
(PID.TID 0000.0001)  ploadbar=  1.01134647050971E+05
 cg2d: Sum(rhs),rhsMax =  -6.79955865896814E+01  1.19715877146968E+00
(PID.TID 0000.0001)  ploadbar=  1.01134861445797E+05
 cg2d: Sum(rhs),rhsMax =  -6.79604266990037E+01  1.19802365804257E+00
(PID.TID 0000.0001)  ploadbar=  1.01133812565457E+05
 cg2d: Sum(rhs),rhsMax =  -6.78962682193824E+01  1.19933782262586E+00
(PID.TID 0000.0001)  ploadbar=  1.01132763685117E+05
 cg2d: Sum(rhs),rhsMax =  -6.78118599901978E+01  1.20095239755587E+00
(PID.TID 0000.0001)  ploadbar=  1.01131714804777E+05
 cg2d: Sum(rhs),rhsMax =  -6.76971106731200E+01  1.20305348905391E+00
(PID.TID 0000.0001)  ploadbar=  1.01130665924437E+05
 cg2d: Sum(rhs),rhsMax =  -6.75659552971585E+01  1.20540111010785E+00
(PID.TID 0000.0001)  ploadbar=  1.01129617044097E+05
 cg2d: Sum(rhs),rhsMax =  -6.74430584141999E+01  1.20755613281309E+00
(PID.TID 0000.0001)  ploadbar=  1.01128568163758E+05
 cg2d: Sum(rhs),rhsMax =  -6.74327367278651E+01  1.20776620173419E+00
(PID.TID 0000.0001)  ploadbar=  1.01127572200042E+05
 cg2d: Sum(rhs),rhsMax =  -6.74130142261060E+01  1.20820104545568E+00
(PID.TID 0000.0001)  ploadbar=  1.01126576236327E+05
 cg2d: Sum(rhs),rhsMax =  -6.73980612915071E+01  1.20860804137152E+00
(PID.TID 0000.0001)  ploadbar=  1.01125580272611E+05
 cg2d: Sum(rhs),rhsMax =  -6.74120237437169E+01  1.20855501086369E+00
(PID.TID 0000.0001)  ploadbar=  1.01124584308896E+05
 cg2d: Sum(rhs),rhsMax =  -6.74561930132493E+01  1.20801844686705E+00
(PID.TID 0000.0001)  ploadbar=  1.01123588345180E+05
 cg2d: Sum(rhs),rhsMax =  -6.75423694043656E+01  1.20679287022007E+00
(PID.TID 0000.0001)  ploadbar=  1.01122592381465E+05
 cg2d: Sum(rhs),rhsMax =  -6.77523637837048E+01  1.20335889282662E+00
(PID.TID 0000.0001)  ploadbar=  1.01121363376317E+05
 cg2d: Sum(rhs),rhsMax =  -6.76766421978640E+01  1.20500522954715E+00
(PID.TID 0000.0001)  ploadbar=  1.01120134371170E+05
 cg2d: Sum(rhs),rhsMax =  -6.76189412923597E+01  1.20632988089470E+00
(PID.TID 0000.0001)  ploadbar=  1.01118905366022E+05
 cg2d: Sum(rhs),rhsMax =  -6.75892632273725E+01  1.20715347555453E+00
(PID.TID 0000.0001)  ploadbar=  1.01117676360875E+05
 cg2d: Sum(rhs),rhsMax =  -6.75747135490603E+01  1.20771241649703E+00
(PID.TID 0000.0001)  ploadbar=  1.01116447355728E+05
 cg2d: Sum(rhs),rhsMax =  -6.75650169357179E+01  1.20819366611645E+00
(PID.TID 0000.0001)  ploadbar=  1.01115218350580E+05
 cg2d: Sum(rhs),rhsMax =  -6.75271587006091E+01  1.20921871621235E+00
(PID.TID 0000.0001)  ploadbar=  1.01114595599669E+05
 cg2d: Sum(rhs),rhsMax =  -6.74398992220270E+01  1.21116401022485E+00
(PID.TID 0000.0001)  ploadbar=  1.01113972848757E+05
 cg2d: Sum(rhs),rhsMax =  -6.73003753392919E+01  1.21409246148617E+00
(PID.TID 0000.0001)  ploadbar=  1.01113350097846E+05
 cg2d: Sum(rhs),rhsMax =  -6.71175337884857E+01  1.21785809130696E+00
(PID.TID 0000.0001)  ploadbar=  1.01112727346934E+05
 cg2d: Sum(rhs),rhsMax =  -6.69182015895529E+01  1.22198917607047E+00
(PID.TID 0000.0001)  ploadbar=  1.01112104596023E+05
 cg2d: Sum(rhs),rhsMax =  -6.67322447494072E+01  1.22594710071576E+00
(PID.TID 0000.0001)  ploadbar=  1.01111481845111E+05
 cg2d: Sum(rhs),rhsMax =  -6.64731643138284E+01  1.23122855688922E+00
(PID.TID 0000.0001)  ploadbar=  1.01110582923777E+05
 cg2d: Sum(rhs),rhsMax =  -6.63000884787630E+01  1.23489327134839E+00
(PID.TID 0000.0001)  ploadbar=  1.01109684002443E+05
 cg2d: Sum(rhs),rhsMax =  -6.62826535503305E+01  1.23561598784535E+00
(PID.TID 0000.0001)  ploadbar=  1.01108785081109E+05
 cg2d: Sum(rhs),rhsMax =  -6.64034379145687E+01  1.23371884103694E+00
(PID.TID 0000.0001)  ploadbar=  1.01107886159774E+05
 cg2d: Sum(rhs),rhsMax =  -6.68083754240462E+01  1.22654797331127E+00
(PID.TID 0000.0001)  ploadbar=  1.01106987238440E+05
 cg2d: Sum(rhs),rhsMax =  -6.77518841944948E+01  1.20973161665634E+00
(PID.TID 0000.0001)  ploadbar=  1.01106088317106E+05
 cg2d: Sum(rhs),rhsMax =  -6.78880941720390E+01  1.20762408294132E+00
(PID.TID 0000.0001)  ploadbar=  1.01107364155545E+05
 cg2d: Sum(rhs),rhsMax =  -6.78302290041264E+01  1.20902940939807E+00
(PID.TID 0000.0001)  ploadbar=  1.01108639993984E+05
 cg2d: Sum(rhs),rhsMax =  -6.78540028022693E+01  1.20903433903208E+00
(PID.TID 0000.0001)  ploadbar=  1.01109915832423E+05
 cg2d: Sum(rhs),rhsMax =  -6.79568375825175E+01  1.20768950728099E+00
(PID.TID 0000.0001)  ploadbar=  1.01111191670862E+05
 cg2d: Sum(rhs),rhsMax =  -6.81141790952303E+01  1.20544663518453E+00
(PID.TID 0000.0001)  ploadbar=  1.01112467509301E+05
 cg2d: Sum(rhs),rhsMax =  -6.82878043410778E+01  1.20299210179928E+00
(PID.TID 0000.0001)  ploadbar=  1.01113743347740E+05
 cg2d: Sum(rhs),rhsMax =  -6.82642188343703E+01  1.20399078752182E+00
(PID.TID 0000.0001)  ploadbar=  1.01113584410854E+05
 cg2d: Sum(rhs),rhsMax =  -6.82335986983567E+01  1.20508721169923E+00
(PID.TID 0000.0001)  ploadbar=  1.01113425473969E+05
 cg2d: Sum(rhs),rhsMax =  -6.82018172823398E+01  1.20618492708077E+00
(PID.TID 0000.0001)  ploadbar=  1.01113266537083E+05
 cg2d: Sum(rhs),rhsMax =  -6.81717308865217E+01  1.20723609197992E+00
(PID.TID 0000.0001)  ploadbar=  1.01113107600198E+05
 cg2d: Sum(rhs),rhsMax =  -6.81450230492894E+01  1.20821484631298E+00
(PID.TID 0000.0001)  ploadbar=  1.01112948663312E+05
 cg2d: Sum(rhs),rhsMax =  -6.81263451637716E+01  1.20904025938808E+00
(PID.TID 0000.0001)  ploadbar=  1.01112789726426E+05
 cg2d: Sum(rhs),rhsMax =  -6.80461039126498E+01  1.21100383994832E+00
(PID.TID 0000.0001)  ploadbar=  1.01112199177453E+05
 cg2d: Sum(rhs),rhsMax =  -6.79608774664674E+01  1.21310323650449E+00
(PID.TID 0000.0001)  ploadbar=  1.01111608628480E+05
 cg2d: Sum(rhs),rhsMax =  -6.78162858614785E+01  1.21631472641744E+00
(PID.TID 0000.0001)  ploadbar=  1.01111018079507E+05
 cg2d: Sum(rhs),rhsMax =  -6.76285377149190E+01  1.22036387915089E+00
(PID.TID 0000.0001)  ploadbar=  1.01110427530535E+05
 cg2d: Sum(rhs),rhsMax =  -6.74105871601742E+01  1.22503215818092E+00
(PID.TID 0000.0001)  ploadbar=  1.01109836981562E+05
 cg2d: Sum(rhs),rhsMax =  -6.71772493533381E+01  1.23006432109957E+00
(PID.TID 0000.0001)  ploadbar=  1.01109246432589E+05
 cg2d: Sum(rhs),rhsMax =  -6.70031363633093E+01  1.23397573740940E+00
(PID.TID 0000.0001)  ploadbar=  1.01109096272372E+05
 cg2d: Sum(rhs),rhsMax =  -6.68664946054691E+01  1.23714537219849E+00
(PID.TID 0000.0001)  ploadbar=  1.01108946112155E+05
 cg2d: Sum(rhs),rhsMax =  -6.66723654601785E+01  1.24133089919245E+00
(PID.TID 0000.0001)  ploadbar=  1.01108795951938E+05
 cg2d: Sum(rhs),rhsMax =  -6.65051940259171E+01  1.24497256269931E+00
(PID.TID 0000.0001)  ploadbar=  1.01108645791721E+05
 cg2d: Sum(rhs),rhsMax =  -6.63939820127568E+01  1.24751585796097E+00
(PID.TID 0000.0001)  ploadbar=  1.01108495631504E+05
 cg2d: Sum(rhs),rhsMax =  -6.63349683977074E+01  1.24901722939852E+00
(PID.TID 0000.0001)  ploadbar=  1.01108345471287E+05
 cg2d: Sum(rhs),rhsMax =  -6.62535185662648E+01  1.25098774827980E+00
(PID.TID 0000.0001)  ploadbar=  1.01107045492021E+05
 cg2d: Sum(rhs),rhsMax =  -6.62003507811326E+01  1.25247023224559E+00
(PID.TID 0000.0001)  ploadbar=  1.01105745512755E+05
 cg2d: Sum(rhs),rhsMax =  -6.62575180379656E+01  1.25191172408689E+00
(PID.TID 0000.0001)  ploadbar=  1.01104445533489E+05
 cg2d: Sum(rhs),rhsMax =  -6.64143170874761E+01  1.24952452628822E+00
(PID.TID 0000.0001)  ploadbar=  1.01103145554223E+05
 cg2d: Sum(rhs),rhsMax =  -6.66624240788594E+01  1.24549007085534E+00
(PID.TID 0000.0001)  ploadbar=  1.01101845574957E+05
 cg2d: Sum(rhs),rhsMax =  -6.69356980152481E+01  1.24107319833638E+00
(PID.TID 0000.0001)  ploadbar=  1.01100545595691E+05
 cg2d: Sum(rhs),rhsMax =  -6.70870470145652E+01  1.23895639603919E+00
(PID.TID 0000.0001)  ploadbar=  1.01099411674153E+05
 cg2d: Sum(rhs),rhsMax =  -6.72144197458727E+01  1.23730708482150E+00
(PID.TID 0000.0001)  ploadbar=  1.01098277752616E+05
 cg2d: Sum(rhs),rhsMax =  -6.73448169330003E+01  1.23562647630497E+00
(PID.TID 0000.0001)  ploadbar=  1.01097143831078E+05
 cg2d: Sum(rhs),rhsMax =  -6.74804529880341E+01  1.23387727950579E+00
(PID.TID 0000.0001)  ploadbar=  1.01096009909541E+05
 cg2d: Sum(rhs),rhsMax =  -6.76428454298016E+01  1.23167299646322E+00
(PID.TID 0000.0001)  ploadbar=  1.01094875988003E+05
 cg2d: Sum(rhs),rhsMax =  -6.78493036402205E+01  1.22870674976219E+00
(PID.TID 0000.0001)  ploadbar=  1.01093742066466E+05
 cg2d: Sum(rhs),rhsMax =  -6.80455897763509E+01  1.22596968059694E+00
(PID.TID 0000.0001)  ploadbar=  1.01092701111389E+05
 cg2d: Sum(rhs),rhsMax =  -6.82295050158810E+01  1.22349953772120E+00
(PID.TID 0000.0001)  ploadbar=  1.01091660156312E+05
 cg2d: Sum(rhs),rhsMax =  -6.83970501746496E+01  1.22136840911163E+00
(PID.TID 0000.0001)  ploadbar=  1.01090619201235E+05
 cg2d: Sum(rhs),rhsMax =  -6.85186940501597E+01  1.22010245182142E+00
(PID.TID 0000.0001)  ploadbar=  1.01089578246158E+05
 cg2d: Sum(rhs),rhsMax =  -6.85857226854025E+01  1.21985198501799E+00
(PID.TID 0000.0001)  ploadbar=  1.01088537291081E+05
 cg2d: Sum(rhs),rhsMax =  -6.85958056674625E+01  1.22065715691193E+00
(PID.TID 0000.0001)  ploadbar=  1.01087496336004E+05
 cg2d: Sum(rhs),rhsMax =  -6.84600894496129E+01  1.22399333923400E+00
(PID.TID 0000.0001)  ploadbar=  1.01086826328499E+05
 cg2d: Sum(rhs),rhsMax =  -6.82572972600329E+01  1.22847627031765E+00
(PID.TID 0000.0001)  ploadbar=  1.01086156320993E+05
 cg2d: Sum(rhs),rhsMax =  -6.80117176151026E+01  1.23369058224441E+00
(PID.TID 0000.0001)  ploadbar=  1.01085486313488E+05
 cg2d: Sum(rhs),rhsMax =  -6.77313149403905E+01  1.23951139117909E+00
(PID.TID 0000.0001)  ploadbar=  1.01084816305982E+05
 cg2d: Sum(rhs),rhsMax =  -6.73806745507349E+01  1.24660672503165E+00
(PID.TID 0000.0001)  ploadbar=  1.01084146298477E+05
 cg2d: Sum(rhs),rhsMax =  -6.69399785407437E+01  1.25538681868542E+00
(PID.TID 0000.0001)  ploadbar=  1.01083476290971E+05
 cg2d: Sum(rhs),rhsMax =  -6.65335597435582E+01  1.26367129821103E+00
(PID.TID 0000.0001)  ploadbar=  1.01083304002315E+05
 cg2d: Sum(rhs),rhsMax =  -6.61758967029205E+01  1.27115952534809E+00
(PID.TID 0000.0001)  ploadbar=  1.01083131713659E+05
 cg2d: Sum(rhs),rhsMax =  -6.58580749686921E+01  1.27799561731934E+00
(PID.TID 0000.0001)  ploadbar=  1.01082959425003E+05
 cg2d: Sum(rhs),rhsMax =  -6.55819887602243E+01  1.28412157907125E+00
(PID.TID 0000.0001)  ploadbar=  1.01082787136347E+05
 cg2d: Sum(rhs),rhsMax =  -6.53395144048198E+01  1.28967817317913E+00
(PID.TID 0000.0001)  ploadbar=  1.01082614847692E+05
 cg2d: Sum(rhs),rhsMax =  -6.51355092130320E+01  1.29455751711747E+00
(PID.TID 0000.0001)  ploadbar=  1.01082442559036E+05
 cg2d: Sum(rhs),rhsMax =  -6.50235241226743E+01  1.29762178777945E+00
(PID.TID 0000.0001)  ploadbar=  1.01083286208359E+05
 cg2d: Sum(rhs),rhsMax =  -6.49262645377390E+01  1.30039278630432E+00
(PID.TID 0000.0001)  ploadbar=  1.01084129857683E+05
 cg2d: Sum(rhs),rhsMax =  -6.48411783334074E+01  1.30291982765222E+00
(PID.TID 0000.0001)  ploadbar=  1.01084973507007E+05
 cg2d: Sum(rhs),rhsMax =  -6.47883421855982E+01  1.30479889154015E+00
(PID.TID 0000.0001)  ploadbar=  1.01085817156330E+05
 cg2d: Sum(rhs),rhsMax =  -6.47682143442943E+01  1.30601917299073E+00
(PID.TID 0000.0001)  ploadbar=  1.01086660805654E+05
 cg2d: Sum(rhs),rhsMax =  -6.47806066530246E+01  1.30658543745713E+00
(PID.TID 0000.0001)  ploadbar=  1.01087504454978E+05
 cg2d: Sum(rhs),rhsMax =  -6.48416086796203E+01  1.30622303592813E+00
(PID.TID 0000.0001)  ploadbar=  1.01086759892293E+05
 cg2d: Sum(rhs),rhsMax =  -6.49203277032825E+01  1.30555223958677E+00
(PID.TID 0000.0001)  ploadbar=  1.01086015329608E+05
 cg2d: Sum(rhs),rhsMax =  -6.50073917163304E+01  1.30476594685774E+00
(PID.TID 0000.0001)  ploadbar=  1.01085270766923E+05
 cg2d: Sum(rhs),rhsMax =  -6.51159030283568E+01  1.30360364200532E+00
(PID.TID 0000.0001)  ploadbar=  1.01084526204237E+05
 cg2d: Sum(rhs),rhsMax =  -6.52437365647222E+01  1.30211013724128E+00
(PID.TID 0000.0001)  ploadbar=  1.01083781641552E+05
 cg2d: Sum(rhs),rhsMax =  -6.53790222510809E+01  1.30052730077943E+00
(PID.TID 0000.0001)  ploadbar=  1.01083037078867E+05
 cg2d: Sum(rhs),rhsMax =  -6.55255241821715E+01  1.29862500557336E+00
(PID.TID 0000.0001)  ploadbar=  1.01082852806172E+05
 cg2d: Sum(rhs),rhsMax =  -6.56727864596518E+01  1.29660830369099E+00
(PID.TID 0000.0001)  ploadbar=  1.01082668533477E+05
 cg2d: Sum(rhs),rhsMax =  -6.58042097928389E+01  1.29480535671494E+00
(PID.TID 0000.0001)  ploadbar=  1.01082484260782E+05
 cg2d: Sum(rhs),rhsMax =  -6.59173797466106E+01  1.29326599147006E+00
(PID.TID 0000.0001)  ploadbar=  1.01082299988087E+05
 cg2d: Sum(rhs),rhsMax =  -6.60171827200274E+01  1.29189131679349E+00
(PID.TID 0000.0001)  ploadbar=  1.01082115715392E+05
 cg2d: Sum(rhs),rhsMax =  -6.61056034641711E+01  1.29063684271511E+00
(PID.TID 0000.0001)  ploadbar=  1.01081931442697E+05
 cg2d: Sum(rhs),rhsMax =  -6.62271291099884E+01  1.28878085871022E+00
(PID.TID 0000.0001)  ploadbar=  1.01081581899087E+05
 cg2d: Sum(rhs),rhsMax =  -6.63298666725312E+01  1.28733469571770E+00
(PID.TID 0000.0001)  ploadbar=  1.01081232355477E+05
 cg2d: Sum(rhs),rhsMax =  -6.64051680471945E+01  1.28646324430699E+00
(PID.TID 0000.0001)  ploadbar=  1.01080882811867E+05
 cg2d: Sum(rhs),rhsMax =  -6.64558064523842E+01  1.28610768186450E+00
(PID.TID 0000.0001)  ploadbar=  1.01080533268257E+05
 cg2d: Sum(rhs),rhsMax =  -6.64740887823414E+01  1.28641702198863E+00
(PID.TID 0000.0001)  ploadbar=  1.01080183724647E+05
 cg2d: Sum(rhs),rhsMax =  -6.64735791680127E+01  1.28712984770589E+00
(PID.TID 0000.0001)  ploadbar=  1.01079834181037E+05
 cg2d: Sum(rhs),rhsMax =  -6.66614686769356E+01  1.28415752585886E+00
(PID.TID 0000.0001)  ploadbar=  1.01078923877792E+05
 cg2d: Sum(rhs),rhsMax =  -6.70392092702289E+01  1.27752712114234E+00
(PID.TID 0000.0001)  ploadbar=  1.01078013574547E+05
 cg2d: Sum(rhs),rhsMax =  -6.74973508329241E+01  1.26941237549005E+00
(PID.TID 0000.0001)  ploadbar=  1.01077103271302E+05
 cg2d: Sum(rhs),rhsMax =  -6.80310882240217E+01  1.25996419584363E+00
(PID.TID 0000.0001)  ploadbar=  1.01076192968057E+05
 cg2d: Sum(rhs),rhsMax =  -6.86202436022793E+01  1.24962010918170E+00
(PID.TID 0000.0001)  ploadbar=  1.01075282664813E+05
 cg2d: Sum(rhs),rhsMax =  -6.92574726393925E+01  1.23856781141646E+00
(PID.TID 0000.0001)  ploadbar=  1.01074372361568E+05
 cg2d: Sum(rhs),rhsMax =  -6.99569599217570E+01  1.22666987011969E+00
(PID.TID 0000.0001)  ploadbar=  1.01073358278788E+05
 cg2d: Sum(rhs),rhsMax =  -7.06523429534768E+01  1.21511588022471E+00
(PID.TID 0000.0001)  ploadbar=  1.01072344196008E+05
 cg2d: Sum(rhs),rhsMax =  -7.13019747738818E+01  1.20460156730797E+00
(PID.TID 0000.0001)  ploadbar=  1.01071330113228E+05
 cg2d: Sum(rhs),rhsMax =  -7.19216686865792E+01  1.19481634335069E+00
(PID.TID 0000.0001)  ploadbar=  1.01070316030448E+05
 cg2d: Sum(rhs),rhsMax =  -7.25163755977298E+01  1.18565044635103E+00
(PID.TID 0000.0001)  ploadbar=  1.01069301947668E+05
 cg2d: Sum(rhs),rhsMax =  -7.30848393525356E+01  1.17710145980170E+00
(PID.TID 0000.0001)  ploadbar=  1.01068287864888E+05
 cg2d: Sum(rhs),rhsMax =  -7.34024699851030E+01  1.17260028884878E+00
(PID.TID 0000.0001)  ploadbar=  1.01067765693047E+05
 cg2d: Sum(rhs),rhsMax =  -7.37632789418311E+01  1.16737474629976E+00
(PID.TID 0000.0001)  ploadbar=  1.01067243521206E+05
 cg2d: Sum(rhs),rhsMax =  -7.41516350331597E+01  1.16169355114464E+00
(PID.TID 0000.0001)  ploadbar=  1.01066721349365E+05
 cg2d: Sum(rhs),rhsMax =  -7.46124816520091E+01  1.15487984882668E+00
(PID.TID 0000.0001)  ploadbar=  1.01066199177524E+05
 cg2d: Sum(rhs),rhsMax =  -7.52154458145441E+01  1.14591447287544E+00
(PID.TID 0000.0001)  ploadbar=  1.01065677005682E+05
 cg2d: Sum(rhs),rhsMax =  -7.58512662912153E+01  1.13652868061589E+00
(PID.TID 0000.0001)  ploadbar=  1.01065154833841E+05
 cg2d: Sum(rhs),rhsMax =  -7.68004252567142E+01  1.12272429325753E+00
(PID.TID 0000.0001)  ploadbar=  1.01063994978433E+05
 cg2d: Sum(rhs),rhsMax =  -7.81777073406647E+01  1.10320213919316E+00
(PID.TID 0000.0001)  ploadbar=  1.01062835123024E+05
 cg2d: Sum(rhs),rhsMax =  -7.96444305393591E+01  1.08315695797465E+00
(PID.TID 0000.0001)  ploadbar=  1.01061675267616E+05
 cg2d: Sum(rhs),rhsMax =  -8.10563253679132E+01  1.06457536160151E+00
(PID.TID 0000.0001)  ploadbar=  1.01060515412207E+05
 cg2d: Sum(rhs),rhsMax =  -8.24506561680541E+01  1.04687191391226E+00
(PID.TID 0000.0001)  ploadbar=  1.01059355556799E+05
 cg2d: Sum(rhs),rhsMax =  -8.31375410261748E+01  1.03854048375284E+00
(PID.TID 0000.0001)  ploadbar=  1.01058195701390E+05
 cg2d: Sum(rhs),rhsMax =  -8.22784464207923E+01  1.04969815136995E+00
(PID.TID 0000.0001)  ploadbar=  1.01056807551891E+05
 cg2d: Sum(rhs),rhsMax =  -8.14653340546955E+01  1.06048402870356E+00
(PID.TID 0000.0001)  ploadbar=  1.01055419402391E+05
 cg2d: Sum(rhs),rhsMax =  -8.07066133727685E+01  1.07076054135711E+00
(PID.TID 0000.0001)  ploadbar=  1.01054031252892E+05
 cg2d: Sum(rhs),rhsMax =  -7.99972866488620E+01  1.08056473890959E+00
(PID.TID 0000.0001)  ploadbar=  1.01052643103392E+05
 cg2d: Sum(rhs),rhsMax =  -7.93413809337603E+01  1.08981771126240E+00
(PID.TID 0000.0001)  ploadbar=  1.01051254953893E+05
 cg2d: Sum(rhs),rhsMax =  -7.87295110309120E+01  1.09863191039831E+00
(PID.TID 0000.0001)  ploadbar=  1.01049866804393E+05
 cg2d: Sum(rhs),rhsMax =  -7.82856637555535E+01  1.10525674895892E+00
(PID.TID 0000.0001)  ploadbar=  1.01048264543047E+05
 cg2d: Sum(rhs),rhsMax =  -7.79478262964431E+01  1.11048749562774E+00
(PID.TID 0000.0001)  ploadbar=  1.01046662281700E+05
 cg2d: Sum(rhs),rhsMax =  -7.77585952099347E+01  1.11367613647929E+00
(PID.TID 0000.0001)  ploadbar=  1.01045060020353E+05
 cg2d: Sum(rhs),rhsMax =  -7.77023892282295E+01  1.11501339156628E+00
(PID.TID 0000.0001)  ploadbar=  1.01043457759006E+05
 cg2d: Sum(rhs),rhsMax =  -7.66724620064950E+01  1.13057554611108E+00
(PID.TID 0000.0001)  ploadbar=  1.01041855497659E+05
 cg2d: Sum(rhs),rhsMax =  -7.55491009053730E+01  1.14802468504185E+00
(PID.TID 0000.0001)  ploadbar=  1.01040253236312E+05
 cg2d: Sum(rhs),rhsMax =  -7.44453389014263E+01  1.16561720439883E+00
(PID.TID 0000.0001)  ploadbar=  1.01040131450435E+05
 cg2d: Sum(rhs),rhsMax =  -7.33893470167289E+01  1.18289348158977E+00
(PID.TID 0000.0001)  ploadbar=  1.01040009664557E+05
 cg2d: Sum(rhs),rhsMax =  -7.24962240249156E+01  1.19790355676141E+00
(PID.TID 0000.0001)  ploadbar=  1.01039887878680E+05
 cg2d: Sum(rhs),rhsMax =  -7.18497465966034E+01  1.20905262067795E+00
(PID.TID 0000.0001)  ploadbar=  1.01039766092802E+05
 cg2d: Sum(rhs),rhsMax =  -7.14850307935288E+01  1.21552364735879E+00
(PID.TID 0000.0001)  ploadbar=  1.01039644306925E+05
 cg2d: Sum(rhs),rhsMax =  -7.14162799917942E+01  1.21692098049283E+00
(PID.TID 0000.0001)  ploadbar=  1.01039522521047E+05
 cg2d: Sum(rhs),rhsMax =  -7.16035245426565E+01  1.21399031897012E+00
(PID.TID 0000.0001)  ploadbar=  1.01041165243619E+05
 cg2d: Sum(rhs),rhsMax =  -7.19702323550804E+01  1.20807640262011E+00
(PID.TID 0000.0001)  ploadbar=  1.01042807966191E+05
 cg2d: Sum(rhs),rhsMax =  -7.24471458950914E+01  1.20041470486091E+00
(PID.TID 0000.0001)  ploadbar=  1.01044450688763E+05
 cg2d: Sum(rhs),rhsMax =  -7.23388883999877E+01  1.20252357421753E+00
(PID.TID 0000.0001)  ploadbar=  1.01046093411335E+05
 cg2d: Sum(rhs),rhsMax =  -7.17559561239366E+01  1.21263133438178E+00
(PID.TID 0000.0001)  ploadbar=  1.01047736133907E+05
 cg2d: Sum(rhs),rhsMax =  -7.11164669491966E+01  1.22390408418956E+00
(PID.TID 0000.0001)  ploadbar=  1.01049378856479E+05
 cg2d: Sum(rhs),rhsMax =  -7.00926209196841E+01  1.24214293991735E+00
(PID.TID 0000.0001)  ploadbar=  1.01050774038857E+05
 cg2d: Sum(rhs),rhsMax =  -6.83393728444277E+01  1.27436780019712E+00
(PID.TID 0000.0001)  ploadbar=  1.01052169221235E+05
 cg2d: Sum(rhs),rhsMax =  -6.65775770341903E+01  1.30844927547324E+00
(PID.TID 0000.0001)  ploadbar=  1.01053564403614E+05
 cg2d: Sum(rhs),rhsMax =  -6.56728275983576E+01  1.32683303040511E+00
(PID.TID 0000.0001)  ploadbar=  1.01054959585992E+05
 cg2d: Sum(rhs),rhsMax =  -6.51182207930870E+01  1.33849761474609E+00
(PID.TID 0000.0001)  ploadbar=  1.01056354768370E+05
 cg2d: Sum(rhs),rhsMax =  -6.46168030251403E+01  1.34926482099234E+00
(PID.TID 0000.0001)  ploadbar=  1.01057749950748E+05
 cg2d: Sum(rhs),rhsMax =  -6.42159492351850E+01  1.35812631259884E+00
(PID.TID 0000.0001)  ploadbar=  1.01059536933936E+05
 cg2d: Sum(rhs),rhsMax =  -6.38176061593825E+01  1.36709429392117E+00
(PID.TID 0000.0001)  ploadbar=  1.01061323917123E+05
 cg2d: Sum(rhs),rhsMax =  -6.33806087569259E+01  1.37706236076804E+00
(PID.TID 0000.0001)  ploadbar=  1.01063110900311E+05
 cg2d: Sum(rhs),rhsMax =  -6.27385673457945E+01  1.39175475358606E+00
(PID.TID 0000.0001)  ploadbar=  1.01064897883498E+05
 cg2d: Sum(rhs),rhsMax =  -6.19016324186436E+01  1.41123605256282E+00
(PID.TID 0000.0001)  ploadbar=  1.01066684866686E+05
 cg2d: Sum(rhs),rhsMax =  -6.09425136613220E+01  1.43417850933776E+00
(PID.TID 0000.0001)  ploadbar=  1.01068471849874E+05
 cg2d: Sum(rhs),rhsMax =  -5.98983524934027E+01  1.45986648168226E+00
(PID.TID 0000.0001)  ploadbar=  1.01070593432281E+05
 cg2d: Sum(rhs),rhsMax =  -5.87515686454073E+01  1.48900221395220E+00
(PID.TID 0000.0001)  ploadbar=  1.01072715014688E+05
 cg2d: Sum(rhs),rhsMax =  -5.75051626181023E+01  1.52187083495992E+00
(PID.TID 0000.0001)  ploadbar=  1.01074836597095E+05
 cg2d: Sum(rhs),rhsMax =  -5.62547074672857E+01  1.55625036928754E+00
(PID.TID 0000.0001)  ploadbar=  1.01076958179502E+05
 cg2d: Sum(rhs),rhsMax =  -5.50467852835112E+01  1.59090559235526E+00
(PID.TID 0000.0001)  ploadbar=  1.01079079761909E+05
 cg2d: Sum(rhs),rhsMax =  -5.38344940245743E+01  1.62718661113417E+00
(PID.TID 0000.0001)  ploadbar=  1.01081201344317E+05
 cg2d: Sum(rhs),rhsMax =  -5.29892197444658E+01  1.65367323164688E+00
(PID.TID 0000.0001)  ploadbar=  1.01083886422666E+05
 cg2d: Sum(rhs),rhsMax =  -5.26670954809879E+01  1.66438180562478E+00
(PID.TID 0000.0001)  ploadbar=  1.01086571501015E+05
 cg2d: Sum(rhs),rhsMax =  -5.29230506818744E+01  1.65698420970773E+00
(PID.TID 0000.0001)  ploadbar=  1.01089256579364E+05
 cg2d: Sum(rhs),rhsMax =  -5.37705657617574E+01  1.63156761537986E+00
(PID.TID 0000.0001)  ploadbar=  1.01091941657713E+05
 cg2d: Sum(rhs),rhsMax =  -5.46557664293022E+01  1.60589461320794E+00
(PID.TID 0000.0001)  ploadbar=  1.01094626736062E+05
 cg2d: Sum(rhs),rhsMax =  -5.55642023067388E+01  1.58044395052435E+00
(PID.TID 0000.0001)  ploadbar=  1.01097311814411E+05
 cg2d: Sum(rhs),rhsMax =  -5.64331549378311E+01  1.55686351927263E+00
(PID.TID 0000.0001)  ploadbar=  1.01098268134537E+05
 cg2d: Sum(rhs),rhsMax =  -5.72931320962612E+01  1.53420201803561E+00
(PID.TID 0000.0001)  ploadbar=  1.01099224454664E+05
 cg2d: Sum(rhs),rhsMax =  -5.81399839186931E+01  1.51251824475514E+00
(PID.TID 0000.0001)  ploadbar=  1.01100180774790E+05
 cg2d: Sum(rhs),rhsMax =  -5.89798068259503E+01  1.49161103494943E+00
(PID.TID 0000.0001)  ploadbar=  1.01101137094917E+05
 cg2d: Sum(rhs),rhsMax =  -5.98189302392553E+01  1.47129012867486E+00
(PID.TID 0000.0001)  ploadbar=  1.01102093415043E+05
 cg2d: Sum(rhs),rhsMax =  -6.06635805244246E+01  1.45139603205681E+00
(PID.TID 0000.0001)  ploadbar=  1.01103049735169E+05
 cg2d: Sum(rhs),rhsMax =  -6.14864554772220E+01  1.43259812040408E+00
(PID.TID 0000.0001)  ploadbar=  1.01104090568709E+05
 cg2d: Sum(rhs),rhsMax =  -6.16028879193464E+01  1.43054836948139E+00
(PID.TID 0000.0001)  ploadbar=  1.01105131402249E+05
 cg2d: Sum(rhs),rhsMax =  -6.12880478399310E+01  1.43859274390894E+00
(PID.TID 0000.0001)  ploadbar=  1.01106172235789E+05
 cg2d: Sum(rhs),rhsMax =  -6.09782115929239E+01  1.44663761170846E+00
(PID.TID 0000.0001)  ploadbar=  1.01107213069329E+05
 cg2d: Sum(rhs),rhsMax =  -6.06670423128835E+01  1.45483451021919E+00
(PID.TID 0000.0001)  ploadbar=  1.01108253902869E+05
 cg2d: Sum(rhs),rhsMax =  -6.03500207890699E+01  1.46329588003100E+00
(PID.TID 0000.0001)  ploadbar=  1.01109294736409E+05
 cg2d: Sum(rhs),rhsMax =  -6.00096225403453E+01  1.47234816369781E+00
(PID.TID 0000.0001)  ploadbar=  1.01110392765525E+05
 cg2d: Sum(rhs),rhsMax =  -5.96541897867985E+01  1.48180355880086E+00
(PID.TID 0000.0001)  ploadbar=  1.01111490794641E+05
 cg2d: Sum(rhs),rhsMax =  -5.92748685004458E+01  1.49190169633109E+00
(PID.TID 0000.0001)  ploadbar=  1.01112588823758E+05
 cg2d: Sum(rhs),rhsMax =  -5.88736708924853E+01  1.50261844917034E+00
(PID.TID 0000.0001)  ploadbar=  1.01113686852874E+05
 cg2d: Sum(rhs),rhsMax =  -5.84518398234413E+01  1.51394858367219E+00
(PID.TID 0000.0001)  ploadbar=  1.01114784881990E+05
 cg2d: Sum(rhs),rhsMax =  -5.80089669387526E+01  1.52592807031042E+00
(PID.TID 0000.0001)  ploadbar=  1.01115882911106E+05
 cg2d: Sum(rhs),rhsMax =  -5.75835982401581E+01  1.53769619245172E+00
(PID.TID 0000.0001)  ploadbar=  1.01116780141050E+05
 cg2d: Sum(rhs),rhsMax =  -5.71776632657099E+01  1.54918004500230E+00
(PID.TID 0000.0001)  ploadbar=  1.01117677370994E+05
 cg2d: Sum(rhs),rhsMax =  -5.68132706691887E+01  1.55975550069622E+00
(PID.TID 0000.0001)  ploadbar=  1.01118574600937E+05
 cg2d: Sum(rhs),rhsMax =  -5.65073233471155E+01  1.56891331923316E+00
(PID.TID 0000.0001)  ploadbar=  1.01119471830881E+05
 cg2d: Sum(rhs),rhsMax =  -5.62577093375207E+01  1.57666062303281E+00
(PID.TID 0000.0001)  ploadbar=  1.01120369060825E+05
 cg2d: Sum(rhs),rhsMax =  -5.60591087998065E+01  1.58310678195841E+00
(PID.TID 0000.0001)  ploadbar=  1.01121266290768E+05
 cg2d: Sum(rhs),rhsMax =  -5.59255438993296E+01  1.58772651768293E+00
(PID.TID 0000.0001)  ploadbar=  1.01121948811194E+05
 cg2d: Sum(rhs),rhsMax =  -5.58220584785347E+01  1.59148583543961E+00
(PID.TID 0000.0001)  ploadbar=  1.01122631331619E+05
 cg2d: Sum(rhs),rhsMax =  -5.57427548177598E+01  1.59454667344098E+00
(PID.TID 0000.0001)  ploadbar=  1.01123313852044E+05
 cg2d: Sum(rhs),rhsMax =  -5.56826525185895E+01  1.59705428994711E+00
(PID.TID 0000.0001)  ploadbar=  1.01123996372470E+05
 cg2d: Sum(rhs),rhsMax =  -5.56400751478916E+01  1.59906173782702E+00
(PID.TID 0000.0001)  ploadbar=  1.01124678892895E+05
 cg2d: Sum(rhs),rhsMax =  -5.56140639185325E+01  1.60060447730765E+00
(PID.TID 0000.0001)  ploadbar=  1.01125361413320E+05
 cg2d: Sum(rhs),rhsMax =  -5.55566255928305E+01  1.60312150213704E+00
(PID.TID 0000.0001)  ploadbar=  1.01126843386675E+05
 cg2d: Sum(rhs),rhsMax =  -5.55105727428674E+01  1.60537679174573E+00
(PID.TID 0000.0001)  ploadbar=  1.01128325360030E+05
 cg2d: Sum(rhs),rhsMax =  -5.54805710006812E+01  1.60723621538535E+00
(PID.TID 0000.0001)  ploadbar=  1.01129807333384E+05
 cg2d: Sum(rhs),rhsMax =  -5.54618060714267E+01  1.60883728595549E+00
(PID.TID 0000.0001)  ploadbar=  1.01131289306739E+05
 cg2d: Sum(rhs),rhsMax =  -5.54537107914877E+01  1.61019407655307E+00
(PID.TID 0000.0001)  ploadbar=  1.01132771280093E+05
 cg2d: Sum(rhs),rhsMax =  -5.54545303310364E+01  1.61135446978094E+00
(PID.TID 0000.0001)  ploadbar=  1.01134253253448E+05
 cg2d: Sum(rhs),rhsMax =  -5.54529421869444E+01  1.61247346821926E+00
(PID.TID 0000.0001)  ploadbar=  1.01134838336961E+05
 cg2d: Sum(rhs),rhsMax =  -5.54505195530073E+01  1.61350334920115E+00
(PID.TID 0000.0001)  ploadbar=  1.01135423420475E+05
 cg2d: Sum(rhs),rhsMax =  -5.54378941311569E+01  1.61472180086402E+00
(PID.TID 0000.0001)  ploadbar=  1.01136008503988E+05
 cg2d: Sum(rhs),rhsMax =  -5.54121474863663E+01  1.61621963840218E+00
(PID.TID 0000.0001)  ploadbar=  1.01136593587502E+05
 cg2d: Sum(rhs),rhsMax =  -5.53709378739028E+01  1.61807143822721E+00
(PID.TID 0000.0001)  ploadbar=  1.01137178671015E+05
 cg2d: Sum(rhs),rhsMax =  -5.53137293989107E+01  1.62029756380091E+00
(PID.TID 0000.0001)  ploadbar=  1.01137763754529E+05
 cg2d: Sum(rhs),rhsMax =  -5.52760198542277E+01  1.62201411382745E+00
(PID.TID 0000.0001)  ploadbar=  1.01139707825406E+05
 cg2d: Sum(rhs),rhsMax =  -5.52438740378051E+01  1.62362761122189E+00
(PID.TID 0000.0001)  ploadbar=  1.01141651896282E+05
 cg2d: Sum(rhs),rhsMax =  -5.52209469686897E+01  1.62503561857277E+00
(PID.TID 0000.0001)  ploadbar=  1.01143595967159E+05
 cg2d: Sum(rhs),rhsMax =  -5.52130111736383E+01  1.62607281489962E+00
(PID.TID 0000.0001)  ploadbar=  1.01145540038036E+05
 cg2d: Sum(rhs),rhsMax =  -5.52199996995616E+01  1.62673747582428E+00
(PID.TID 0000.0001)  ploadbar=  1.01147484108912E+05
 cg2d: Sum(rhs),rhsMax =  -5.52392191874413E+01  1.62710886411811E+00
(PID.TID 0000.0001)  ploadbar=  1.01149428179789E+05
 cg2d: Sum(rhs),rhsMax =  -5.52628797051998E+01  1.62730513554270E+00
(PID.TID 0000.0001)  ploadbar=  1.01150408580517E+05
 cg2d: Sum(rhs),rhsMax =  -5.52913493400787E+01  1.62731812097347E+00
(PID.TID 0000.0001)  ploadbar=  1.01151388981245E+05
 cg2d: Sum(rhs),rhsMax =  -5.53299519197915E+01  1.62699574863421E+00
(PID.TID 0000.0001)  ploadbar=  1.01152369381974E+05
 cg2d: Sum(rhs),rhsMax =  -5.53768194384988E+01  1.62640129112318E+00
(PID.TID 0000.0001)  ploadbar=  1.01153349782702E+05
 cg2d: Sum(rhs),rhsMax =  -5.54333073574953E+01  1.62550067738857E+00
(PID.TID 0000.0001)  ploadbar=  1.01154330183430E+05
 cg2d: Sum(rhs),rhsMax =  -5.55003679525124E+01  1.62427097677375E+00
(PID.TID 0000.0001)  ploadbar=  1.01155310584159E+05
 cg2d: Sum(rhs),rhsMax =  -5.55698530871550E+01  1.62306163409002E+00
(PID.TID 0000.0001)  ploadbar=  1.01155631357877E+05
 cg2d: Sum(rhs),rhsMax =  -5.56463334173235E+01  1.62173789015034E+00
(PID.TID 0000.0001)  ploadbar=  1.01155952131596E+05
 cg2d: Sum(rhs),rhsMax =  -5.57331309074887E+01  1.62020446611020E+00
(PID.TID 0000.0001)  ploadbar=  1.01156272905314E+05
 cg2d: Sum(rhs),rhsMax =  -5.58306190958355E+01  1.61845286242254E+00
(PID.TID 0000.0001)  ploadbar=  1.01156593679032E+05
 cg2d: Sum(rhs),rhsMax =  -5.59384926163714E+01  1.61649302317204E+00
(PID.TID 0000.0001)  ploadbar=  1.01156914452751E+05
 cg2d: Sum(rhs),rhsMax =  -5.60563404537046E+01  1.61433972965016E+00
(PID.TID 0000.0001)  ploadbar=  1.01157235226469E+05
 cg2d: Sum(rhs),rhsMax =  -5.61732761534688E+01  1.61214368949341E+00
(PID.TID 0000.0001)  ploadbar=  1.01157461144989E+05
 cg2d: Sum(rhs),rhsMax =  -5.62924376474492E+01  1.60981596257500E+00
(PID.TID 0000.0001)  ploadbar=  1.01157687063508E+05
 cg2d: Sum(rhs),rhsMax =  -5.64120157247842E+01  1.60741161357020E+00
(PID.TID 0000.0001)  ploadbar=  1.01157912982027E+05
 cg2d: Sum(rhs),rhsMax =  -5.65286071454330E+01  1.60503124520571E+00
(PID.TID 0000.0001)  ploadbar=  1.01158138900546E+05
 cg2d: Sum(rhs),rhsMax =  -5.66387739088168E+01  1.60277589420066E+00
(PID.TID 0000.0001)  ploadbar=  1.01158364819065E+05
 cg2d: Sum(rhs),rhsMax =  -5.67393983888962E+01  1.60073783416263E+00
(PID.TID 0000.0001)  ploadbar=  1.01158590737585E+05
 cg2d: Sum(rhs),rhsMax =  -5.68381322442529E+01  1.59881157405964E+00
(PID.TID 0000.0001)  ploadbar=  1.01158598601625E+05
 cg2d: Sum(rhs),rhsMax =  -5.69269622539784E+01  1.59722024728081E+00
(PID.TID 0000.0001)  ploadbar=  1.01158606465666E+05
 cg2d: Sum(rhs),rhsMax =  -5.70028348031470E+01  1.59604781459551E+00
(PID.TID 0000.0001)  ploadbar=  1.01158614329707E+05
 cg2d: Sum(rhs),rhsMax =  -5.70664076415766E+01  1.59527595572091E+00
(PID.TID 0000.0001)  ploadbar=  1.01158622193748E+05
 cg2d: Sum(rhs),rhsMax =  -5.71186493012327E+01  1.59487565854238E+00
(PID.TID 0000.0001)  ploadbar=  1.01158630057789E+05
 cg2d: Sum(rhs),rhsMax =  -5.71603947621430E+01  1.59482361822428E+00
(PID.TID 0000.0001)  ploadbar=  1.01158637921830E+05
 cg2d: Sum(rhs),rhsMax =  -5.71872627165592E+01  1.59515838323941E+00
(PID.TID 0000.0001)  ploadbar=  1.01157854220366E+05
 cg2d: Sum(rhs),rhsMax =  -5.72033533497157E+01  1.59576887802755E+00
(PID.TID 0000.0001)  ploadbar=  1.01157070518902E+05
 cg2d: Sum(rhs),rhsMax =  -5.72071772687600E+01  1.59670609909392E+00
(PID.TID 0000.0001)  ploadbar=  1.01156286817438E+05
 cg2d: Sum(rhs),rhsMax =  -5.72010506083369E+01  1.59791752033403E+00
(PID.TID 0000.0001)  ploadbar=  1.01155503115974E+05
 cg2d: Sum(rhs),rhsMax =  -5.71868507160054E+01  1.59935299581273E+00
(PID.TID 0000.0001)  ploadbar=  1.01154719414510E+05
 cg2d: Sum(rhs),rhsMax =  -5.71661299938747E+01  1.60096870845279E+00
(PID.TID 0000.0001)  ploadbar=  1.01153935713046E+05
 cg2d: Sum(rhs),rhsMax =  -5.71491008250192E+01  1.60251838129094E+00
(PID.TID 0000.0001)  ploadbar=  1.01153124097338E+05
 cg2d: Sum(rhs),rhsMax =  -5.71316081140740E+01  1.60411583933825E+00
(PID.TID 0000.0001)  ploadbar=  1.01152312481630E+05
 cg2d: Sum(rhs),rhsMax =  -5.71126269462200E+01  1.60579158900065E+00
(PID.TID 0000.0001)  ploadbar=  1.01151500865922E+05
 cg2d: Sum(rhs),rhsMax =  -5.70937472893668E+01  1.60750299193289E+00
(PID.TID 0000.0001)  ploadbar=  1.01150689250213E+05
 cg2d: Sum(rhs),rhsMax =  -5.70753243198461E+01  1.60923854746059E+00
(PID.TID 0000.0001)  ploadbar=  1.01149877634505E+05
 cg2d: Sum(rhs),rhsMax =  -5.70680053766375E+01  1.61069825352945E+00
(PID.TID 0000.0001)  ploadbar=  1.01149066018797E+05
 cg2d: Sum(rhs),rhsMax =  -5.70613890670794E+01  1.61203309707968E+00
(PID.TID 0000.0001)  ploadbar=  1.01148741382566E+05
 cg2d: Sum(rhs),rhsMax =  -5.70562596832510E+01  1.61322218986655E+00
(PID.TID 0000.0001)  ploadbar=  1.01148416746336E+05
 cg2d: Sum(rhs),rhsMax =  -5.70553810383841E+01  1.61419263050004E+00
(PID.TID 0000.0001)  ploadbar=  1.01148092110105E+05
 cg2d: Sum(rhs),rhsMax =  -5.70600555631889E+01  1.61491015983358E+00
(PID.TID 0000.0001)  ploadbar=  1.01147767473875E+05
 cg2d: Sum(rhs),rhsMax =  -5.70709961317419E+01  1.61535770196749E+00
(PID.TID 0000.0001)  ploadbar=  1.01147442837644E+05
 cg2d: Sum(rhs),rhsMax =  -5.70890476410214E+01  1.61551125848324E+00
(PID.TID 0000.0001)  ploadbar=  1.01147118201414E+05
 cg2d: Sum(rhs),rhsMax =  -5.71154597713590E+01  1.61547108787740E+00
(PID.TID 0000.0001)  ploadbar=  1.01146220524335E+05
 cg2d: Sum(rhs),rhsMax =  -5.71460778477825E+01  1.61535341812369E+00
(PID.TID 0000.0001)  ploadbar=  1.01145322847257E+05
 cg2d: Sum(rhs),rhsMax =  -5.71794216282447E+01  1.61520177421135E+00
(PID.TID 0000.0001)  ploadbar=  1.01144425170179E+05
 cg2d: Sum(rhs),rhsMax =  -5.72134107844066E+01  1.61507556496984E+00
(PID.TID 0000.0001)  ploadbar=  1.01143527493101E+05
 cg2d: Sum(rhs),rhsMax =  -5.72463903295214E+01  1.61502137829316E+00
(PID.TID 0000.0001)  ploadbar=  1.01142629816022E+05
 cg2d: Sum(rhs),rhsMax =  -5.72773583767902E+01  1.61506753638421E+00
(PID.TID 0000.0001)  ploadbar=  1.01141732138944E+05
 cg2d: Sum(rhs),rhsMax =  -5.72963956679256E+01  1.61540867868538E+00
(PID.TID 0000.0001)  ploadbar=  1.01141047470121E+05
 cg2d: Sum(rhs),rhsMax =  -5.73073562703077E+01  1.61594120469859E+00
(PID.TID 0000.0001)  ploadbar=  1.01140362801297E+05
 cg2d: Sum(rhs),rhsMax =  -5.73122914120645E+01  1.61661343941945E+00
(PID.TID 0000.0001)  ploadbar=  1.01139678132474E+05
 cg2d: Sum(rhs),rhsMax =  -5.73110350187780E+01  1.61743113103970E+00
(PID.TID 0000.0001)  ploadbar=  1.01138993463651E+05
 cg2d: Sum(rhs),rhsMax =  -5.73043811623224E+01  1.61837399220700E+00
(PID.TID 0000.0001)  ploadbar=  1.01138308794827E+05
 cg2d: Sum(rhs),rhsMax =  -5.72937106468854E+01  1.61940439912250E+00
(PID.TID 0000.0001)  ploadbar=  1.01137624126004E+05
 cg2d: Sum(rhs),rhsMax =  -5.72866936617442E+01  1.62038236304300E+00
(PID.TID 0000.0001)  ploadbar=  1.01136898945751E+05
 cg2d: Sum(rhs),rhsMax =  -5.72795962442997E+01  1.62141249063191E+00
(PID.TID 0000.0001)  ploadbar=  1.01136173765498E+05
 cg2d: Sum(rhs),rhsMax =  -5.72747259063295E+01  1.62243081970693E+00
(PID.TID 0000.0001)  ploadbar=  1.01135448585245E+05
 cg2d: Sum(rhs),rhsMax =  -5.72718541198458E+01  1.62344218139403E+00
(PID.TID 0000.0001)  ploadbar=  1.01134723404992E+05
 cg2d: Sum(rhs),rhsMax =  -5.72706153472073E+01  1.62445517723501E+00
(PID.TID 0000.0001)  ploadbar=  1.01133998224739E+05
 cg2d: Sum(rhs),rhsMax =  -5.72713328481034E+01  1.62545913809195E+00
(PID.TID 0000.0001)  ploadbar=  1.01133273044486E+05
 cg2d: Sum(rhs),rhsMax =  -5.72663509938865E+01  1.62653876784782E+00
(PID.TID 0000.0001)  ploadbar=  1.01132354929650E+05
 cg2d: Sum(rhs),rhsMax =  -5.72602226608089E+01  1.62756379551566E+00
(PID.TID 0000.0001)  ploadbar=  1.01131436814815E+05
 cg2d: Sum(rhs),rhsMax =  -5.72530598877928E+01  1.62853419924796E+00
(PID.TID 0000.0001)  ploadbar=  1.01130518699979E+05
 cg2d: Sum(rhs),rhsMax =  -5.72441083871739E+01  1.62947039483939E+00
(PID.TID 0000.0001)  ploadbar=  1.01129600585144E+05
 cg2d: Sum(rhs),rhsMax =  -5.72350273099524E+01  1.63032759391014E+00
(PID.TID 0000.0001)  ploadbar=  1.01128682470308E+05
 cg2d: Sum(rhs),rhsMax =  -5.72264390513184E+01  1.63108644069322E+00
(PID.TID 0000.0001)  ploadbar=  1.01127764355472E+05
 cg2d: Sum(rhs),rhsMax =  -5.72250746855888E+01  1.63171737232749E+00
(PID.TID 0000.0001)  ploadbar=  1.01126020878325E+05
 cg2d: Sum(rhs),rhsMax =  -5.72333608912219E+01  1.63215038143658E+00
(PID.TID 0000.0001)  ploadbar=  1.01124277401178E+05
 cg2d: Sum(rhs),rhsMax =  -5.72508720736366E+01  1.63239659344548E+00
(PID.TID 0000.0001)  ploadbar=  1.01122533924031E+05
 cg2d: Sum(rhs),rhsMax =  -5.72779584657858E+01  1.63244441495961E+00
(PID.TID 0000.0001)  ploadbar=  1.01120790446884E+05
 cg2d: Sum(rhs),rhsMax =  -5.73159574447767E+01  1.63225364387664E+00
(PID.TID 0000.0001)  ploadbar=  1.01119046969737E+05
 cg2d: Sum(rhs),rhsMax =  -5.73657966810258E+01  1.63179682119411E+00
(PID.TID 0000.0001)  ploadbar=  1.01117303492590E+05
 cg2d: Sum(rhs),rhsMax =  -5.74178780889921E+01  1.63123273363121E+00
(PID.TID 0000.0001)  ploadbar=  1.01116071988899E+05
 cg2d: Sum(rhs),rhsMax =  -5.74801162102317E+01  1.63033904968480E+00
(PID.TID 0000.0001)  ploadbar=  1.01114840485209E+05
 cg2d: Sum(rhs),rhsMax =  -5.75521305336158E+01  1.62912816945580E+00
(PID.TID 0000.0001)  ploadbar=  1.01113608981518E+05
 cg2d: Sum(rhs),rhsMax =  -5.76331523224431E+01  1.62762084343260E+00
(PID.TID 0000.0001)  ploadbar=  1.01112377477827E+05
 cg2d: Sum(rhs),rhsMax =  -5.77226106294325E+01  1.62583419170150E+00
(PID.TID 0000.0001)  ploadbar=  1.01111145974137E+05
 cg2d: Sum(rhs),rhsMax =  -5.78192462905509E+01  1.62380647778137E+00
(PID.TID 0000.0001)  ploadbar=  1.01109914470446E+05
 cg2d: Sum(rhs),rhsMax =  -5.79254431048509E+01  1.62157597485244E+00
(PID.TID 0000.0001)  ploadbar=  1.01106933136417E+05
 cg2d: Sum(rhs),rhsMax =  -5.80418226581373E+01  1.61912873329648E+00
(PID.TID 0000.0001)  ploadbar=  1.01103951802388E+05
 cg2d: Sum(rhs),rhsMax =  -5.81654450540251E+01  1.61654719441948E+00
(PID.TID 0000.0001)  ploadbar=  1.01100970468358E+05
 cg2d: Sum(rhs),rhsMax =  -5.82941933674625E+01  1.61388919585826E+00
(PID.TID 0000.0001)  ploadbar=  1.01097989134329E+05
 cg2d: Sum(rhs),rhsMax =  -5.84266712961999E+01  1.61118958857900E+00
(PID.TID 0000.0001)  ploadbar=  1.01095007800300E+05
 cg2d: Sum(rhs),rhsMax =  -5.85611938044601E+01  1.60849369101047E+00
(PID.TID 0000.0001)  ploadbar=  1.01092026466271E+05
 cg2d: Sum(rhs),rhsMax =  -5.86899410584358E+01  1.60587527551231E+00
(PID.TID 0000.0001)  ploadbar=  1.01090978275003E+05
 cg2d: Sum(rhs),rhsMax =  -5.88124585967672E+01  1.60334549947543E+00
(PID.TID 0000.0001)  ploadbar=  1.01089930083735E+05
 cg2d: Sum(rhs),rhsMax =  -5.89282911297089E+01  1.60091498382926E+00
(PID.TID 0000.0001)  ploadbar=  1.01088881892467E+05
 cg2d: Sum(rhs),rhsMax =  -5.90374506279235E+01  1.59858286392665E+00
(PID.TID 0000.0001)  ploadbar=  1.01087833701200E+05
 cg2d: Sum(rhs),rhsMax =  -5.91405258754885E+01  1.59633344418484E+00
(PID.TID 0000.0001)  ploadbar=  1.01086785509932E+05
 cg2d: Sum(rhs),rhsMax =  -5.92380228287226E+01  1.59415398397918E+00
(PID.TID 0000.0001)  ploadbar=  1.01085737318664E+05
 cg2d: Sum(rhs),rhsMax =  -5.93314985703824E+01  1.59217006507800E+00
(PID.TID 0000.0001)  ploadbar=  1.01085895827018E+05
 cg2d: Sum(rhs),rhsMax =  -5.94289377809358E+01  1.59016533131946E+00
(PID.TID 0000.0001)  ploadbar=  1.01086054335372E+05
 cg2d: Sum(rhs),rhsMax =  -5.95291860759574E+01  1.58816980616264E+00
(PID.TID 0000.0001)  ploadbar=  1.01086212843726E+05
 cg2d: Sum(rhs),rhsMax =  -5.96322498932935E+01  1.58618356882833E+00
(PID.TID 0000.0001)  ploadbar=  1.01086371352080E+05
 cg2d: Sum(rhs),rhsMax =  -5.97384574975410E+01  1.58419995364079E+00
(PID.TID 0000.0001)  ploadbar=  1.01086529860433E+05
 cg2d: Sum(rhs),rhsMax =  -5.98474563560932E+01  1.58222959299058E+00
(PID.TID 0000.0001)  ploadbar=  1.01086688368787E+05
 cg2d: Sum(rhs),rhsMax =  -5.99577490318232E+01  1.58022134250294E+00
(PID.TID 0000.0001)  ploadbar=  1.01085783940595E+05
 cg2d: Sum(rhs),rhsMax =  -6.00642234604180E+01  1.57831267534694E+00
(PID.TID 0000.0001)  ploadbar=  1.01084879512403E+05
 cg2d: Sum(rhs),rhsMax =  -6.01655083333252E+01  1.57654355404687E+00
(PID.TID 0000.0001)  ploadbar=  1.01083975084211E+05
 cg2d: Sum(rhs),rhsMax =  -6.02617584759671E+01  1.57491245207370E+00
(PID.TID 0000.0001)  ploadbar=  1.01083070656019E+05
 cg2d: Sum(rhs),rhsMax =  -6.03517106243650E+01  1.57345647933659E+00
(PID.TID 0000.0001)  ploadbar=  1.01082166227827E+05
 cg2d: Sum(rhs),rhsMax =  -6.04343443387545E+01  1.57220211086896E+00
(PID.TID 0000.0001)  ploadbar=  1.01081261799634E+05
 cg2d: Sum(rhs),rhsMax =  -6.05193966702339E+01  1.57092490614470E+00
(PID.TID 0000.0001)  ploadbar=  1.01079810517372E+05
 cg2d: Sum(rhs),rhsMax =  -6.06029510725740E+01  1.56972807385464E+00
(PID.TID 0000.0001)  ploadbar=  1.01078359235110E+05
 cg2d: Sum(rhs),rhsMax =  -6.06854154796885E+01  1.56859937269287E+00
(PID.TID 0000.0001)  ploadbar=  1.01076907952848E+05
 cg2d: Sum(rhs),rhsMax =  -6.07692219649453E+01  1.56747579711129E+00
(PID.TID 0000.0001)  ploadbar=  1.01075456670586E+05
 cg2d: Sum(rhs),rhsMax =  -6.08545392936476E+01  1.56635499561772E+00
(PID.TID 0000.0001)  ploadbar=  1.01074005388324E+05
 cg2d: Sum(rhs),rhsMax =  -6.09415377190541E+01  1.56523213252202E+00
(PID.TID 0000.0001)  ploadbar=  1.01072554106062E+05
 cg2d: Sum(rhs),rhsMax =  -6.10331297174106E+01  1.56389182281465E+00
(PID.TID 0000.0001)  ploadbar=  1.01071922237422E+05
 cg2d: Sum(rhs),rhsMax =  -6.11188100464023E+01  1.56260446050029E+00
(PID.TID 0000.0001)  ploadbar=  1.01071290368782E+05
 cg2d: Sum(rhs),rhsMax =  -6.11983565338514E+01  1.56137619228806E+00
(PID.TID 0000.0001)  ploadbar=  1.01070658500141E+05
 cg2d: Sum(rhs),rhsMax =  -6.12728955779255E+01  1.56017960807761E+00
(PID.TID 0000.0001)  ploadbar=  1.01070026631501E+05
 cg2d: Sum(rhs),rhsMax =  -6.13422039006454E+01  1.55902333167014E+00
(PID.TID 0000.0001)  ploadbar=  1.01069394762861E+05
 cg2d: Sum(rhs),rhsMax =  -6.14066685972041E+01  1.55789768975787E+00
(PID.TID 0000.0001)  ploadbar=  1.01068762894220E+05
 cg2d: Sum(rhs),rhsMax =  -6.14698019404839E+01  1.55688190158782E+00
(PID.TID 0000.0001)  ploadbar=  1.01068452414673E+05
 cg2d: Sum(rhs),rhsMax =  -6.14973905774351E+01  1.55683995975549E+00
(PID.TID 0000.0001)  ploadbar=  1.01068141935125E+05
 cg2d: Sum(rhs),rhsMax =  -6.06397277516563E+01  1.57959872240091E+00
(PID.TID 0000.0001)  ploadbar=  1.01067831455578E+05
 cg2d: Sum(rhs),rhsMax =  -5.98051945047821E+01  1.60246454070622E+00
(PID.TID 0000.0001)  ploadbar=  1.01067520976030E+05
 cg2d: Sum(rhs),rhsMax =  -5.89946713100866E+01  1.62539011924923E+00
(PID.TID 0000.0001)  ploadbar=  1.01067210496483E+05
 cg2d: Sum(rhs),rhsMax =  -5.82089475773762E+01  1.64832772397285E+00
(PID.TID 0000.0001)  ploadbar=  1.01066900016935E+05
 cg2d: Sum(rhs),rhsMax =  -5.74605811454031E+01  1.67078870268652E+00
(PID.TID 0000.0001)  ploadbar=  1.01067159477641E+05
 cg2d: Sum(rhs),rhsMax =  -5.67416544705642E+01  1.69294828370431E+00
(PID.TID 0000.0001)  ploadbar=  1.01067418938346E+05
 cg2d: Sum(rhs),rhsMax =  -5.60455347671151E+01  1.71496930153299E+00
(PID.TID 0000.0001)  ploadbar=  1.01067678399051E+05
 cg2d: Sum(rhs),rhsMax =  -5.53701391215635E+01  1.73688939675234E+00
(PID.TID 0000.0001)  ploadbar=  1.01067937859757E+05
 cg2d: Sum(rhs),rhsMax =  -5.47100751884669E+01  1.75885530470564E+00
(PID.TID 0000.0001)  ploadbar=  1.01068197320462E+05
 cg2d: Sum(rhs),rhsMax =  -5.40622050066541E+01  1.78095085284720E+00
(PID.TID 0000.0001)  ploadbar=  1.01068456781167E+05
 cg2d: Sum(rhs),rhsMax =  -5.34579505106696E+01  1.80220205117992E+00
(PID.TID 0000.0001)  ploadbar=  1.01068522016617E+05
 cg2d: Sum(rhs),rhsMax =  -5.28751508868032E+01  1.82328911171910E+00
(PID.TID 0000.0001)  ploadbar=  1.01068587252068E+05
 cg2d: Sum(rhs),rhsMax =  -5.23422566825979E+01  1.84318157190437E+00
(PID.TID 0000.0001)  ploadbar=  1.01068652487518E+05
 cg2d: Sum(rhs),rhsMax =  -5.18727016738145E+01  1.86130344359543E+00
(PID.TID 0000.0001)  ploadbar=  1.01068717722968E+05
 cg2d: Sum(rhs),rhsMax =  -5.14682341004470E+01  1.87747710817150E+00
(PID.TID 0000.0001)  ploadbar=  1.01068782958418E+05
 cg2d: Sum(rhs),rhsMax =  -5.11301983946192E+01  1.89154433990583E+00
(PID.TID 0000.0001)  ploadbar=  1.01068848193869E+05
 cg2d: Sum(rhs),rhsMax =  -5.08720162319872E+01  1.90266512341645E+00
(PID.TID 0000.0001)  ploadbar=  1.01069903721491E+05
 cg2d: Sum(rhs),rhsMax =  -5.06867072920903E+01  1.91100586852606E+00
(PID.TID 0000.0001)  ploadbar=  1.01070959249113E+05
 cg2d: Sum(rhs),rhsMax =  -5.05776466246680E+01  1.91637353353919E+00
(PID.TID 0000.0001)  ploadbar=  1.01072014776735E+05
 cg2d: Sum(rhs),rhsMax =  -5.05408658212443E+01  1.91887820501374E+00
(PID.TID 0000.0001)  ploadbar=  1.01073070304357E+05
 cg2d: Sum(rhs),rhsMax =  -5.05732599044011E+01  1.91862345741678E+00
(PID.TID 0000.0001)  ploadbar=  1.01074125831979E+05
 cg2d: Sum(rhs),rhsMax =  -5.06310251271339E+01  1.91727411251087E+00
(PID.TID 0000.0001)  ploadbar=  1.01075181359601E+05
 cg2d: Sum(rhs),rhsMax =  -5.07238402729412E+01  1.91465149537516E+00
(PID.TID 0000.0001)  ploadbar=  1.01077198514796E+05
 cg2d: Sum(rhs),rhsMax =  -5.10080976105107E+01  1.90490681665210E+00
(PID.TID 0000.0001)  ploadbar=  1.01079215669990E+05
 cg2d: Sum(rhs),rhsMax =  -5.14249621541055E+01  1.89042670079616E+00
(PID.TID 0000.0001)  ploadbar=  1.01081232825185E+05
 cg2d: Sum(rhs),rhsMax =  -5.19480112321375E+01  1.87238954631614E+00
(PID.TID 0000.0001)  ploadbar=  1.01083249980379E+05
 cg2d: Sum(rhs),rhsMax =  -5.25617226470861E+01  1.85155787740480E+00
(PID.TID 0000.0001)  ploadbar=  1.01085267135574E+05
 cg2d: Sum(rhs),rhsMax =  -5.32605855256774E+01  1.82832313045222E+00
(PID.TID 0000.0001)  ploadbar=  1.01087284290768E+05
 cg2d: Sum(rhs),rhsMax =  -5.39391917959246E+01  1.80631175136738E+00
(PID.TID 0000.0001)  ploadbar=  1.01088210007314E+05
 cg2d: Sum(rhs),rhsMax =  -5.45825226595124E+01  1.78594883566528E+00
(PID.TID 0000.0001)  ploadbar=  1.01089135723860E+05
 cg2d: Sum(rhs),rhsMax =  -5.51923543158058E+01  1.76708641516983E+00
(PID.TID 0000.0001)  ploadbar=  1.01090061440407E+05
 cg2d: Sum(rhs),rhsMax =  -5.57687190681859E+01  1.74964877737560E+00
(PID.TID 0000.0001)  ploadbar=  1.01090987156953E+05
 cg2d: Sum(rhs),rhsMax =  -5.63151591675339E+01  1.73345139623045E+00
(PID.TID 0000.0001)  ploadbar=  1.01091912873499E+05
 cg2d: Sum(rhs),rhsMax =  -5.68231684124457E+01  1.71868787164592E+00
(PID.TID 0000.0001)  ploadbar=  1.01092838590045E+05
 cg2d: Sum(rhs),rhsMax =  -5.72746645977399E+01  1.70593708295805E+00
(PID.TID 0000.0001)  ploadbar=  1.01093372586079E+05
 cg2d: Sum(rhs),rhsMax =  -5.76765643648483E+01  1.69491043398888E+00
(PID.TID 0000.0001)  ploadbar=  1.01093906582113E+05
 cg2d: Sum(rhs),rhsMax =  -5.81034500237287E+01  1.68338030416504E+00
(PID.TID 0000.0001)  ploadbar=  1.01094440578147E+05
 cg2d: Sum(rhs),rhsMax =  -5.85236441833775E+01  1.67227709279368E+00
(PID.TID 0000.0001)  ploadbar=  1.01094974574181E+05
 cg2d: Sum(rhs),rhsMax =  -5.89195818735148E+01  1.66208241540535E+00
(PID.TID 0000.0001)  ploadbar=  1.01095508570215E+05
 cg2d: Sum(rhs),rhsMax =  -5.92887885573093E+01  1.65283382769445E+00
(PID.TID 0000.0001)  ploadbar=  1.01096042566249E+05
 cg2d: Sum(rhs),rhsMax =  -5.96335375608412E+01  1.64430533817323E+00
(PID.TID 0000.0001)  ploadbar=  1.01096870673215E+05
 cg2d: Sum(rhs),rhsMax =  -5.99548830017289E+01  1.63644551519087E+00
(PID.TID 0000.0001)  ploadbar=  1.01097698780181E+05
 cg2d: Sum(rhs),rhsMax =  -6.02502377185015E+01  1.62930918323665E+00
(PID.TID 0000.0001)  ploadbar=  1.01098526887147E+05
 cg2d: Sum(rhs),rhsMax =  -6.05216877223367E+01  1.62282483447231E+00
(PID.TID 0000.0001)  ploadbar=  1.01099354994113E+05
 cg2d: Sum(rhs),rhsMax =  -6.07705448036689E+01  1.61694490498813E+00
(PID.TID 0000.0001)  ploadbar=  1.01100183101079E+05
 cg2d: Sum(rhs),rhsMax =  -6.09985192878173E+01  1.61161381100440E+00
(PID.TID 0000.0001)  ploadbar=  1.01101011208045E+05
 cg2d: Sum(rhs),rhsMax =  -6.11609152821363E+01  1.60809001765509E+00
(PID.TID 0000.0001)  ploadbar=  1.01102741562178E+05
 cg2d: Sum(rhs),rhsMax =  -6.13054271558616E+01  1.60509751763911E+00
(PID.TID 0000.0001)  ploadbar=  1.01104471916311E+05
 cg2d: Sum(rhs),rhsMax =  -6.14639410050439E+01  1.60179903331970E+00
(PID.TID 0000.0001)  ploadbar=  1.01106202270444E+05
 cg2d: Sum(rhs),rhsMax =  -6.16299683154034E+01  1.59836813501518E+00
(PID.TID 0000.0001)  ploadbar=  1.01107932624577E+05
 cg2d: Sum(rhs),rhsMax =  -6.17984388244238E+01  1.59493876583597E+00
(PID.TID 0000.0001)  ploadbar=  1.01109662978710E+05
 cg2d: Sum(rhs),rhsMax =  -6.19690289951234E+01  1.59152176184485E+00
(PID.TID 0000.0001)  ploadbar=  1.01111393332843E+05
 cg2d: Sum(rhs),rhsMax =  -6.21404988827794E+01  1.58808950954614E+00
(PID.TID 0000.0001)  ploadbar=  1.01111949743183E+05
 cg2d: Sum(rhs),rhsMax =  -6.23193090759886E+01  1.58448440695483E+00
(PID.TID 0000.0001)  ploadbar=  1.01112506153524E+05
 cg2d: Sum(rhs),rhsMax =  -6.25038935572087E+01  1.58075569983974E+00
(PID.TID 0000.0001)  ploadbar=  1.01113062563864E+05
 cg2d: Sum(rhs),rhsMax =  -6.26963120481542E+01  1.57685582964665E+00
(PID.TID 0000.0001)  ploadbar=  1.01113618974204E+05
 cg2d: Sum(rhs),rhsMax =  -6.28917352652414E+01  1.57290999141230E+00
(PID.TID 0000.0001)  ploadbar=  1.01114175384545E+05
 cg2d: Sum(rhs),rhsMax =  -6.30837084046760E+01  1.56908074450703E+00
(PID.TID 0000.0001)  ploadbar=  1.01114731794885E+05
 cg2d: Sum(rhs),rhsMax =  -6.32483859956845E+01  1.56599603912084E+00
(PID.TID 0000.0001)  ploadbar=  1.01114458854136E+05
 cg2d: Sum(rhs),rhsMax =  -6.34077870685856E+01  1.56310366180059E+00
(PID.TID 0000.0001)  ploadbar=  1.01114185913386E+05
 cg2d: Sum(rhs),rhsMax =  -6.35606032719364E+01  1.56043352745258E+00
(PID.TID 0000.0001)  ploadbar=  1.01113912972637E+05
 cg2d: Sum(rhs),rhsMax =  -6.37040691002867E+01  1.55805150574190E+00
(PID.TID 0000.0001)  ploadbar=  1.01113640031888E+05
 cg2d: Sum(rhs),rhsMax =  -6.38366568169289E+01  1.55599200163234E+00
(PID.TID 0000.0001)  ploadbar=  1.01113367091138E+05
 cg2d: Sum(rhs),rhsMax =  -6.39594721565404E+01  1.55422407913145E+00
(PID.TID 0000.0001)  ploadbar=  1.01113094150389E+05
 cg2d: Sum(rhs),rhsMax =  -6.40706679071369E+01  1.55267844440204E+00
(PID.TID 0000.0001)  ploadbar=  1.01112241067451E+05
 cg2d: Sum(rhs),rhsMax =  -6.41786119119602E+01  1.55115116734584E+00
(PID.TID 0000.0001)  ploadbar=  1.01111387984513E+05
 cg2d: Sum(rhs),rhsMax =  -6.42935104434755E+01  1.54939666032035E+00
(PID.TID 0000.0001)  ploadbar=  1.01110534901575E+05
 cg2d: Sum(rhs),rhsMax =  -6.44132163724949E+01  1.54746903137879E+00
(PID.TID 0000.0001)  ploadbar=  1.01109681818637E+05
 cg2d: Sum(rhs),rhsMax =  -6.45320435071682E+01  1.54550778359762E+00
(PID.TID 0000.0001)  ploadbar=  1.01108828735700E+05
 cg2d: Sum(rhs),rhsMax =  -6.46470349649325E+01  1.54358266549603E+00
(PID.TID 0000.0001)  ploadbar=  1.01107975652762E+05
 cg2d: Sum(rhs),rhsMax =  -6.47346980503164E+01  1.54238083546644E+00
(PID.TID 0000.0001)  ploadbar=  1.01107176299239E+05
 cg2d: Sum(rhs),rhsMax =  -6.48061826424294E+01  1.54163289605043E+00
(PID.TID 0000.0001)  ploadbar=  1.01106376945716E+05
 cg2d: Sum(rhs),rhsMax =  -6.48539242567202E+01  1.54151790605875E+00
(PID.TID 0000.0001)  ploadbar=  1.01105577592194E+05
 cg2d: Sum(rhs),rhsMax =  -6.48682971418264E+01  1.54226598350130E+00
(PID.TID 0000.0001)  ploadbar=  1.01104778238671E+05
 cg2d: Sum(rhs),rhsMax =  -6.48417315341620E+01  1.54405871717805E+00
(PID.TID 0000.0001)  ploadbar=  1.01103978885148E+05
 cg2d: Sum(rhs),rhsMax =  -6.47658235737486E+01  1.54710181075082E+00
(PID.TID 0000.0001)  ploadbar=  1.01103179531625E+05
 cg2d: Sum(rhs),rhsMax =  -6.46251580574210E+01  1.55165142734275E+00
(PID.TID 0000.0001)  ploadbar=  1.01102663006295E+05
 cg2d: Sum(rhs),rhsMax =  -6.44592762190426E+01  1.55678156621525E+00
(PID.TID 0000.0001)  ploadbar=  1.01102146480964E+05
 cg2d: Sum(rhs),rhsMax =  -6.42975318415293E+01  1.56179493105288E+00
(PID.TID 0000.0001)  ploadbar=  1.01101629955633E+05
 cg2d: Sum(rhs),rhsMax =  -6.41718533565650E+01  1.56591153693556E+00
(PID.TID 0000.0001)  ploadbar=  1.01101113430302E+05
 cg2d: Sum(rhs),rhsMax =  -6.38472265614493E+01  1.57489897400104E+00
(PID.TID 0000.0001)  ploadbar=  1.01100596904971E+05
 cg2d: Sum(rhs),rhsMax =  -6.35071823841050E+01  1.58432402711571E+00
(PID.TID 0000.0001)  ploadbar=  1.01100080379640E+05
 cg2d: Sum(rhs),rhsMax =  -6.31315446371259E+01  1.59480268949877E+00
(PID.TID 0000.0001)  ploadbar=  1.01099658312403E+05
 cg2d: Sum(rhs),rhsMax =  -6.26955913869139E+01  1.60700492391809E+00
(PID.TID 0000.0001)  ploadbar=  1.01099236245166E+05
 cg2d: Sum(rhs),rhsMax =  -6.09036367105797E+01  1.65548868232067E+00
(PID.TID 0000.0001)  ploadbar=  1.01098814177928E+05
 cg2d: Sum(rhs),rhsMax =  -5.89629714906446E+01  1.71127553021235E+00
(PID.TID 0000.0001)  ploadbar=  1.01098392110691E+05
 cg2d: Sum(rhs),rhsMax =  -5.72243409654246E+01  1.76466943901238E+00
(PID.TID 0000.0001)  ploadbar=  1.01097970043454E+05
 cg2d: Sum(rhs),rhsMax =  -5.56734817746854E+01  1.81533227802383E+00
(PID.TID 0000.0001)  ploadbar=  1.01097547976217E+05
 cg2d: Sum(rhs),rhsMax =  -5.43733767233255E+01  1.86022371181975E+00
(PID.TID 0000.0001)  ploadbar=  1.01096505994592E+05
 cg2d: Sum(rhs),rhsMax =  -5.31732211255389E+01  1.90367673884579E+00
(PID.TID 0000.0001)  ploadbar=  1.01095464012967E+05
 cg2d: Sum(rhs),rhsMax =  -5.20446393632353E+01  1.94640238611111E+00
(PID.TID 0000.0001)  ploadbar=  1.01094422031342E+05
 cg2d: Sum(rhs),rhsMax =  -5.09541603654986E+01  1.98948026242338E+00
(PID.TID 0000.0001)  ploadbar=  1.01093380049717E+05
 cg2d: Sum(rhs),rhsMax =  -4.98719854168555E+01  2.03405213524208E+00
(PID.TID 0000.0001)  ploadbar=  1.01092338068093E+05
 cg2d: Sum(rhs),rhsMax =  -4.88845572550421E+01  2.07651499405098E+00
(PID.TID 0000.0001)  ploadbar=  1.01091296086468E+05
 cg2d: Sum(rhs),rhsMax =  -4.81796332053233E+01  2.10834295255564E+00
(PID.TID 0000.0001)  ploadbar=  1.01091188720048E+05
 cg2d: Sum(rhs),rhsMax =  -4.77790137302328E+01  2.12752779204249E+00
(PID.TID 0000.0001)  ploadbar=  1.01091081353628E+05
 cg2d: Sum(rhs),rhsMax =  -4.76197529654379E+01  2.13620365930493E+00
(PID.TID 0000.0001)  ploadbar=  1.01090973987208E+05
 cg2d: Sum(rhs),rhsMax =  -4.80467292422553E+01  2.11881686090526E+00
(PID.TID 0000.0001)  ploadbar=  1.01090866620788E+05
 cg2d: Sum(rhs),rhsMax =  -4.92630037366779E+01  2.06810796544704E+00
(PID.TID 0000.0001)  ploadbar=  1.01090759254369E+05
 cg2d: Sum(rhs),rhsMax =  -5.03757477323820E+01  2.02403767391897E+00
(PID.TID 0000.0001)  ploadbar=  1.01090651887949E+05
 cg2d: Sum(rhs),rhsMax =  -5.13143380720141E+01  1.98854810094547E+00
(PID.TID 0000.0001)  ploadbar=  1.01091005796785E+05
 cg2d: Sum(rhs),rhsMax =  -5.21978723137692E+01  1.95635016407955E+00
(PID.TID 0000.0001)  ploadbar=  1.01091359705621E+05
 cg2d: Sum(rhs),rhsMax =  -5.30445324274788E+01  1.92652027455865E+00
(PID.TID 0000.0001)  ploadbar=  1.01091713614457E+05
 cg2d: Sum(rhs),rhsMax =  -5.38565233752883E+01  1.89880996542886E+00
(PID.TID 0000.0001)  ploadbar=  1.01092067523293E+05
 cg2d: Sum(rhs),rhsMax =  -5.20822726969445E+01  1.96483662380294E+00
(PID.TID 0000.0001)  ploadbar=  1.01092421432129E+05
 cg2d: Sum(rhs),rhsMax =  -5.07063164802752E+01  2.01949146460665E+00
(PID.TID 0000.0001)  ploadbar=  1.01092775340965E+05
 cg2d: Sum(rhs),rhsMax =  -5.01440350913548E+01  2.04352415922052E+00
(PID.TID 0000.0001)  ploadbar=  1.01093195952812E+05
 cg2d: Sum(rhs),rhsMax =  -5.02565432616154E+01  2.04036883402874E+00
(PID.TID 0000.0001)  ploadbar=  1.01093616564659E+05
 cg2d: Sum(rhs),rhsMax =  -5.09518459114531E+01  2.01395991579976E+00
(PID.TID 0000.0001)  ploadbar=  1.01094037176505E+05
 cg2d: Sum(rhs),rhsMax =  -5.17595168579671E+01  1.98397929293073E+00
(PID.TID 0000.0001)  ploadbar=  1.01094457788352E+05
 cg2d: Sum(rhs),rhsMax =  -5.25651245855923E+01  1.95503026747852E+00
(PID.TID 0000.0001)  ploadbar=  1.01094878400199E+05
 cg2d: Sum(rhs),rhsMax =  -5.33125014766949E+01  1.92909104051809E+00
(PID.TID 0000.0001)  ploadbar=  1.01095299012046E+05
 cg2d: Sum(rhs),rhsMax =  -5.39085887420047E+01  1.90913818909715E+00
(PID.TID 0000.0001)  ploadbar=  1.01094961351838E+05
 cg2d: Sum(rhs),rhsMax =  -5.44229355308332E+01  1.89238738649171E+00
(PID.TID 0000.0001)  ploadbar=  1.01094623691631E+05
 cg2d: Sum(rhs),rhsMax =  -5.48747669164272E+01  1.87801698798114E+00
(PID.TID 0000.0001)  ploadbar=  1.01094286031424E+05
 cg2d: Sum(rhs),rhsMax =  -5.53022051427252E+01  1.86463542406601E+00
(PID.TID 0000.0001)  ploadbar=  1.01093948371216E+05
 cg2d: Sum(rhs),rhsMax =  -5.57916055289610E+01  1.84933588943052E+00
(PID.TID 0000.0001)  ploadbar=  1.01093610711009E+05
 cg2d: Sum(rhs),rhsMax =  -5.63770965935575E+01  1.83110767568774E+00
(PID.TID 0000.0001)  ploadbar=  1.01093273050802E+05
 cg2d: Sum(rhs),rhsMax =  -5.70297923886647E+01  1.81116775025403E+00
(PID.TID 0000.0001)  ploadbar=  1.01094350026331E+05
 cg2d: Sum(rhs),rhsMax =  -5.76227531511330E+01  1.79358523698460E+00
(PID.TID 0000.0001)  ploadbar=  1.01095427001860E+05
 cg2d: Sum(rhs),rhsMax =  -5.71288781015734E+01  1.81020114882689E+00
(PID.TID 0000.0001)  ploadbar=  1.01096503977390E+05
 cg2d: Sum(rhs),rhsMax =  -5.67219369731953E+01  1.82435229972524E+00
(PID.TID 0000.0001)  ploadbar=  1.01097580952919E+05
 cg2d: Sum(rhs),rhsMax =  -5.64059127532458E+01  1.83579024477804E+00
(PID.TID 0000.0001)  ploadbar=  1.01098657928449E+05
 cg2d: Sum(rhs),rhsMax =  -5.61774694451415E+01  1.84452086871240E+00
(PID.TID 0000.0001)  ploadbar=  1.01099734903978E+05
 cg2d: Sum(rhs),rhsMax =  -5.59486005265216E+01  1.85331060171536E+00
(PID.TID 0000.0001)  ploadbar=  1.01099760582590E+05
 cg2d: Sum(rhs),rhsMax =  -5.57414910822115E+01  1.86142276306109E+00
(PID.TID 0000.0001)  ploadbar=  1.01099786261202E+05
 cg2d: Sum(rhs),rhsMax =  -5.55561048297554E+01  1.86884693250611E+00
(PID.TID 0000.0001)  ploadbar=  1.01099811939814E+05
 cg2d: Sum(rhs),rhsMax =  -5.53650530211220E+01  1.87649405078398E+00
(PID.TID 0000.0001)  ploadbar=  1.01099837618426E+05
 cg2d: Sum(rhs),rhsMax =  -5.51546265521340E+01  1.88483652217140E+00
(PID.TID 0000.0001)  ploadbar=  1.01099863297039E+05
 cg2d: Sum(rhs),rhsMax =  -5.49165102984913E+01  1.89417863824064E+00
(PID.TID 0000.0001)  ploadbar=  1.01099888975651E+05
 cg2d: Sum(rhs),rhsMax =  -5.46210908922131E+01  1.90563475642234E+00
(PID.TID 0000.0001)  ploadbar=  1.01099702918318E+05
 cg2d: Sum(rhs),rhsMax =  -5.42664578799473E+01  1.91934653666369E+00
(PID.TID 0000.0001)  ploadbar=  1.01099516860985E+05
 cg2d: Sum(rhs),rhsMax =  -5.38593828568774E+01  1.93516069010241E+00
(PID.TID 0000.0001)  ploadbar=  1.01099330803652E+05
 cg2d: Sum(rhs),rhsMax =  -5.34032289968595E+01  1.95304818976208E+00
(PID.TID 0000.0001)  ploadbar=  1.01099144746319E+05
 cg2d: Sum(rhs),rhsMax =  -5.29021779302918E+01  1.97295842905082E+00
(PID.TID 0000.0001)  ploadbar=  1.01098958688986E+05
 cg2d: Sum(rhs),rhsMax =  -5.23625155798137E+01  1.99476380763552E+00
(PID.TID 0000.0001)  ploadbar=  1.01098772631653E+05
 cg2d: Sum(rhs),rhsMax =  -5.18316009340179E+01  2.01663566228962E+00
(PID.TID 0000.0001)  ploadbar=  1.01099451948385E+05
 cg2d: Sum(rhs),rhsMax =  -5.13008318750745E+01  2.03890267836166E+00
(PID.TID 0000.0001)  ploadbar=  1.01100131265117E+05
 cg2d: Sum(rhs),rhsMax =  -5.07797910055687E+01  2.06119029665732E+00
(PID.TID 0000.0001)  ploadbar=  1.01100810581850E+05
 cg2d: Sum(rhs),rhsMax =  -5.03064768818411E+01  2.08191295319572E+00
(PID.TID 0000.0001)  ploadbar=  1.01101489898582E+05
 cg2d: Sum(rhs),rhsMax =  -4.99043666505405E+01  2.09997869999723E+00
(PID.TID 0000.0001)  ploadbar=  1.01102169215314E+05
 cg2d: Sum(rhs),rhsMax =  -4.95820460818233E+01  2.11487710010099E+00
(PID.TID 0000.0001)  ploadbar=  1.01102848532047E+05
 cg2d: Sum(rhs),rhsMax =  -4.93685943604041E+01  2.12533261687783E+00
(PID.TID 0000.0001)  ploadbar=  1.01103152329438E+05
 cg2d: Sum(rhs),rhsMax =  -4.92428527362176E+01  2.13213339047770E+00
(PID.TID 0000.0001)  ploadbar=  1.01103456126830E+05
 cg2d: Sum(rhs),rhsMax =  -4.91896707512394E+01  2.13587177726263E+00
(PID.TID 0000.0001)  ploadbar=  1.01103759924222E+05
 cg2d: Sum(rhs),rhsMax =  -4.92815352171852E+01  2.13337662557799E+00
(PID.TID 0000.0001)  ploadbar=  1.01104063721614E+05
 cg2d: Sum(rhs),rhsMax =  -4.95774228250923E+01  2.12217888651357E+00
(PID.TID 0000.0001)  ploadbar=  1.01104367519006E+05
 cg2d: Sum(rhs),rhsMax =  -5.00421904646604E+01  2.10404682464421E+00
(PID.TID 0000.0001)  ploadbar=  1.01104671316398E+05
 cg2d: Sum(rhs),rhsMax =  -5.04830105163072E+01  2.08723949353887E+00
(PID.TID 0000.0001)  ploadbar=  1.01104487671199E+05
 cg2d: Sum(rhs),rhsMax =  -5.09121047847377E+01  2.07120453364849E+00
(PID.TID 0000.0001)  ploadbar=  1.01104304026000E+05
 cg2d: Sum(rhs),rhsMax =  -5.13175613593437E+01  2.05639227301247E+00
(PID.TID 0000.0001)  ploadbar=  1.01104120380801E+05
 cg2d: Sum(rhs),rhsMax =  -5.16900068802761E+01  2.04312320071476E+00
(PID.TID 0000.0001)  ploadbar=  1.01103936735602E+05
 cg2d: Sum(rhs),rhsMax =  -5.20340373385941E+01  2.03116023721308E+00
(PID.TID 0000.0001)  ploadbar=  1.01103753090403E+05
 cg2d: Sum(rhs),rhsMax =  -5.23473482421184E+01  2.02054603333142E+00
(PID.TID 0000.0001)  ploadbar=  1.01103569445204E+05
 cg2d: Sum(rhs),rhsMax =  -5.26192303003726E+01  2.01168926429773E+00
(PID.TID 0000.0001)  ploadbar=  1.01103192413891E+05
 cg2d: Sum(rhs),rhsMax =  -5.28699650668206E+01  2.00377265617866E+00
(PID.TID 0000.0001)  ploadbar=  1.01102815382579E+05
 cg2d: Sum(rhs),rhsMax =  -5.30988834157021E+01  1.99679863405175E+00
(PID.TID 0000.0001)  ploadbar=  1.01102438351266E+05
 cg2d: Sum(rhs),rhsMax =  -5.33092644190981E+01  1.99062122563793E+00
(PID.TID 0000.0001)  ploadbar=  1.01102061319953E+05
 cg2d: Sum(rhs),rhsMax =  -5.35010249499497E+01  1.98522784453215E+00
(PID.TID 0000.0001)  ploadbar=  1.01101684288641E+05
 cg2d: Sum(rhs),rhsMax =  -5.36772991866979E+01  1.98048775182559E+00
(PID.TID 0000.0001)  ploadbar=  1.01101307257328E+05
 cg2d: Sum(rhs),rhsMax =  -5.38176906789612E+01  1.97699635313639E+00
(PID.TID 0000.0001)  ploadbar=  1.01100994505835E+05
 cg2d: Sum(rhs),rhsMax =  -5.39547464149058E+01  1.97354488501176E+00
(PID.TID 0000.0001)  ploadbar=  1.01100681754343E+05
 cg2d: Sum(rhs),rhsMax =  -5.40856883952857E+01  1.97023477379966E+00
(PID.TID 0000.0001)  ploadbar=  1.01100369002850E+05
 cg2d: Sum(rhs),rhsMax =  -5.42120913812720E+01  1.96700637972252E+00
(PID.TID 0000.0001)  ploadbar=  1.01100056251357E+05
 cg2d: Sum(rhs),rhsMax =  -5.43331348030968E+01  1.96388786482021E+00
(PID.TID 0000.0001)  ploadbar=  1.01099743499864E+05
 cg2d: Sum(rhs),rhsMax =  -5.44469099921420E+01  1.96094318294205E+00
(PID.TID 0000.0001)  ploadbar=  1.01099430748372E+05
 cg2d: Sum(rhs),rhsMax =  -5.45747146058557E+01  1.95754033366596E+00
(PID.TID 0000.0001)  ploadbar=  1.01099674921917E+05
 cg2d: Sum(rhs),rhsMax =  -5.47063085254620E+01  1.95404985899844E+00
(PID.TID 0000.0001)  ploadbar=  1.01099919095463E+05
 cg2d: Sum(rhs),rhsMax =  -5.48415352137892E+01  1.95047960219534E+00
(PID.TID 0000.0001)  ploadbar=  1.01100163269008E+05
 cg2d: Sum(rhs),rhsMax =  -5.49787836920268E+01  1.94688946812270E+00
(PID.TID 0000.0001)  ploadbar=  1.01100407442554E+05
 cg2d: Sum(rhs),rhsMax =  -5.51189928493630E+01  1.94324460049291E+00
(PID.TID 0000.0001)  ploadbar=  1.01100651616100E+05
 cg2d: Sum(rhs),rhsMax =  -5.52628197689892E+01  1.93952475131776E+00
(PID.TID 0000.0001)  ploadbar=  1.01100895789645E+05
 cg2d: Sum(rhs),rhsMax =  -5.53798832851308E+01  1.93674175822887E+00
(PID.TID 0000.0001)  ploadbar=  1.01100607174328E+05
 cg2d: Sum(rhs),rhsMax =  -5.55021902892130E+01  1.93377345939256E+00
(PID.TID 0000.0001)  ploadbar=  1.01100318559010E+05
 cg2d: Sum(rhs),rhsMax =  -5.56297954693065E+01  1.93062168286588E+00
(PID.TID 0000.0001)  ploadbar=  1.01100029943692E+05
 cg2d: Sum(rhs),rhsMax =  -5.57602922736925E+01  1.92737296225490E+00
(PID.TID 0000.0001)  ploadbar=  1.01099741328375E+05
 cg2d: Sum(rhs),rhsMax =  -5.58924666662445E+01  1.92406892108539E+00
(PID.TID 0000.0001)  ploadbar=  1.01099452713057E+05
 cg2d: Sum(rhs),rhsMax =  -5.60237773871701E+01  1.92079526211372E+00
(PID.TID 0000.0001)  ploadbar=  1.01099164097739E+05
 cg2d: Sum(rhs),rhsMax =  -5.61465876344984E+01  1.91785727141087E+00
(PID.TID 0000.0001)  ploadbar=  1.01098499160666E+05
 cg2d: Sum(rhs),rhsMax =  -5.62669494749749E+01  1.91505030257274E+00
(PID.TID 0000.0001)  ploadbar=  1.01097834223592E+05
 cg2d: Sum(rhs),rhsMax =  -5.63914239332127E+01  1.91215095209193E+00
(PID.TID 0000.0001)  ploadbar=  1.01097169286519E+05
 cg2d: Sum(rhs),rhsMax =  -5.65142554048105E+01  1.90935232967128E+00
(PID.TID 0000.0001)  ploadbar=  1.01096504349445E+05
 cg2d: Sum(rhs),rhsMax =  -5.66333040958963E+01  1.90672382505556E+00
(PID.TID 0000.0001)  ploadbar=  1.01095839412372E+05
 cg2d: Sum(rhs),rhsMax =  -5.67467293672788E+01  1.90432379876890E+00
(PID.TID 0000.0001)  ploadbar=  1.01095174475298E+05
 cg2d: Sum(rhs),rhsMax =  -5.68620338870707E+01  1.90181023570767E+00
(PID.TID 0000.0001)  ploadbar=  1.01094349269527E+05
 cg2d: Sum(rhs),rhsMax =  -5.69604777960068E+01  1.89980766720828E+00
(PID.TID 0000.0001)  ploadbar=  1.01093524063756E+05
 cg2d: Sum(rhs),rhsMax =  -5.70470767393466E+01  1.89814382620424E+00
(PID.TID 0000.0001)  ploadbar=  1.01092698857985E+05
 cg2d: Sum(rhs),rhsMax =  -5.71188555558099E+01  1.89691399108274E+00
(PID.TID 0000.0001)  ploadbar=  1.01091873652214E+05
 cg2d: Sum(rhs),rhsMax =  -5.71730510049481E+01  1.89620555095753E+00
(PID.TID 0000.0001)  ploadbar=  1.01091048446443E+05
 cg2d: Sum(rhs),rhsMax =  -5.72110577401292E+01  1.89597071566553E+00
(PID.TID 0000.0001)  ploadbar=  1.01090223240672E+05
 cg2d: Sum(rhs),rhsMax =  -5.72560962357140E+01  1.89553486789608E+00
(PID.TID 0000.0001)  ploadbar=  1.01089888669173E+05
 cg2d: Sum(rhs),rhsMax =  -5.72954497041282E+01  1.89531757555611E+00
(PID.TID 0000.0001)  ploadbar=  1.01089554097673E+05
 cg2d: Sum(rhs),rhsMax =  -5.73367906613266E+01  1.89506453228267E+00
(PID.TID 0000.0001)  ploadbar=  1.01089219526174E+05
 cg2d: Sum(rhs),rhsMax =  -5.73802588005433E+01  1.89476865397892E+00
(PID.TID 0000.0001)  ploadbar=  1.01088884954674E+05
 cg2d: Sum(rhs),rhsMax =  -5.74233646708884E+01  1.89451235404071E+00
(PID.TID 0000.0001)  ploadbar=  1.01088550383174E+05
 cg2d: Sum(rhs),rhsMax =  -5.74659387165740E+01  1.89430174264366E+00
(PID.TID 0000.0001)  ploadbar=  1.01088215811675E+05
 cg2d: Sum(rhs),rhsMax =  -5.74901993006392E+01  1.89470714651217E+00
(PID.TID 0000.0001)  ploadbar=  1.01087936964859E+05
 cg2d: Sum(rhs),rhsMax =  -5.75191354058367E+01  1.89497202784069E+00
(PID.TID 0000.0001)  ploadbar=  1.01087658118044E+05
 cg2d: Sum(rhs),rhsMax =  -5.75510293945497E+01  1.89515318593056E+00
(PID.TID 0000.0001)  ploadbar=  1.01087379271228E+05
 cg2d: Sum(rhs),rhsMax =  -5.75917221545839E+01  1.89505694221377E+00
(PID.TID 0000.0001)  ploadbar=  1.01087100424412E+05
 cg2d: Sum(rhs),rhsMax =  -5.76418895617223E+01  1.89465968355235E+00
(PID.TID 0000.0001)  ploadbar=  1.01086821577597E+05
 cg2d: Sum(rhs),rhsMax =  -5.77003828289774E+01  1.89399809821993E+00
(PID.TID 0000.0001)  ploadbar=  1.01086542730781E+05
 cg2d: Sum(rhs),rhsMax =  -5.77823204789297E+01  1.89257053736597E+00
(PID.TID 0000.0001)  ploadbar=  1.01086381754447E+05
 cg2d: Sum(rhs),rhsMax =  -5.76527207292886E+01  1.89808798018777E+00
(PID.TID 0000.0001)  ploadbar=  1.01086220778112E+05
 cg2d: Sum(rhs),rhsMax =  -5.74725944112102E+01  1.90530783321542E+00
(PID.TID 0000.0001)  ploadbar=  1.01086059801778E+05
 cg2d: Sum(rhs),rhsMax =  -5.73197801801279E+01  1.91166712883626E+00
(PID.TID 0000.0001)  ploadbar=  1.01085898825444E+05
 cg2d: Sum(rhs),rhsMax =  -5.71948024809624E+01  1.91713092546274E+00
(PID.TID 0000.0001)  ploadbar=  1.01085737849109E+05
 cg2d: Sum(rhs),rhsMax =  -5.70918506890904E+01  1.92188041012597E+00
(PID.TID 0000.0001)  ploadbar=  1.01085576872775E+05
 cg2d: Sum(rhs),rhsMax =  -5.70816163363688E+01  1.92345235994066E+00
(PID.TID 0000.0001)  ploadbar=  1.01085449877288E+05
 cg2d: Sum(rhs),rhsMax =  -5.71168662577051E+01  1.92342505786886E+00
(PID.TID 0000.0001)  ploadbar=  1.01085322881802E+05
 cg2d: Sum(rhs),rhsMax =  -5.70606200138777E+01  1.92641321988003E+00
(PID.TID 0000.0001)  ploadbar=  1.01085195886315E+05
 cg2d: Sum(rhs),rhsMax =  -5.69802876800315E+01  1.93015249696730E+00
(PID.TID 0000.0001)  ploadbar=  1.01085068890828E+05
 cg2d: Sum(rhs),rhsMax =  -5.69556275313020E+01  1.93194202927405E+00
(PID.TID 0000.0001)  ploadbar=  1.01084941895342E+05
 cg2d: Sum(rhs),rhsMax =  -5.69928394756265E+01  1.93156262199680E+00
(PID.TID 0000.0001)  ploadbar=  1.01084814899855E+05
 cg2d: Sum(rhs),rhsMax =  -5.70745862222310E+01  1.92972182049091E+00
(PID.TID 0000.0001)  ploadbar=  1.01085351689917E+05
 cg2d: Sum(rhs),rhsMax =  -5.71805736753861E+01  1.92711137487676E+00
(PID.TID 0000.0001)  ploadbar=  1.01085888479979E+05
 cg2d: Sum(rhs),rhsMax =  -5.72974643775271E+01  1.92418648524621E+00
(PID.TID 0000.0001)  ploadbar=  1.01086425270041E+05
 cg2d: Sum(rhs),rhsMax =  -5.74372752891507E+01  1.92054640745906E+00
(PID.TID 0000.0001)  ploadbar=  1.01086962060103E+05
 cg2d: Sum(rhs),rhsMax =  -5.76008963399836E+01  1.91617254733648E+00
(PID.TID 0000.0001)  ploadbar=  1.01087498850165E+05
 cg2d: Sum(rhs),rhsMax =  -5.77720227654206E+01  1.91161614883765E+00
(PID.TID 0000.0001)  ploadbar=  1.01088035640227E+05
 cg2d: Sum(rhs),rhsMax =  -5.79962407713101E+01  1.90531388359402E+00
(PID.TID 0000.0001)  ploadbar=  1.01088175427335E+05
 cg2d: Sum(rhs),rhsMax =  -5.82378289168432E+01  1.89846790091445E+00
(PID.TID 0000.0001)  ploadbar=  1.01088315214443E+05
 cg2d: Sum(rhs),rhsMax =  -5.85289748172874E+01  1.89004999900886E+00
(PID.TID 0000.0001)  ploadbar=  1.01088455001552E+05
 cg2d: Sum(rhs),rhsMax =  -5.88671883395986E+01  1.88018391932758E+00
(PID.TID 0000.0001)  ploadbar=  1.01088594788660E+05
 cg2d: Sum(rhs),rhsMax =  -5.92378971463907E+01  1.86937575222799E+00
(PID.TID 0000.0001)  ploadbar=  1.01088734575768E+05
 cg2d: Sum(rhs),rhsMax =  -5.95206525237914E+01  1.86141947552842E+00
(PID.TID 0000.0001)  ploadbar=  1.01088874362877E+05
 cg2d: Sum(rhs),rhsMax =  -5.95684007401442E+01  1.86085298299982E+00
(PID.TID 0000.0001)  ploadbar=  1.01088904338860E+05
 cg2d: Sum(rhs),rhsMax =  -5.96121010738509E+01  1.86041723261996E+00
(PID.TID 0000.0001)  ploadbar=  1.01088934314843E+05
 cg2d: Sum(rhs),rhsMax =  -5.96529161649114E+01  1.86007571313612E+00
(PID.TID 0000.0001)  ploadbar=  1.01088964290827E+05
 cg2d: Sum(rhs),rhsMax =  -5.96913420400634E+01  1.85981190966699E+00
(PID.TID 0000.0001)  ploadbar=  1.01088994266810E+05
 cg2d: Sum(rhs),rhsMax =  -5.97259378858993E+01  1.85966753766284E+00
(PID.TID 0000.0001)  ploadbar=  1.01089024242793E+05
 cg2d: Sum(rhs),rhsMax =  -5.97564781234298E+01  1.85964733987987E+00
(PID.TID 0000.0001)  ploadbar=  1.01089054218776E+05
 cg2d: Sum(rhs),rhsMax =  -5.97961557450774E+01  1.85929999831073E+00
(PID.TID 0000.0001)  ploadbar=  1.01088589613326E+05
 cg2d: Sum(rhs),rhsMax =  -5.98289440201859E+01  1.85912256354039E+00
(PID.TID 0000.0001)  ploadbar=  1.01088125007876E+05
 cg2d: Sum(rhs),rhsMax =  -5.98554552430895E+01  1.85909418890956E+00
(PID.TID 0000.0001)  ploadbar=  1.01087660402425E+05
 cg2d: Sum(rhs),rhsMax =  -5.98785724872466E+01  1.85912554631050E+00
(PID.TID 0000.0001)  ploadbar=  1.01087195796975E+05
 cg2d: Sum(rhs),rhsMax =  -5.98975970369135E+01  1.85923677010787E+00
(PID.TID 0000.0001)  ploadbar=  1.01086731191524E+05
 cg2d: Sum(rhs),rhsMax =  -5.99129647016288E+01  1.85941339655854E+00
(PID.TID 0000.0001)  ploadbar=  1.01086266586074E+05
 cg2d: Sum(rhs),rhsMax =  -5.98990670931211E+01  1.86055237695535E+00
(PID.TID 0000.0001)  ploadbar=  1.01085945704678E+05
 cg2d: Sum(rhs),rhsMax =  -5.98825025608212E+01  1.86182753815874E+00
(PID.TID 0000.0001)  ploadbar=  1.01085624823282E+05
 cg2d: Sum(rhs),rhsMax =  -5.98591307107269E+01  1.86336665293524E+00
(PID.TID 0000.0001)  ploadbar=  1.01085303941887E+05
 cg2d: Sum(rhs),rhsMax =  -5.98283829699512E+01  1.86518302777225E+00
(PID.TID 0000.0001)  ploadbar=  1.01084983060491E+05
 cg2d: Sum(rhs),rhsMax =  -5.97925939098668E+01  1.86720323465771E+00
(PID.TID 0000.0001)  ploadbar=  1.01084662179095E+05
 cg2d: Sum(rhs),rhsMax =  -5.97515711003892E+01  1.86943273567794E+00
(PID.TID 0000.0001)  ploadbar=  1.01084341297700E+05
 cg2d: Sum(rhs),rhsMax =  -5.97268107590997E+01  1.87117770099341E+00
(PID.TID 0000.0001)  ploadbar=  1.01084053085826E+05
 cg2d: Sum(rhs),rhsMax =  -5.96986673588708E+01  1.87305342968711E+00
(PID.TID 0000.0001)  ploadbar=  1.01083764873953E+05
 cg2d: Sum(rhs),rhsMax =  -5.96667904567434E+01  1.87507365733364E+00
(PID.TID 0000.0001)  ploadbar=  1.01083476662079E+05
 cg2d: Sum(rhs),rhsMax =  -5.96300065578594E+01  1.87727875900260E+00
(PID.TID 0000.0001)  ploadbar=  1.01083188450206E+05
 cg2d: Sum(rhs),rhsMax =  -5.95896721146764E+01  1.87962528683366E+00
(PID.TID 0000.0001)  ploadbar=  1.01082900238332E+05
 cg2d: Sum(rhs),rhsMax =  -5.95479196267257E+01  1.88204428612160E+00
(PID.TID 0000.0001)  ploadbar=  1.01082612026459E+05
 cg2d: Sum(rhs),rhsMax =  -5.94924650800633E+01  1.88492138446508E+00
(PID.TID 0000.0001)  ploadbar=  1.01083405504850E+05
 cg2d: Sum(rhs),rhsMax =  -5.94360036869673E+01  1.88785793507243E+00
(PID.TID 0000.0001)  ploadbar=  1.01084198983242E+05
 cg2d: Sum(rhs),rhsMax =  -5.93866579504208E+01  1.89059849910715E+00
(PID.TID 0000.0001)  ploadbar=  1.01084992461634E+05
 cg2d: Sum(rhs),rhsMax =  -5.93393787559516E+01  1.89330248300677E+00
(PID.TID 0000.0001)  ploadbar=  1.01085785940026E+05
 cg2d: Sum(rhs),rhsMax =  -5.92928008701070E+01  1.89601225318598E+00
(PID.TID 0000.0001)  ploadbar=  1.01086579418418E+05
 cg2d: Sum(rhs),rhsMax =  -5.92474904122535E+01  1.89870919855094E+00
(PID.TID 0000.0001)  ploadbar=  1.01087372896810E+05
 cg2d: Sum(rhs),rhsMax =  -5.92147187930405E+01  1.90093413173146E+00
(PID.TID 0000.0001)  ploadbar=  1.01086918346469E+05
 cg2d: Sum(rhs),rhsMax =  -5.91827997675540E+01  1.90306216474548E+00
(PID.TID 0000.0001)  ploadbar=  1.01086463796128E+05
 cg2d: Sum(rhs),rhsMax =  -5.91490820590316E+01  1.90518001118217E+00
(PID.TID 0000.0001)  ploadbar=  1.01086009245787E+05
 cg2d: Sum(rhs),rhsMax =  -5.91175368499458E+01  1.90715626240657E+00
(PID.TID 0000.0001)  ploadbar=  1.01085554695446E+05
 cg2d: Sum(rhs),rhsMax =  -5.90904049948841E+01  1.90892099047730E+00
(PID.TID 0000.0001)  ploadbar=  1.01085100145105E+05
 cg2d: Sum(rhs),rhsMax =  -5.90690778006024E+01  1.91042837948907E+00
(PID.TID 0000.0001)  ploadbar=  1.01084645594764E+05
 cg2d: Sum(rhs),rhsMax =  -5.90452590795960E+01  1.91204484571100E+00
(PID.TID 0000.0001)  ploadbar=  1.01085997886423E+05
 cg2d: Sum(rhs),rhsMax =  -5.90317876397405E+01  1.91335491754057E+00
(PID.TID 0000.0001)  ploadbar=  1.01087350178082E+05
 cg2d: Sum(rhs),rhsMax =  -5.90300889286735E+01  1.91430836892198E+00
(PID.TID 0000.0001)  ploadbar=  1.01088702469740E+05
 cg2d: Sum(rhs),rhsMax =  -5.90431531632407E+01  1.91480901014516E+00
(PID.TID 0000.0001)  ploadbar=  1.01090054761399E+05
 cg2d: Sum(rhs),rhsMax =  -5.90735455402526E+01  1.91477704015602E+00
(PID.TID 0000.0001)  ploadbar=  1.01091407053058E+05
 cg2d: Sum(rhs),rhsMax =  -5.91229474005907E+01  1.91415819889092E+00
(PID.TID 0000.0001)  ploadbar=  1.01092759344716E+05
 cg2d: Sum(rhs),rhsMax =  -5.91951879282586E+01  1.91282797126134E+00
(PID.TID 0000.0001)  ploadbar=  1.01093362655728E+05
 cg2d: Sum(rhs),rhsMax =  -5.92862128446752E+01  1.91092437152557E+00
(PID.TID 0000.0001)  ploadbar=  1.01093965966740E+05
 cg2d: Sum(rhs),rhsMax =  -5.93997991448271E+01  1.90833112634671E+00
(PID.TID 0000.0001)  ploadbar=  1.01094569277752E+05
 cg2d: Sum(rhs),rhsMax =  -5.95336767138136E+01  1.90512553186671E+00
(PID.TID 0000.0001)  ploadbar=  1.01095172588764E+05
 cg2d: Sum(rhs),rhsMax =  -5.96856303322031E+01  1.90138542919414E+00
(PID.TID 0000.0001)  ploadbar=  1.01095775899776E+05
 cg2d: Sum(rhs),rhsMax =  -5.98543142984881E+01  1.89715879386604E+00
(PID.TID 0000.0001)  ploadbar=  1.01096379210788E+05
 cg2d: Sum(rhs),rhsMax =  -6.00582025480167E+01  1.89183462799249E+00
(PID.TID 0000.0001)  ploadbar=  1.01096243348169E+05
 cg2d: Sum(rhs),rhsMax =  -6.02700659176779E+01  1.88628966264501E+00
(PID.TID 0000.0001)  ploadbar=  1.01096107485549E+05
 cg2d: Sum(rhs),rhsMax =  -6.04930327486542E+01  1.88042946407634E+00
(PID.TID 0000.0001)  ploadbar=  1.01095971622930E+05
 cg2d: Sum(rhs),rhsMax =  -6.07257170676125E+01  1.87430280552285E+00
(PID.TID 0000.0001)  ploadbar=  1.01095835760311E+05
 cg2d: Sum(rhs),rhsMax =  -6.09635547243350E+01  1.86805404866775E+00
(PID.TID 0000.0001)  ploadbar=  1.01095699897691E+05
 cg2d: Sum(rhs),rhsMax =  -6.12053034560259E+01  1.86172273951452E+00
(PID.TID 0000.0001)  ploadbar=  1.01095564035072E+05
 cg2d: Sum(rhs),rhsMax =  -6.14265631261013E+01  1.85601346123353E+00
(PID.TID 0000.0001)  ploadbar=  1.01096010581509E+05
 cg2d: Sum(rhs),rhsMax =  -6.16508638040323E+01  1.85020794264277E+00
(PID.TID 0000.0001)  ploadbar=  1.01096457127947E+05
 cg2d: Sum(rhs),rhsMax =  -6.18785678225399E+01  1.84429625439883E+00
(PID.TID 0000.0001)  ploadbar=  1.01096903674385E+05
 cg2d: Sum(rhs),rhsMax =  -6.21109645216962E+01  1.83824274732759E+00
(PID.TID 0000.0001)  ploadbar=  1.01097350220823E+05
 cg2d: Sum(rhs),rhsMax =  -6.23480641282253E+01  1.83204998433686E+00
(PID.TID 0000.0001)  ploadbar=  1.01097796767261E+05
 cg2d: Sum(rhs),rhsMax =  -6.25900807411812E+01  1.82571479591150E+00
(PID.TID 0000.0001)  ploadbar=  1.01098243313698E+05
 cg2d: Sum(rhs),rhsMax =  -6.28416969651312E+01  1.81918245686035E+00
(PID.TID 0000.0001)  ploadbar=  1.01098912385173E+05
 cg2d: Sum(rhs),rhsMax =  -6.30894486111790E+01  1.81284530042835E+00
(PID.TID 0000.0001)  ploadbar=  1.01099581456648E+05
 cg2d: Sum(rhs),rhsMax =  -6.33284491273639E+01  1.80683928916684E+00
(PID.TID 0000.0001)  ploadbar=  1.01100250528122E+05
 cg2d: Sum(rhs),rhsMax =  -6.35596763662626E+01  1.80113029848058E+00
(PID.TID 0000.0001)  ploadbar=  1.01100919599597E+05
 cg2d: Sum(rhs),rhsMax =  -6.37815671634824E+01  1.79575642362581E+00
(PID.TID 0000.0001)  ploadbar=  1.01101588671072E+05
 cg2d: Sum(rhs),rhsMax =  -6.39935314643055E+01  1.79072617741629E+00
(PID.TID 0000.0001)  ploadbar=  1.01102257742546E+05
 cg2d: Sum(rhs),rhsMax =  -6.42140493344728E+01  1.78549833149217E+00
(PID.TID 0000.0001)  ploadbar=  1.01102599485315E+05
 cg2d: Sum(rhs),rhsMax =  -6.44245081561247E+01  1.78059169259277E+00
(PID.TID 0000.0001)  ploadbar=  1.01102941228084E+05
 cg2d: Sum(rhs),rhsMax =  -6.46247361574005E+01  1.77600714221268E+00
(PID.TID 0000.0001)  ploadbar=  1.01103282970853E+05
 cg2d: Sum(rhs),rhsMax =  -6.48173116018458E+01  1.77166731047843E+00
(PID.TID 0000.0001)  ploadbar=  1.01103624713622E+05
 cg2d: Sum(rhs),rhsMax =  -6.50037491259053E+01  1.76752452327726E+00
(PID.TID 0000.0001)  ploadbar=  1.01103966456391E+05
 cg2d: Sum(rhs),rhsMax =  -6.51844941022844E+01  1.76356105561927E+00
(PID.TID 0000.0001)  ploadbar=  1.01104308199159E+05
 cg2d: Sum(rhs),rhsMax =  -6.53575418392666E+01  1.75982854614178E+00
(PID.TID 0000.0001)  ploadbar=  1.01105139929419E+05
 cg2d: Sum(rhs),rhsMax =  -6.55261216115360E+01  1.75623697303199E+00
(PID.TID 0000.0001)  ploadbar=  1.01105971659679E+05
 cg2d: Sum(rhs),rhsMax =  -6.56899195961212E+01  1.75279019268992E+00
(PID.TID 0000.0001)  ploadbar=  1.01106803389939E+05
 cg2d: Sum(rhs),rhsMax =  -6.58479540793002E+01  1.74951149662810E+00
(PID.TID 0000.0001)  ploadbar=  1.01107635120199E+05
 cg2d: Sum(rhs),rhsMax =  -6.60023182865795E+01  1.74634156727194E+00
(PID.TID 0000.0001)  ploadbar=  1.01108466850459E+05
 cg2d: Sum(rhs),rhsMax =  -6.61543853785914E+01  1.74323983081253E+00
(PID.TID 0000.0001)  ploadbar=  1.01109298580719E+05
 cg2d: Sum(rhs),rhsMax =  -6.62771443457083E+01  1.74088124010026E+00
(PID.TID 0000.0001)  ploadbar=  1.01109517227604E+05
 cg2d: Sum(rhs),rhsMax =  -6.64008886535995E+01  1.73846440847060E+00
(PID.TID 0000.0001)  ploadbar=  1.01109735874489E+05
 cg2d: Sum(rhs),rhsMax =  -6.65249438502556E+01  1.73600704428969E+00
(PID.TID 0000.0001)  ploadbar=  1.01109954521374E+05
 cg2d: Sum(rhs),rhsMax =  -6.66468283924661E+01  1.73357364143525E+00
(PID.TID 0000.0001)  ploadbar=  1.01110173168259E+05
 cg2d: Sum(rhs),rhsMax =  -6.67667996595177E+01  1.73115633526839E+00
(PID.TID 0000.0001)  ploadbar=  1.01110391815144E+05
 cg2d: Sum(rhs),rhsMax =  -6.68852057120831E+01  1.72874352264013E+00
(PID.TID 0000.0001)  ploadbar=  1.01110610462030E+05
 cg2d: Sum(rhs),rhsMax =  -6.69733702928348E+01  1.72712460479874E+00
(PID.TID 0000.0001)  ploadbar=  1.01111574045368E+05
 cg2d: Sum(rhs),rhsMax =  -6.70453404355558E+01  1.72593059940153E+00
(PID.TID 0000.0001)  ploadbar=  1.01112537628706E+05
 cg2d: Sum(rhs),rhsMax =  -6.70963461770751E+01  1.72528187327059E+00
(PID.TID 0000.0001)  ploadbar=  1.01113501212044E+05
 cg2d: Sum(rhs),rhsMax =  -6.71193722349821E+01  1.72535610594535E+00
(PID.TID 0000.0001)  ploadbar=  1.01114464795383E+05
 cg2d: Sum(rhs),rhsMax =  -6.71193353465576E+01  1.72602593505234E+00
(PID.TID 0000.0001)  ploadbar=  1.01115428378721E+05
 cg2d: Sum(rhs),rhsMax =  -6.71114015816556E+01  1.72690183920079E+00
(PID.TID 0000.0001)  ploadbar=  1.01116391962059E+05
 cg2d: Sum(rhs),rhsMax =  -6.71384807548971E+01  1.72690527610986E+00
(PID.TID 0000.0001)  ploadbar=  1.01116051085573E+05
 cg2d: Sum(rhs),rhsMax =  -6.72299754439146E+01  1.72528281340562E+00
(PID.TID 0000.0001)  ploadbar=  1.01115710209086E+05
 cg2d: Sum(rhs),rhsMax =  -6.74337739242241E+01  1.72082322923557E+00
(PID.TID 0000.0001)  ploadbar=  1.01115369332600E+05
 cg2d: Sum(rhs),rhsMax =  -6.77825595123144E+01  1.71274604715581E+00
(PID.TID 0000.0001)  ploadbar=  1.01115028456113E+05
 cg2d: Sum(rhs),rhsMax =  -6.82724136011270E+01  1.70125267459234E+00
(PID.TID 0000.0001)  ploadbar=  1.01114687579626E+05
 cg2d: Sum(rhs),rhsMax =  -6.88951396368774E+01  1.68668553803341E+00
(PID.TID 0000.0001)  ploadbar=  1.01114346703140E+05
 cg2d: Sum(rhs),rhsMax =  -6.96391030013465E+01  1.66945852683118E+00
(PID.TID 0000.0001)  ploadbar=  1.01113715662121E+05
 cg2d: Sum(rhs),rhsMax =  -7.05022827784724E+01  1.64979313003667E+00
(PID.TID 0000.0001)  ploadbar=  1.01113084621101E+05
 cg2d: Sum(rhs),rhsMax =  -7.14566357246536E+01  1.62851505460054E+00
(PID.TID 0000.0001)  ploadbar=  1.01112453580082E+05
 cg2d: Sum(rhs),rhsMax =  -7.24329610449685E+01  1.60729948698285E+00
(PID.TID 0000.0001)  ploadbar=  1.01111822539063E+05
 cg2d: Sum(rhs),rhsMax =  -7.33634345144863E+01  1.58762800780557E+00
(PID.TID 0000.0001)  ploadbar=  1.01111191498044E+05
 cg2d: Sum(rhs),rhsMax =  -7.42040699299567E+01  1.57033375133237E+00
(PID.TID 0000.0001)  ploadbar=  1.01110560457025E+05
 cg2d: Sum(rhs),rhsMax =  -7.49463208980976E+01  1.55544153783233E+00
(PID.TID 0000.0001)  ploadbar=  1.01110325594713E+05
 cg2d: Sum(rhs),rhsMax =  -7.55586378457784E+01  1.54346555858864E+00
(PID.TID 0000.0001)  ploadbar=  1.01110090732401E+05
 cg2d: Sum(rhs),rhsMax =  -7.60539276209875E+01  1.53401415747238E+00
(PID.TID 0000.0001)  ploadbar=  1.01109855870089E+05
 cg2d: Sum(rhs),rhsMax =  -7.64628536622622E+01  1.52638110738214E+00
(PID.TID 0000.0001)  ploadbar=  1.01109621007777E+05
 cg2d: Sum(rhs),rhsMax =  -7.68074575240068E+01  1.52007500956651E+00
(PID.TID 0000.0001)  ploadbar=  1.01109386145466E+05
 cg2d: Sum(rhs),rhsMax =  -7.71094783570985E+01  1.51463325956860E+00
(PID.TID 0000.0001)  ploadbar=  1.01109151283154E+05
 cg2d: Sum(rhs),rhsMax =  -7.73630157490663E+01  1.51019900690231E+00
(PID.TID 0000.0001)  ploadbar=  1.01108352701572E+05
 cg2d: Sum(rhs),rhsMax =  -7.76011542702065E+01  1.50611157992560E+00
(PID.TID 0000.0001)  ploadbar=  1.01107554119991E+05
 cg2d: Sum(rhs),rhsMax =  -7.77874615898971E+01  1.50306796058392E+00
(PID.TID 0000.0001)  ploadbar=  1.01106755538409E+05
 cg2d: Sum(rhs),rhsMax =  -7.79631026815688E+01  1.50026182567257E+00
(PID.TID 0000.0001)  ploadbar=  1.01105956956828E+05
 cg2d: Sum(rhs),rhsMax =  -7.81355766953068E+01  1.49754680100740E+00
(PID.TID 0000.0001)  ploadbar=  1.01105158375246E+05
 cg2d: Sum(rhs),rhsMax =  -7.83086909788650E+01  1.49484705123648E+00
(PID.TID 0000.0001)  ploadbar=  1.01104359793664E+05
 cg2d: Sum(rhs),rhsMax =  -7.85753224037810E+01  1.49039792960138E+00
(PID.TID 0000.0001)  ploadbar=  1.01104449950411E+05
 cg2d: Sum(rhs),rhsMax =  -7.88658587804150E+01  1.48554369404135E+00
(PID.TID 0000.0001)  ploadbar=  1.01104540107157E+05
 cg2d: Sum(rhs),rhsMax =  -7.91694445305864E+01  1.48049809082193E+00
(PID.TID 0000.0001)  ploadbar=  1.01104630263903E+05
 cg2d: Sum(rhs),rhsMax =  -7.94966553213106E+01  1.47507062271687E+00
(PID.TID 0000.0001)  ploadbar=  1.01104720420649E+05
 cg2d: Sum(rhs),rhsMax =  -7.98542515944763E+01  1.46914585725119E+00
(PID.TID 0000.0001)  ploadbar=  1.01104810577395E+05
 cg2d: Sum(rhs),rhsMax =  -8.02431034951929E+01  1.46271908948275E+00
(PID.TID 0000.0001)  ploadbar=  1.01104900734141E+05
 cg2d: Sum(rhs),rhsMax =  -8.06756922959708E+01  1.45557216342048E+00
(PID.TID 0000.0001)  ploadbar=  1.01105443440577E+05
 cg2d: Sum(rhs),rhsMax =  -8.11177220799960E+01  1.44834208064963E+00
(PID.TID 0000.0001)  ploadbar=  1.01105986147013E+05
 cg2d: Sum(rhs),rhsMax =  -8.15516913263159E+01  1.44134188373242E+00
(PID.TID 0000.0001)  ploadbar=  1.01106528853449E+05
 cg2d: Sum(rhs),rhsMax =  -8.19697676910892E+01  1.43470104353501E+00
(PID.TID 0000.0001)  ploadbar=  1.01107071559884E+05
 cg2d: Sum(rhs),rhsMax =  -8.23726529895871E+01  1.42839646573993E+00
(PID.TID 0000.0001)  ploadbar=  1.01107614266320E+05
 cg2d: Sum(rhs),rhsMax =  -8.27629210427647E+01  1.42237310618508E+00
(PID.TID 0000.0001)  ploadbar=  1.01108156972756E+05
 cg2d: Sum(rhs),rhsMax =  -8.31672423061948E+01  1.41613308490336E+00
(PID.TID 0000.0001)  ploadbar=  1.01108237493417E+05
 cg2d: Sum(rhs),rhsMax =  -8.35706655898741E+01  1.40993511188013E+00
(PID.TID 0000.0001)  ploadbar=  1.01108318014077E+05
 cg2d: Sum(rhs),rhsMax =  -8.39538461873972E+01  1.40410061436567E+00
(PID.TID 0000.0001)  ploadbar=  1.01108398534738E+05
 cg2d: Sum(rhs),rhsMax =  -8.43229256429168E+01  1.39851796795010E+00
(PID.TID 0000.0001)  ploadbar=  1.01108479055399E+05
 cg2d: Sum(rhs),rhsMax =  -8.46792541039253E+01  1.39315799258869E+00
(PID.TID 0000.0001)  ploadbar=  1.01108559576060E+05
 cg2d: Sum(rhs),rhsMax =  -8.50159716667256E+01  1.38812662589213E+00
(PID.TID 0000.0001)  ploadbar=  1.01108640096721E+05
 cg2d: Sum(rhs),rhsMax =  -8.52411835118034E+01  1.38495490045615E+00
(PID.TID 0000.0001)  ploadbar=  1.01109788139579E+05
 cg2d: Sum(rhs),rhsMax =  -8.54549759386375E+01  1.38199515140336E+00
(PID.TID 0000.0001)  ploadbar=  1.01110936182438E+05
 cg2d: Sum(rhs),rhsMax =  -8.56421386764651E+01  1.37949045981024E+00
(PID.TID 0000.0001)  ploadbar=  1.01112084225297E+05
 cg2d: Sum(rhs),rhsMax =  -8.58233854385524E+01  1.37710468764331E+00
(PID.TID 0000.0001)  ploadbar=  1.01113232268155E+05
 cg2d: Sum(rhs),rhsMax =  -8.60145087546252E+01  1.37458422878613E+00
(PID.TID 0000.0001)  ploadbar=  1.01114380311014E+05
 cg2d: Sum(rhs),rhsMax =  -8.62184491797319E+01  1.37188504404458E+00
(PID.TID 0000.0001)  ploadbar=  1.01115528353873E+05
 cg2d: Sum(rhs),rhsMax =  -8.64087313439497E+01  1.36941191808912E+00
(PID.TID 0000.0001)  ploadbar=  1.01116367720446E+05
 cg2d: Sum(rhs),rhsMax =  -8.66022576621757E+01  1.36689595142102E+00
(PID.TID 0000.0001)  ploadbar=  1.01117207087020E+05
 cg2d: Sum(rhs),rhsMax =  -8.67918506377809E+01  1.36445271267040E+00
(PID.TID 0000.0001)  ploadbar=  1.01118046453594E+05
 cg2d: Sum(rhs),rhsMax =  -8.69791292867541E+01  1.36205560782553E+00
(PID.TID 0000.0001)  ploadbar=  1.01118885820168E+05
 cg2d: Sum(rhs),rhsMax =  -8.71657854163809E+01  1.35967690028020E+00
(PID.TID 0000.0001)  ploadbar=  1.01119725186741E+05
 cg2d: Sum(rhs),rhsMax =  -8.73529381343950E+01  1.35729823843365E+00
(PID.TID 0000.0001)  ploadbar=  1.01120564553315E+05
 cg2d: Sum(rhs),rhsMax =  -8.75204226311371E+01  1.35522823892068E+00
(PID.TID 0000.0001)  ploadbar=  1.01121183688530E+05
 cg2d: Sum(rhs),rhsMax =  -8.76699738598556E+01  1.35343968724731E+00
(PID.TID 0000.0001)  ploadbar=  1.01121802823744E+05
 cg2d: Sum(rhs),rhsMax =  -8.78023007980871E+01  1.35191920402581E+00
(PID.TID 0000.0001)  ploadbar=  1.01122421958959E+05
 cg2d: Sum(rhs),rhsMax =  -8.78989890297736E+01  1.35094776048266E+00
(PID.TID 0000.0001)  ploadbar=  1.01123041094173E+05
 cg2d: Sum(rhs),rhsMax =  -8.79503744360089E+01  1.35067160943869E+00
(PID.TID 0000.0001)  ploadbar=  1.01123660229388E+05
 cg2d: Sum(rhs),rhsMax =  -8.76523953634231E+01  1.35577597062913E+00
(PID.TID 0000.0001)  ploadbar=  1.01124279364602E+05
 cg2d: Sum(rhs),rhsMax =  -8.73404727429755E+01  1.36110238628941E+00
(PID.TID 0000.0001)  ploadbar=  1.01125413926302E+05
 cg2d: Sum(rhs),rhsMax =  -8.70553973875212E+01  1.36601620631648E+00
(PID.TID 0000.0001)  ploadbar=  1.01126548488002E+05
 cg2d: Sum(rhs),rhsMax =  -8.67841677092712E+01  1.37071444241805E+00
(PID.TID 0000.0001)  ploadbar=  1.01127683049702E+05
 cg2d: Sum(rhs),rhsMax =  -8.65117183816367E+01  1.37543395841885E+00
(PID.TID 0000.0001)  ploadbar=  1.01128817611402E+05
 cg2d: Sum(rhs),rhsMax =  -8.62287178081485E+01  1.38032443976260E+00
(PID.TID 0000.0001)  ploadbar=  1.01129952173102E+05
 cg2d: Sum(rhs),rhsMax =  -8.59280239855387E+01  1.38550220399763E+00
(PID.TID 0000.0001)  ploadbar=  1.01131086734802E+05
 cg2d: Sum(rhs),rhsMax =  -8.56289401798357E+01  1.39071916002944E+00
(PID.TID 0000.0001)  ploadbar=  1.01132972447170E+05
 cg2d: Sum(rhs),rhsMax =  -8.53206065843831E+01  1.39615370564692E+00
(PID.TID 0000.0001)  ploadbar=  1.01134858159537E+05
 cg2d: Sum(rhs),rhsMax =  -8.50144541769120E+01  1.40162268485779E+00
(PID.TID 0000.0001)  ploadbar=  1.01136743871904E+05
 cg2d: Sum(rhs),rhsMax =  -8.47158598515195E+01  1.40703746999136E+00
(PID.TID 0000.0001)  ploadbar=  1.01138629584272E+05
 cg2d: Sum(rhs),rhsMax =  -8.44269483780899E+01  1.41236002116014E+00
(PID.TID 0000.0001)  ploadbar=  1.01140515296639E+05
 cg2d: Sum(rhs),rhsMax =  -8.41491246593841E+01  1.41756222481118E+00
(PID.TID 0000.0001)  ploadbar=  1.01142401009006E+05
 cg2d: Sum(rhs),rhsMax =  -8.38480654066520E+01  1.42321806515109E+00
(PID.TID 0000.0001)  ploadbar=  1.01142650543068E+05
 cg2d: Sum(rhs),rhsMax =  -8.35118468495329E+01  1.42953896166720E+00
(PID.TID 0000.0001)  ploadbar=  1.01142900077130E+05
 cg2d: Sum(rhs),rhsMax =  -8.31557912096400E+01  1.43627612548518E+00
(PID.TID 0000.0001)  ploadbar=  1.01143149611192E+05
 cg2d: Sum(rhs),rhsMax =  -8.27894869925105E+01  1.44327341513697E+00
(PID.TID 0000.0001)  ploadbar=  1.01143399145253E+05
 cg2d: Sum(rhs),rhsMax =  -8.24081971273056E+01  1.45062068894594E+00
(PID.TID 0000.0001)  ploadbar=  1.01143648679315E+05
 cg2d: Sum(rhs),rhsMax =  -8.20090488481526E+01  1.45837944143440E+00
(PID.TID 0000.0001)  ploadbar=  1.01143898213377E+05
 cg2d: Sum(rhs),rhsMax =  -8.16158724452522E+01  1.46609028124283E+00
(PID.TID 0000.0001)  ploadbar=  1.01143779337469E+05
 cg2d: Sum(rhs),rhsMax =  -8.12258916752697E+01  1.47380347319958E+00
(PID.TID 0000.0001)  ploadbar=  1.01143660461561E+05
 cg2d: Sum(rhs),rhsMax =  -8.08506806740946E+01  1.48130959179431E+00
(PID.TID 0000.0001)  ploadbar=  1.01143541585653E+05
 cg2d: Sum(rhs),rhsMax =  -8.05042027210078E+01  1.48834635660654E+00
(PID.TID 0000.0001)  ploadbar=  1.01143422709745E+05
 cg2d: Sum(rhs),rhsMax =  -8.01959692293375E+01  1.49472492522232E+00
(PID.TID 0000.0001)  ploadbar=  1.01143303833837E+05
 cg2d: Sum(rhs),rhsMax =  -7.99295145835379E+01  1.50035856065886E+00
(PID.TID 0000.0001)  ploadbar=  1.01143184957929E+05
 cg2d: Sum(rhs),rhsMax =  -7.96912272035949E+01  1.50547219018066E+00
(PID.TID 0000.0001)  ploadbar=  1.01144019998994E+05
 cg2d: Sum(rhs),rhsMax =  -7.94720817800072E+01  1.51022733807222E+00
(PID.TID 0000.0001)  ploadbar=  1.01144855040058E+05
 cg2d: Sum(rhs),rhsMax =  -7.92583978758522E+01  1.51487890435802E+00
(PID.TID 0000.0001)  ploadbar=  1.01145690081123E+05
 cg2d: Sum(rhs),rhsMax =  -7.90370208624072E+01  1.51967914408439E+00
(PID.TID 0000.0001)  ploadbar=  1.01146525122187E+05
 cg2d: Sum(rhs),rhsMax =  -7.87991473464560E+01  1.52480053208032E+00
(PID.TID 0000.0001)  ploadbar=  1.01147360163252E+05
 cg2d: Sum(rhs),rhsMax =  -7.85427697319736E+01  1.53028667437646E+00
(PID.TID 0000.0001)  ploadbar=  1.01148195204316E+05
 cg2d: Sum(rhs),rhsMax =  -7.82695277827320E+01  1.53617644684305E+00
(PID.TID 0000.0001)  ploadbar=  1.01148361054430E+05
 cg2d: Sum(rhs),rhsMax =  -7.80119728482865E+01  1.54183468050641E+00
(PID.TID 0000.0001)  ploadbar=  1.01148526904544E+05
 cg2d: Sum(rhs),rhsMax =  -7.77918666318692E+01  1.54682330340097E+00
(PID.TID 0000.0001)  ploadbar=  1.01148692754658E+05
 cg2d: Sum(rhs),rhsMax =  -7.76278518477938E+01  1.55075877089220E+00
(PID.TID 0000.0001)  ploadbar=  1.01148858604772E+05
 cg2d: Sum(rhs),rhsMax =  -7.75370331979331E+01  1.55328446638900E+00
(PID.TID 0000.0001)  ploadbar=  1.01149024454886E+05
 cg2d: Sum(rhs),rhsMax =  -7.75226189092386E+01  1.55432273644967E+00
(PID.TID 0000.0001)  ploadbar=  1.01149190305000E+05
 cg2d: Sum(rhs),rhsMax =  -7.75648719311023E+01  1.55423163532859E+00
(PID.TID 0000.0001)  ploadbar=  1.01148568704263E+05
 cg2d: Sum(rhs),rhsMax =  -7.76349519582459E+01  1.55359148468249E+00
(PID.TID 0000.0001)  ploadbar=  1.01147947103527E+05
 cg2d: Sum(rhs),rhsMax =  -7.77017180500019E+01  1.55302745461815E+00
(PID.TID 0000.0001)  ploadbar=  1.01147325502790E+05
 cg2d: Sum(rhs),rhsMax =  -7.77505861878443E+01  1.55282949748774E+00
(PID.TID 0000.0001)  ploadbar=  1.01146703902053E+05
 cg2d: Sum(rhs),rhsMax =  -7.77714522664293E+01  1.55319944701485E+00
(PID.TID 0000.0001)  ploadbar=  1.01146082301317E+05
 cg2d: Sum(rhs),rhsMax =  -7.77651873081057E+01  1.55411966897965E+00
(PID.TID 0000.0001)  ploadbar=  1.01145460700580E+05
 cg2d: Sum(rhs),rhsMax =  -7.77108832201149E+01  1.55601260262639E+00
(PID.TID 0000.0001)  ploadbar=  1.01145552353320E+05
 cg2d: Sum(rhs),rhsMax =  -7.76309005934632E+01  1.55843517006715E+00
(PID.TID 0000.0001)  ploadbar=  1.01145644006060E+05
 cg2d: Sum(rhs),rhsMax =  -7.75493750210719E+01  1.56090507672134E+00
(PID.TID 0000.0001)  ploadbar=  1.01145735658800E+05
 cg2d: Sum(rhs),rhsMax =  -7.75271449392000E+01  1.56219522443753E+00
(PID.TID 0000.0001)  ploadbar=  1.01145827311540E+05
 cg2d: Sum(rhs),rhsMax =  -7.75792025278004E+01  1.56200063725610E+00
(PID.TID 0000.0001)  ploadbar=  1.01145918964281E+05
 cg2d: Sum(rhs),rhsMax =  -7.77016716549843E+01  1.56040176095656E+00
(PID.TID 0000.0001)  ploadbar=  1.01146010617021E+05
 cg2d: Sum(rhs),rhsMax =  -7.78465636211733E+01  1.55831079379870E+00
(PID.TID 0000.0001)  ploadbar=  1.01145249168063E+05
 cg2d: Sum(rhs),rhsMax =  -7.79939875038217E+01  1.55612938674498E+00
(PID.TID 0000.0001)  ploadbar=  1.01144487719105E+05
 cg2d: Sum(rhs),rhsMax =  -7.81208801854287E+01  1.55431762954619E+00
(PID.TID 0000.0001)  ploadbar=  1.01143726270147E+05
 cg2d: Sum(rhs),rhsMax =  -7.82113929461039E+01  1.55318675236524E+00
(PID.TID 0000.0001)  ploadbar=  1.01142964821189E+05
 cg2d: Sum(rhs),rhsMax =  -7.82645777925482E+01  1.55274890907189E+00
(PID.TID 0000.0001)  ploadbar=  1.01142203372231E+05
 cg2d: Sum(rhs),rhsMax =  -7.82955930221135E+01  1.55269900944888E+00
(PID.TID 0000.0001)  ploadbar=  1.01141441923273E+05
 cg2d: Sum(rhs),rhsMax =  -7.87413368762603E+01  1.54449808416811E+00
(PID.TID 0000.0001)  ploadbar=  1.01141483220520E+05
 cg2d: Sum(rhs),rhsMax =  -7.97086483950769E+01  1.52636501599055E+00
(PID.TID 0000.0001)  ploadbar=  1.01141524517767E+05
 cg2d: Sum(rhs),rhsMax =  -8.08073677289200E+01  1.50624203747532E+00
(PID.TID 0000.0001)  ploadbar=  1.01141565815014E+05
 cg2d: Sum(rhs),rhsMax =  -8.20244308330761E+01  1.48454216811012E+00
(PID.TID 0000.0001)  ploadbar=  1.01141607112262E+05
 cg2d: Sum(rhs),rhsMax =  -8.33279842356028E+01  1.46198408603209E+00
(PID.TID 0000.0001)  ploadbar=  1.01141648409509E+05
 cg2d: Sum(rhs),rhsMax =  -8.46590852661937E+01  1.43967730126065E+00
(PID.TID 0000.0001)  ploadbar=  1.01141689706756E+05
 cg2d: Sum(rhs),rhsMax =  -8.58726975794435E+01  1.41999625856597E+00
(PID.TID 0000.0001)  ploadbar=  1.01141261242227E+05
 cg2d: Sum(rhs),rhsMax =  -8.69141805572082E+01  1.40363655203013E+00
(PID.TID 0000.0001)  ploadbar=  1.01140832777698E+05
 cg2d: Sum(rhs),rhsMax =  -8.65424241832358E+01  1.41032279554212E+00
(PID.TID 0000.0001)  ploadbar=  1.01140404313169E+05
 cg2d: Sum(rhs),rhsMax =  -8.48837049171654E+01  1.43855072917646E+00
(PID.TID 0000.0001)  ploadbar=  1.01139975848640E+05
 cg2d: Sum(rhs),rhsMax =  -8.33925522414835E+01  1.46495223808589E+00
(PID.TID 0000.0001)  ploadbar=  1.01139547384111E+05
 cg2d: Sum(rhs),rhsMax =  -8.20592102386504E+01  1.48944273742926E+00
(PID.TID 0000.0001)  ploadbar=  1.01139118919582E+05
 cg2d: Sum(rhs),rhsMax =  -8.09824320492722E+01  1.50994261521857E+00
(PID.TID 0000.0001)  ploadbar=  1.01138835232519E+05
 cg2d: Sum(rhs),rhsMax =  -8.00198794088657E+01  1.52881419569785E+00
(PID.TID 0000.0001)  ploadbar=  1.01138551545457E+05
 cg2d: Sum(rhs),rhsMax =  -7.91245744557385E+01  1.54683471155255E+00
(PID.TID 0000.0001)  ploadbar=  1.01138267858394E+05
 cg2d: Sum(rhs),rhsMax =  -7.82870815032904E+01  1.56411397049079E+00
(PID.TID 0000.0001)  ploadbar=  1.01137984171332E+05
 cg2d: Sum(rhs),rhsMax =  -7.74948806415279E+01  1.58084289851292E+00
(PID.TID 0000.0001)  ploadbar=  1.01137700484270E+05
 cg2d: Sum(rhs),rhsMax =  -7.67320374861748E+01  1.59730524507189E+00
(PID.TID 0000.0001)  ploadbar=  1.01137416797207E+05
 cg2d: Sum(rhs),rhsMax =  -7.60891115480931E+01  1.61148292304112E+00
(PID.TID 0000.0001)  ploadbar=  1.01137535182717E+05
 cg2d: Sum(rhs),rhsMax =  -7.55049912280809E+01  1.62456269396620E+00
(PID.TID 0000.0001)  ploadbar=  1.01137653568227E+05
 cg2d: Sum(rhs),rhsMax =  -7.49577401286960E+01  1.63696879419857E+00
(PID.TID 0000.0001)  ploadbar=  1.01137771953737E+05
 cg2d: Sum(rhs),rhsMax =  -7.44532122551778E+01  1.64853682799891E+00
(PID.TID 0000.0001)  ploadbar=  1.01137890339247E+05
 cg2d: Sum(rhs),rhsMax =  -7.39884462470622E+01  1.65929734924456E+00
(PID.TID 0000.0001)  ploadbar=  1.01138008724757E+05
 cg2d: Sum(rhs),rhsMax =  -7.35754924562690E+01  1.66894067485114E+00
(PID.TID 0000.0001)  ploadbar=  1.01138127110267E+05
 cg2d: Sum(rhs),rhsMax =  -7.32840714222965E+01  1.67592416693023E+00
(PID.TID 0000.0001)  ploadbar=  1.01138157085913E+05
 cg2d: Sum(rhs),rhsMax =  -7.31112760068441E+01  1.68024539686327E+00
(PID.TID 0000.0001)  ploadbar=  1.01138187061559E+05
 cg2d: Sum(rhs),rhsMax =  -7.30733118606426E+01  1.68149424207963E+00
(PID.TID 0000.0001)  ploadbar=  1.01138217037205E+05
 cg2d: Sum(rhs),rhsMax =  -7.31957456160925E+01  1.67906968822323E+00
(PID.TID 0000.0001)  ploadbar=  1.01138247012851E+05
 cg2d: Sum(rhs),rhsMax =  -7.34203584860121E+01  1.67433120076317E+00
(PID.TID 0000.0001)  ploadbar=  1.01138276988497E+05
 cg2d: Sum(rhs),rhsMax =  -7.41397312589865E+01  1.65848573745346E+00
(PID.TID 0000.0001)  ploadbar=  1.01138306964143E+05
 cg2d: Sum(rhs),rhsMax =  -7.48171922626264E+01  1.64388019762454E+00
(PID.TID 0000.0001)  ploadbar=  1.01138980294542E+05
 cg2d: Sum(rhs),rhsMax =  -7.55225889951061E+01  1.62894918722442E+00
(PID.TID 0000.0001)  ploadbar=  1.01139653624941E+05
 cg2d: Sum(rhs),rhsMax =  -7.62188879132900E+01  1.61450267208130E+00
(PID.TID 0000.0001)  ploadbar=  1.01140326955340E+05
 cg2d: Sum(rhs),rhsMax =  -7.68833514504048E+01  1.60099235522241E+00
(PID.TID 0000.0001)  ploadbar=  1.01141000285739E+05
 cg2d: Sum(rhs),rhsMax =  -7.75031591985051E+01  1.58863965661902E+00
(PID.TID 0000.0001)  ploadbar=  1.01141673616138E+05
 cg2d: Sum(rhs),rhsMax =  -7.80704789383460E+01  1.57755200404494E+00
(PID.TID 0000.0001)  ploadbar=  1.01142346946537E+05
 cg2d: Sum(rhs),rhsMax =  -7.85964656258990E+01  1.56746842648726E+00
(PID.TID 0000.0001)  ploadbar=  1.01143424753857E+05
 cg2d: Sum(rhs),rhsMax =  -7.90904057323915E+01  1.55817083511578E+00
(PID.TID 0000.0001)  ploadbar=  1.01144502561177E+05
 cg2d: Sum(rhs),rhsMax =  -7.95519037324008E+01  1.54964130026317E+00
(PID.TID 0000.0001)  ploadbar=  1.01145580368498E+05
 cg2d: Sum(rhs),rhsMax =  -7.99786617140954E+01  1.54189950220900E+00
(PID.TID 0000.0001)  ploadbar=  1.01146658175818E+05
 cg2d: Sum(rhs),rhsMax =  -8.03643820965396E+01  1.53503879216169E+00
(PID.TID 0000.0001)  ploadbar=  1.01147735983138E+05
 cg2d: Sum(rhs),rhsMax =  -8.07048055383163E+01  1.52911681823944E+00
(PID.TID 0000.0001)  ploadbar=  1.01148813790459E+05
 cg2d: Sum(rhs),rhsMax =  -8.10116595467977E+01  1.52383951593479E+00
(PID.TID 0000.0001)  ploadbar=  1.01149189070246E+05
 cg2d: Sum(rhs),rhsMax =  -8.12971953244254E+01  1.51896163817086E+00
(PID.TID 0000.0001)  ploadbar=  1.01149564350034E+05
 cg2d: Sum(rhs),rhsMax =  -8.15601333114699E+01  1.51449724471990E+00
(PID.TID 0000.0001)  ploadbar=  1.01149939629821E+05
 cg2d: Sum(rhs),rhsMax =  -8.18056670604793E+01  1.51034079736253E+00
(PID.TID 0000.0001)  ploadbar=  1.01150314909609E+05
 cg2d: Sum(rhs),rhsMax =  -8.20385084271320E+01  1.50640085007823E+00
(PID.TID 0000.0001)  ploadbar=  1.01150690189396E+05
 cg2d: Sum(rhs),rhsMax =  -8.22620831155978E+01  1.50260710038626E+00
(PID.TID 0000.0001)  ploadbar=  1.01151065469184E+05
 cg2d: Sum(rhs),rhsMax =  -8.24818105623599E+01  1.49893449967584E+00
(PID.TID 0000.0001)  ploadbar=  1.01152826998541E+05
 cg2d: Sum(rhs),rhsMax =  -8.27218836925634E+01  1.49494351946513E+00
(PID.TID 0000.0001)  ploadbar=  1.01154588527898E+05
 cg2d: Sum(rhs),rhsMax =  -8.29727632639525E+01  1.49081089948088E+00
(PID.TID 0000.0001)  ploadbar=  1.01156350057256E+05
 cg2d: Sum(rhs),rhsMax =  -8.32308262452766E+01  1.48660267675567E+00
(PID.TID 0000.0001)  ploadbar=  1.01158111586613E+05
 cg2d: Sum(rhs),rhsMax =  -8.34942761037709E+01  1.48234885497086E+00
(PID.TID 0000.0001)  ploadbar=  1.01159873115970E+05
 cg2d: Sum(rhs),rhsMax =  -8.37588314624838E+01  1.47812312089959E+00
(PID.TID 0000.0001)  ploadbar=  1.01161634645328E+05
 cg2d: Sum(rhs),rhsMax =  -8.39511879850918E+01  1.47522154680278E+00
(PID.TID 0000.0001)  ploadbar=  1.01161311865719E+05
 cg2d: Sum(rhs),rhsMax =  -8.41381712115984E+01  1.47245687772897E+00
(PID.TID 0000.0001)  ploadbar=  1.01160989086110E+05
 cg2d: Sum(rhs),rhsMax =  -8.43249959861028E+01  1.46973674897755E+00
(PID.TID 0000.0001)  ploadbar=  1.01160666306501E+05
 cg2d: Sum(rhs),rhsMax =  -8.45133521550464E+01  1.46703018496839E+00
(PID.TID 0000.0001)  ploadbar=  1.01160343526892E+05
 cg2d: Sum(rhs),rhsMax =  -8.47021972327755E+01  1.46435138695426E+00
(PID.TID 0000.0001)  ploadbar=  1.01160020747283E+05
 cg2d: Sum(rhs),rhsMax =  -8.48928135038466E+01  1.46167278391280E+00
(PID.TID 0000.0001)  ploadbar=  1.01159697967673E+05
 cg2d: Sum(rhs),rhsMax =  -8.50375947667037E+01  1.45981471822307E+00
(PID.TID 0000.0001)  ploadbar=  1.01159432137758E+05
 cg2d: Sum(rhs),rhsMax =  -8.51711513382845E+01  1.45817863597408E+00
(PID.TID 0000.0001)  ploadbar=  1.01159166307842E+05
 cg2d: Sum(rhs),rhsMax =  -8.53178019448465E+01  1.45634634814608E+00
(PID.TID 0000.0001)  ploadbar=  1.01158900477926E+05
 cg2d: Sum(rhs),rhsMax =  -8.54757164966957E+01  1.45434817799077E+00
(PID.TID 0000.0001)  ploadbar=  1.01158634648011E+05
 cg2d: Sum(rhs),rhsMax =  -8.56385536776757E+01  1.45229230556453E+00
(PID.TID 0000.0001)  ploadbar=  1.01158368818095E+05
 cg2d: Sum(rhs),rhsMax =  -8.58064803382371E+01  1.45017582853939E+00
(PID.TID 0000.0001)  ploadbar=  1.01158102988179E+05
 cg2d: Sum(rhs),rhsMax =  -8.59919221971611E+01  1.44774554941310E+00
(PID.TID 0000.0001)  ploadbar=  1.01158055346025E+05
 cg2d: Sum(rhs),rhsMax =  -8.61677419526245E+01  1.44545806579577E+00
(PID.TID 0000.0001)  ploadbar=  1.01158007703871E+05
 cg2d: Sum(rhs),rhsMax =  -8.63439266704374E+01  1.44314365091296E+00
(PID.TID 0000.0001)  ploadbar=  1.01157960061717E+05
 cg2d: Sum(rhs),rhsMax =  -8.65343899560578E+01  1.44057081595118E+00
(PID.TID 0000.0001)  ploadbar=  1.01157912419563E+05
 cg2d: Sum(rhs),rhsMax =  -8.67385808268702E+01  1.43774988148849E+00
(PID.TID 0000.0001)  ploadbar=  1.01157864777409E+05
 cg2d: Sum(rhs),rhsMax =  -8.69589626839400E+01  1.43464078977994E+00
(PID.TID 0000.0001)  ploadbar=  1.01157817135255E+05
 cg2d: Sum(rhs),rhsMax =  -8.72535402072348E+01  1.43036674123872E+00
(PID.TID 0000.0001)  ploadbar=  1.01157637928724E+05
 cg2d: Sum(rhs),rhsMax =  -8.75648413978140E+01  1.42588397243745E+00
(PID.TID 0000.0001)  ploadbar=  1.01157458722193E+05
 cg2d: Sum(rhs),rhsMax =  -8.78744820249289E+01  1.42149490457490E+00
(PID.TID 0000.0001)  ploadbar=  1.01157279515662E+05
 cg2d: Sum(rhs),rhsMax =  -8.81888951238909E+01  1.41709588433907E+00
(PID.TID 0000.0001)  ploadbar=  1.01157100309131E+05
 cg2d: Sum(rhs),rhsMax =  -8.83044351645475E+01  1.41594610845556E+00
(PID.TID 0000.0001)  ploadbar=  1.01156921102600E+05
 cg2d: Sum(rhs),rhsMax =  -8.78683769859662E+01  1.42371573044960E+00
(PID.TID 0000.0001)  ploadbar=  1.01156741896069E+05
 cg2d: Sum(rhs),rhsMax =  -8.74212012698518E+01  1.43174505579483E+00
(PID.TID 0000.0001)  ploadbar=  1.01155992284353E+05
 cg2d: Sum(rhs),rhsMax =  -8.70068551985008E+01  1.43931683525291E+00
(PID.TID 0000.0001)  ploadbar=  1.01155242672638E+05
 cg2d: Sum(rhs),rhsMax =  -8.66213123116493E+01  1.44648515843747E+00
(PID.TID 0000.0001)  ploadbar=  1.01154493060922E+05
 cg2d: Sum(rhs),rhsMax =  -8.62711209104172E+01  1.45312445730304E+00
(PID.TID 0000.0001)  ploadbar=  1.01153743449206E+05
 cg2d: Sum(rhs),rhsMax =  -8.59578161754581E+01  1.45919358635676E+00
(PID.TID 0000.0001)  ploadbar=  1.01152993837490E+05
 cg2d: Sum(rhs),rhsMax =  -8.56775111908595E+01  1.46474411644381E+00
(PID.TID 0000.0001)  ploadbar=  1.01152244225775E+05
 cg2d: Sum(rhs),rhsMax =  -8.54381296307668E+01  1.46961822231654E+00
(PID.TID 0000.0001)  ploadbar=  1.01152114683393E+05
 cg2d: Sum(rhs),rhsMax =  -8.52523744709703E+01  1.47358345470454E+00
(PID.TID 0000.0001)  ploadbar=  1.01151985141011E+05
 cg2d: Sum(rhs),rhsMax =  -8.50946183954010E+01  1.47706980665487E+00
(PID.TID 0000.0001)  ploadbar=  1.01151855598629E+05
 cg2d: Sum(rhs),rhsMax =  -8.49952339223985E+01  1.47954330872894E+00
(PID.TID 0000.0001)  ploadbar=  1.01151726056247E+05
 cg2d: Sum(rhs),rhsMax =  -8.49932348557401E+01  1.48031444053201E+00
(PID.TID 0000.0001)  ploadbar=  1.01151596513866E+05
 cg2d: Sum(rhs),rhsMax =  -8.50381114078658E+01  1.48026107915757E+00
(PID.TID 0000.0001)  ploadbar=  1.01151466971484E+05
 cg2d: Sum(rhs),rhsMax =  -8.51099727482847E+01  1.47968684834519E+00
(PID.TID 0000.0001)  ploadbar=  1.01150989720174E+05
 cg2d: Sum(rhs),rhsMax =  -8.51723346808393E+01  1.47922619960219E+00
(PID.TID 0000.0001)  ploadbar=  1.01150512468864E+05
 cg2d: Sum(rhs),rhsMax =  -8.52242848688541E+01  1.47889461592913E+00
(PID.TID 0000.0001)  ploadbar=  1.01150035217555E+05
 cg2d: Sum(rhs),rhsMax =  -8.52636377395505E+01  1.47873116476826E+00
(PID.TID 0000.0001)  ploadbar=  1.01149557966245E+05
 cg2d: Sum(rhs),rhsMax =  -8.53037080085342E+01  1.47850513965512E+00
(PID.TID 0000.0001)  ploadbar=  1.01149080714935E+05
 cg2d: Sum(rhs),rhsMax =  -8.53695089707156E+01  1.47778432972500E+00
(PID.TID 0000.0001)  ploadbar=  1.01148603463625E+05
 cg2d: Sum(rhs),rhsMax =  -8.55135593364666E+01  1.47574482116962E+00
(PID.TID 0000.0001)  ploadbar=  1.01148160941748E+05
 cg2d: Sum(rhs),rhsMax =  -8.56880870732835E+01  1.47321662809790E+00
(PID.TID 0000.0001)  ploadbar=  1.01147718419871E+05
 cg2d: Sum(rhs),rhsMax =  -8.59116422829509E+01  1.46988854652517E+00
(PID.TID 0000.0001)  ploadbar=  1.01147275897994E+05
 cg2d: Sum(rhs),rhsMax =  -8.61707358211800E+01  1.46600279705889E+00
(PID.TID 0000.0001)  ploadbar=  1.01146833376117E+05
 cg2d: Sum(rhs),rhsMax =  -8.64357838380283E+01  1.46206953904648E+00
(PID.TID 0000.0001)  ploadbar=  1.01146390854241E+05
 cg2d: Sum(rhs),rhsMax =  -8.66759213331879E+01  1.45861034179928E+00
(PID.TID 0000.0001)  ploadbar=  1.01145948332364E+05
 cg2d: Sum(rhs),rhsMax =  -8.69786628112028E+01  1.45414210964878E+00
(PID.TID 0000.0001)  ploadbar=  1.01147004052332E+05
 cg2d: Sum(rhs),rhsMax =  -8.73075065387429E+01  1.44928964101784E+00
(PID.TID 0000.0001)  ploadbar=  1.01148059772301E+05
 cg2d: Sum(rhs),rhsMax =  -8.76664281395085E+01  1.44399614933367E+00
(PID.TID 0000.0001)  ploadbar=  1.01149115492269E+05
 cg2d: Sum(rhs),rhsMax =  -8.80472718103547E+01  1.43840477904179E+00
(PID.TID 0000.0001)  ploadbar=  1.01150171212238E+05
 cg2d: Sum(rhs),rhsMax =  -8.84268427804630E+01  1.43289872663756E+00
(PID.TID 0000.0001)  ploadbar=  1.01151226932207E+05
 cg2d: Sum(rhs),rhsMax =  -8.87814651658141E+01  1.42785869929239E+00
(PID.TID 0000.0001)  ploadbar=  1.01152282652175E+05
 cg2d: Sum(rhs),rhsMax =  -8.90370479077143E+01  1.42443583491284E+00
(PID.TID 0000.0001)  ploadbar=  1.01152355378476E+05
 cg2d: Sum(rhs),rhsMax =  -8.92427188217808E+01  1.42182037688572E+00
(PID.TID 0000.0001)  ploadbar=  1.01152428104776E+05
 cg2d: Sum(rhs),rhsMax =  -8.93876467326911E+01  1.42017506741345E+00
(PID.TID 0000.0001)  ploadbar=  1.01152500831077E+05
 cg2d: Sum(rhs),rhsMax =  -8.95181735817838E+01  1.41875642239431E+00
(PID.TID 0000.0001)  ploadbar=  1.01152573557377E+05
 cg2d: Sum(rhs),rhsMax =  -8.96771555588835E+01  1.41688466787699E+00
(PID.TID 0000.0001)  ploadbar=  1.01152646283678E+05
 cg2d: Sum(rhs),rhsMax =  -8.98960759851383E+01  1.41406722148676E+00
(PID.TID 0000.0001)  ploadbar=  1.01152719009978E+05
 cg2d: Sum(rhs),rhsMax =  -9.01357036313474E+01  1.41091574924612E+00
(PID.TID 0000.0001)  ploadbar=  1.01152213060267E+05
 cg2d: Sum(rhs),rhsMax =  -9.04187201577655E+01  1.40708129078029E+00
(PID.TID 0000.0001)  ploadbar=  1.01151707110556E+05
 cg2d: Sum(rhs),rhsMax =  -9.07240716780363E+01  1.40289923287250E+00
(PID.TID 0000.0001)  ploadbar=  1.01151201160844E+05
 cg2d: Sum(rhs),rhsMax =  -9.10385761472784E+01  1.39857755077435E+00
(PID.TID 0000.0001)  ploadbar=  1.01150695211133E+05
 cg2d: Sum(rhs),rhsMax =  -9.13437656587618E+01  1.39440121525701E+00
(PID.TID 0000.0001)  ploadbar=  1.01150189261421E+05
 cg2d: Sum(rhs),rhsMax =  -9.16321447647549E+01  1.39048064599688E+00
(PID.TID 0000.0001)  ploadbar=  1.01149683311710E+05
 cg2d: Sum(rhs),rhsMax =  -9.19097970484776E+01  1.38675193534893E+00
(PID.TID 0000.0001)  ploadbar=  1.01149428290261E+05
 cg2d: Sum(rhs),rhsMax =  -9.21699162386602E+01  1.38331288716652E+00
(PID.TID 0000.0001)  ploadbar=  1.01149173268811E+05
 cg2d: Sum(rhs),rhsMax =  -9.24305009713823E+01  1.37988966418758E+00
(PID.TID 0000.0001)  ploadbar=  1.01148918247362E+05
 cg2d: Sum(rhs),rhsMax =  -9.26852265913198E+01  1.37657470615077E+00
(PID.TID 0000.0001)  ploadbar=  1.01148663225913E+05
 cg2d: Sum(rhs),rhsMax =  -9.29398467897508E+01  1.37327844092214E+00
(PID.TID 0000.0001)  ploadbar=  1.01148408204464E+05
 cg2d: Sum(rhs),rhsMax =  -9.31977913067468E+01  1.36995021321043E+00
(PID.TID 0000.0001)  ploadbar=  1.01148153183014E+05
 cg2d: Sum(rhs),rhsMax =  -9.34793556268189E+01  1.36630308592192E+00
(PID.TID 0000.0001)  ploadbar=  1.01147683072065E+05
 cg2d: Sum(rhs),rhsMax =  -9.37402087131283E+01  1.36298779311091E+00
(PID.TID 0000.0001)  ploadbar=  1.01147212961115E+05
 cg2d: Sum(rhs),rhsMax =  -9.39880043323606E+01  1.35988919819410E+00
(PID.TID 0000.0001)  ploadbar=  1.01146742850166E+05
 cg2d: Sum(rhs),rhsMax =  -9.40007184477231E+01  1.36020895808797E+00
(PID.TID 0000.0001)  ploadbar=  1.01146272739216E+05
 cg2d: Sum(rhs),rhsMax =  -9.38391847243602E+01  1.36306075011426E+00
(PID.TID 0000.0001)  ploadbar=  1.01145802628267E+05
 cg2d: Sum(rhs),rhsMax =  -9.36885897483291E+01  1.36576718546023E+00
(PID.TID 0000.0001)  ploadbar=  1.01145332517317E+05
 cg2d: Sum(rhs),rhsMax =  -9.35342495224342E+01  1.36853420457229E+00
(PID.TID 0000.0001)  ploadbar=  1.01145040983568E+05
 cg2d: Sum(rhs),rhsMax =  -9.33604699773604E+01  1.37159195629194E+00
(PID.TID 0000.0001)  ploadbar=  1.01144749449819E+05
 cg2d: Sum(rhs),rhsMax =  -9.31663756939176E+01  1.37495644869632E+00
(PID.TID 0000.0001)  ploadbar=  1.01144457916069E+05
 cg2d: Sum(rhs),rhsMax =  -9.29573854040368E+01  1.37855122713013E+00
(PID.TID 0000.0001)  ploadbar=  1.01144166382320E+05
 cg2d: Sum(rhs),rhsMax =  -9.27438157526793E+01  1.38222389695901E+00
(PID.TID 0000.0001)  ploadbar=  1.01143874848571E+05
 cg2d: Sum(rhs),rhsMax =  -9.25362165843390E+01  1.38581721903482E+00
(PID.TID 0000.0001)  ploadbar=  1.01143583314822E+05
 cg2d: Sum(rhs),rhsMax =  -9.23637179005044E+01  1.38887503897052E+00
(PID.TID 0000.0001)  ploadbar=  1.01143510338073E+05
 cg2d: Sum(rhs),rhsMax =  -9.22149851835492E+01  1.39156056587542E+00
(PID.TID 0000.0001)  ploadbar=  1.01143437361324E+05
 cg2d: Sum(rhs),rhsMax =  -9.20930851325966E+01  1.39382371669843E+00
(PID.TID 0000.0001)  ploadbar=  1.01143364384576E+05
 cg2d: Sum(rhs),rhsMax =  -9.19953076673094E+01  1.39570018818380E+00
(PID.TID 0000.0001)  ploadbar=  1.01143291407827E+05
 cg2d: Sum(rhs),rhsMax =  -9.19152811773124E+01  1.39728154175393E+00
(PID.TID 0000.0001)  ploadbar=  1.01143218431078E+05
 cg2d: Sum(rhs),rhsMax =  -9.18454240119531E+01  1.39868217916779E+00
(PID.TID 0000.0001)  ploadbar=  1.01143145454329E+05
 cg2d: Sum(rhs),rhsMax =  -9.17646173183066E+01  1.40029116051374E+00
(PID.TID 0000.0001)  ploadbar=  1.01142400999200E+05
 cg2d: Sum(rhs),rhsMax =  -9.16667783740625E+01  1.40219999256327E+00
(PID.TID 0000.0001)  ploadbar=  1.01141656544072E+05
 cg2d: Sum(rhs),rhsMax =  -9.15444152326443E+01  1.40452520060807E+00
(PID.TID 0000.0001)  ploadbar=  1.01140912088943E+05
 cg2d: Sum(rhs),rhsMax =  -9.13982486417267E+01  1.40726035116628E+00
(PID.TID 0000.0001)  ploadbar=  1.01140167633814E+05
 cg2d: Sum(rhs),rhsMax =  -9.12358295091593E+01  1.41029038872342E+00
(PID.TID 0000.0001)  ploadbar=  1.01139423178685E+05
 cg2d: Sum(rhs),rhsMax =  -9.10961105644131E+01  1.41301320974643E+00
(PID.TID 0000.0001)  ploadbar=  1.01138678723556E+05
 cg2d: Sum(rhs),rhsMax =  -9.09888154466322E+01  1.41524259636573E+00
(PID.TID 0000.0001)  ploadbar=  1.01138167990953E+05
 cg2d: Sum(rhs),rhsMax =  -9.09168545323751E+01  1.41692983882611E+00
(PID.TID 0000.0001)  ploadbar=  1.01137657258349E+05
 cg2d: Sum(rhs),rhsMax =  -9.08620649394016E+01  1.41835357066217E+00
(PID.TID 0000.0001)  ploadbar=  1.01137146525746E+05
 cg2d: Sum(rhs),rhsMax =  -9.08112502767660E+01  1.41972044939804E+00
(PID.TID 0000.0001)  ploadbar=  1.01136635793143E+05
 cg2d: Sum(rhs),rhsMax =  -9.07568020730251E+01  1.42114671663493E+00
(PID.TID 0000.0001)  ploadbar=  1.01136125060539E+05
 cg2d: Sum(rhs),rhsMax =  -9.07005265900971E+01  1.42260194336856E+00
(PID.TID 0000.0001)  ploadbar=  1.01135614327936E+05
 cg2d: Sum(rhs),rhsMax =  -9.06411066255849E+01  1.42410667458933E+00
(PID.TID 0000.0001)  ploadbar=  1.01136480980992E+05
 cg2d: Sum(rhs),rhsMax =  -9.13021223349764E+01  1.41436189821185E+00
(PID.TID 0000.0001)  ploadbar=  1.01137347634048E+05
 cg2d: Sum(rhs),rhsMax =  -9.21109096103814E+01  1.40250012960967E+00
(PID.TID 0000.0001)  ploadbar=  1.01138214287103E+05
 cg2d: Sum(rhs),rhsMax =  -9.29248983026371E+01  1.39076348709329E+00
(PID.TID 0000.0001)  ploadbar=  1.01139080940159E+05
 cg2d: Sum(rhs),rhsMax =  -9.37577719073664E+01  1.37894665434747E+00
(PID.TID 0000.0001)  ploadbar=  1.01139947593215E+05
 cg2d: Sum(rhs),rhsMax =  -9.46240604065003E+01  1.36684801899193E+00
(PID.TID 0000.0001)  ploadbar=  1.01140814246271E+05
 cg2d: Sum(rhs),rhsMax =  -9.55263908605382E+01  1.35443477588502E+00
(PID.TID 0000.0001)  ploadbar=  1.01141139651548E+05
 cg2d: Sum(rhs),rhsMax =  -9.64581493423905E+01  1.34182215492020E+00
(PID.TID 0000.0001)  ploadbar=  1.01141465056826E+05
 cg2d: Sum(rhs),rhsMax =  -9.74315008207086E+01  1.32886110466326E+00
(PID.TID 0000.0001)  ploadbar=  1.01141790462104E+05
 cg2d: Sum(rhs),rhsMax =  -9.84532501134185E+01  1.31548876369875E+00
(PID.TID 0000.0001)  ploadbar=  1.01142115867381E+05
 cg2d: Sum(rhs),rhsMax =  -9.95114879392258E+01  1.30189187860463E+00
(PID.TID 0000.0001)  ploadbar=  1.01142441272659E+05
 cg2d: Sum(rhs),rhsMax =  -1.00623384426626E+02  1.28787313069701E+00
(PID.TID 0000.0001)  ploadbar=  1.01142766677937E+05
 cg2d: Sum(rhs),rhsMax =  -1.01644059568992E+02  1.27530757118784E+00
(PID.TID 0000.0001)  ploadbar=  1.01142668819304E+05
 cg2d: Sum(rhs),rhsMax =  -1.01833912092932E+02  1.27329790319906E+00
(PID.TID 0000.0001)  ploadbar=  1.01142570960671E+05
 cg2d: Sum(rhs),rhsMax =  -1.02031891808537E+02  1.27119594020510E+00
(PID.TID 0000.0001)  ploadbar=  1.01142473102038E+05
 cg2d: Sum(rhs),rhsMax =  -1.02234785823730E+02  1.26904434943945E+00
(PID.TID 0000.0001)  ploadbar=  1.01142375243405E+05
 cg2d: Sum(rhs),rhsMax =  -1.02444616124805E+02  1.26681873866565E+00
(PID.TID 0000.0001)  ploadbar=  1.01142277384773E+05
 cg2d: Sum(rhs),rhsMax =  -1.02662512763927E+02  1.26450601146951E+00
(PID.TID 0000.0001)  ploadbar=  1.01142179526140E+05
 cg2d: Sum(rhs),rhsMax =  -1.02888377067196E+02  1.26210360022206E+00
(PID.TID 0000.0001)  ploadbar=  1.01143046417534E+05
 cg2d: Sum(rhs),rhsMax =  -1.03096219981601E+02  1.25993078979726E+00
(PID.TID 0000.0001)  ploadbar=  1.01143913308928E+05
 cg2d: Sum(rhs),rhsMax =  -1.03287249920183E+02  1.25797163861898E+00
(PID.TID 0000.0001)  ploadbar=  1.01144780200322E+05
 cg2d: Sum(rhs),rhsMax =  -1.03464068314835E+02  1.25619387825530E+00
(PID.TID 0000.0001)  ploadbar=  1.01145647091716E+05
 cg2d: Sum(rhs),rhsMax =  -1.03633641533851E+02  1.25451129683885E+00
(PID.TID 0000.0001)  ploadbar=  1.01146513983111E+05
 cg2d: Sum(rhs),rhsMax =  -1.03800675000057E+02  1.25286349807150E+00
(PID.TID 0000.0001)  ploadbar=  1.01147380874505E+05
 cg2d: Sum(rhs),rhsMax =  -1.04019266034490E+02  1.25060501073156E+00
(PID.TID 0000.0001)  ploadbar=  1.01147255817162E+05
 cg2d: Sum(rhs),rhsMax =  -1.04277907138137E+02  1.24787860531309E+00
(PID.TID 0000.0001)  ploadbar=  1.01147130759819E+05
 cg2d: Sum(rhs),rhsMax =  -1.04557701965060E+02  1.24491460002840E+00
(PID.TID 0000.0001)  ploadbar=  1.01147005702476E+05
 cg2d: Sum(rhs),rhsMax =  -1.04870283134626E+02  1.24157824934458E+00
(PID.TID 0000.0001)  ploadbar=  1.01146880645133E+05
 cg2d: Sum(rhs),rhsMax =  -1.04347667350866E+02  1.24817392456418E+00
(PID.TID 0000.0001)  ploadbar=  1.01146755587790E+05
 cg2d: Sum(rhs),rhsMax =  -1.03662138260324E+02  1.25680628429125E+00
(PID.TID 0000.0001)  ploadbar=  1.01146630530447E+05
 cg2d: Sum(rhs),rhsMax =  -1.02949674075362E+02  1.26586937504528E+00
(PID.TID 0000.0001)  ploadbar=  1.01147028103954E+05
 cg2d: Sum(rhs),rhsMax =  -1.02272454204381E+02  1.27460492630964E+00
(PID.TID 0000.0001)  ploadbar=  1.01147425677461E+05
 cg2d: Sum(rhs),rhsMax =  -1.01641665951322E+02  1.28285389948394E+00
(PID.TID 0000.0001)  ploadbar=  1.01147823250968E+05
 cg2d: Sum(rhs),rhsMax =  -1.01053486767939E+02  1.29064425083744E+00
(PID.TID 0000.0001)  ploadbar=  1.01148220824475E+05
 cg2d: Sum(rhs),rhsMax =  -1.00473671173538E+02  1.29839937217912E+00
(PID.TID 0000.0001)  ploadbar=  1.01148618397983E+05
 cg2d: Sum(rhs),rhsMax =  -9.98771581221929E+01  1.30644402383617E+00
(PID.TID 0000.0001)  ploadbar=  1.01149015971490E+05
 cg2d: Sum(rhs),rhsMax =  -9.92551218614023E+01  1.31492944980734E+00
(PID.TID 0000.0001)  ploadbar=  1.01149741075324E+05
 cg2d: Sum(rhs),rhsMax =  -9.86240240174994E+01  1.32365035750535E+00
(PID.TID 0000.0001)  ploadbar=  1.01150466179159E+05
 cg2d: Sum(rhs),rhsMax =  -9.79756764691538E+01  1.33272591309885E+00
(PID.TID 0000.0001)  ploadbar=  1.01151191282994E+05
 cg2d: Sum(rhs),rhsMax =  -9.73120007444181E+01  1.34213903796654E+00
(PID.TID 0000.0001)  ploadbar=  1.01151916386829E+05
 cg2d: Sum(rhs),rhsMax =  -9.66525976857173E+01  1.35162630224852E+00
(PID.TID 0000.0001)  ploadbar=  1.01152641490664E+05
 cg2d: Sum(rhs),rhsMax =  -9.60125644437213E+01  1.36097295694272E+00
(PID.TID 0000.0001)  ploadbar=  1.01153366594499E+05
 cg2d: Sum(rhs),rhsMax =  -9.54585326934378E+01  1.36922421704251E+00
(PID.TID 0000.0001)  ploadbar=  1.01154285010299E+05
 cg2d: Sum(rhs),rhsMax =  -9.49921004675733E+01  1.37631628926421E+00
(PID.TID 0000.0001)  ploadbar=  1.01155203426100E+05
 cg2d: Sum(rhs),rhsMax =  -9.46061323369453E+01  1.38231446096523E+00
(PID.TID 0000.0001)  ploadbar=  1.01156121841900E+05
 cg2d: Sum(rhs),rhsMax =  -9.42819635241631E+01  1.38746192326726E+00
(PID.TID 0000.0001)  ploadbar=  1.01157040257701E+05
 cg2d: Sum(rhs),rhsMax =  -9.40057058640929E+01  1.39194215012753E+00
(PID.TID 0000.0001)  ploadbar=  1.01157958673501E+05
 cg2d: Sum(rhs),rhsMax =  -9.37673214876667E+01  1.39588658656418E+00
(PID.TID 0000.0001)  ploadbar=  1.01158877089301E+05
 cg2d: Sum(rhs),rhsMax =  -9.34620384909722E+01  1.40084675140070E+00
(PID.TID 0000.0001)  ploadbar=  1.01159391863457E+05
 cg2d: Sum(rhs),rhsMax =  -9.31520422656296E+01  1.40590310551893E+00
(PID.TID 0000.0001)  ploadbar=  1.01159906637613E+05
 cg2d: Sum(rhs),rhsMax =  -9.28717517506145E+01  1.41053446368723E+00
(PID.TID 0000.0001)  ploadbar=  1.01160421411768E+05
 cg2d: Sum(rhs),rhsMax =  -9.26472325800957E+01  1.41433174764491E+00
(PID.TID 0000.0001)  ploadbar=  1.01160936185924E+05
 cg2d: Sum(rhs),rhsMax =  -9.25098417533736E+01  1.41679812906896E+00
(PID.TID 0000.0001)  ploadbar=  1.01161450960079E+05
 cg2d: Sum(rhs),rhsMax =  -9.24858378677110E+01  1.41751474286226E+00
(PID.TID 0000.0001)  ploadbar=  1.01161965734235E+05
 cg2d: Sum(rhs),rhsMax =  -9.27299967001541E+01  1.41411532181506E+00
(PID.TID 0000.0001)  ploadbar=  1.01161829403668E+05
 cg2d: Sum(rhs),rhsMax =  -9.31625116158873E+01  1.40786544747388E+00
(PID.TID 0000.0001)  ploadbar=  1.01161693073101E+05
 cg2d: Sum(rhs),rhsMax =  -9.37786350055731E+01  1.39891205511705E+00
(PID.TID 0000.0001)  ploadbar=  1.01161556742534E+05
 cg2d: Sum(rhs),rhsMax =  -9.45592729871692E+01  1.38763817867124E+00
(PID.TID 0000.0001)  ploadbar=  1.01161420411967E+05
 cg2d: Sum(rhs),rhsMax =  -9.54747562477052E+01  1.37458501671033E+00
(PID.TID 0000.0001)  ploadbar=  1.01161284081400E+05
 cg2d: Sum(rhs),rhsMax =  -9.64678571264079E+01  1.36066185318670E+00
(PID.TID 0000.0001)  ploadbar=  1.01161147750833E+05
 cg2d: Sum(rhs),rhsMax =  -9.72233839773807E+01  1.35035883782076E+00
(PID.TID 0000.0001)  ploadbar=  1.01160942490097E+05
 cg2d: Sum(rhs),rhsMax =  -9.77298449267875E+01  1.34367298520596E+00
(PID.TID 0000.0001)  ploadbar=  1.01160737229361E+05
 cg2d: Sum(rhs),rhsMax =  -9.77394952032810E+01  1.34389152406907E+00
(PID.TID 0000.0001)  ploadbar=  1.01160531968625E+05
 cg2d: Sum(rhs),rhsMax =  -9.73992551846203E+01  1.34897564771453E+00
(PID.TID 0000.0001)  ploadbar=  1.01160326707889E+05
 cg2d: Sum(rhs),rhsMax =  -9.70571799741061E+01  1.35415665836468E+00
(PID.TID 0000.0001)  ploadbar=  1.01160121447153E+05
 cg2d: Sum(rhs),rhsMax =  -9.67027333860137E+01  1.35958171505924E+00
(PID.TID 0000.0001)  ploadbar=  1.01159916186418E+05
 cg2d: Sum(rhs),rhsMax =  -9.64254388788549E+01  1.36396583354678E+00
(PID.TID 0000.0001)  ploadbar=  1.01159992658922E+05
 cg2d: Sum(rhs),rhsMax =  -9.61516208985599E+01  1.36833980232267E+00
(PID.TID 0000.0001)  ploadbar=  1.01160069131427E+05
 cg2d: Sum(rhs),rhsMax =  -9.58451960840807E+01  1.37321686619336E+00
(PID.TID 0000.0001)  ploadbar=  1.01160145603932E+05
 cg2d: Sum(rhs),rhsMax =  -9.55050929003892E+01  1.37862189022582E+00
(PID.TID 0000.0001)  ploadbar=  1.01160222076437E+05
 cg2d: Sum(rhs),rhsMax =  -9.51358980422422E+01  1.38450102640403E+00
(PID.TID 0000.0001)  ploadbar=  1.01160298548942E+05
 cg2d: Sum(rhs),rhsMax =  -9.47338268926540E+01  1.39092013630376E+00
(PID.TID 0000.0001)  ploadbar=  1.01160375021447E+05
 cg2d: Sum(rhs),rhsMax =  -9.44573874194861E+01  1.39553347716183E+00
(PID.TID 0000.0001)  ploadbar=  1.01161637482390E+05
 cg2d: Sum(rhs),rhsMax =  -9.41794397130567E+01  1.40019443101662E+00
(PID.TID 0000.0001)  ploadbar=  1.01162899943333E+05
 cg2d: Sum(rhs),rhsMax =  -9.38710117839757E+01  1.40533757316536E+00
(PID.TID 0000.0001)  ploadbar=  1.01164162404276E+05
 cg2d: Sum(rhs),rhsMax =  -9.35424568093464E+01  1.41081436521450E+00
(PID.TID 0000.0001)  ploadbar=  1.01165424865219E+05
 cg2d: Sum(rhs),rhsMax =  -9.31802576719631E+01  1.41683533568973E+00
(PID.TID 0000.0001)  ploadbar=  1.01166687326162E+05
 cg2d: Sum(rhs),rhsMax =  -9.28648744128276E+01  1.42218055746855E+00
(PID.TID 0000.0001)  ploadbar=  1.01167949787105E+05
 cg2d: Sum(rhs),rhsMax =  -9.26242560352306E+01  1.42638034989598E+00
(PID.TID 0000.0001)  ploadbar=  1.01168406212032E+05
 cg2d: Sum(rhs),rhsMax =  -9.24933762853558E+01  1.42887476618323E+00
(PID.TID 0000.0001)  ploadbar=  1.01168862636959E+05
 cg2d: Sum(rhs),rhsMax =  -9.24774662300626E+01  1.42956656589926E+00
(PID.TID 0000.0001)  ploadbar=  1.01169319061885E+05
 cg2d: Sum(rhs),rhsMax =  -9.25379018764866E+01  1.42904588240461E+00
(PID.TID 0000.0001)  ploadbar=  1.01169775486812E+05
 cg2d: Sum(rhs),rhsMax =  -9.33452421406457E+01  1.41706178132577E+00
(PID.TID 0000.0001)  ploadbar=  1.01170231911739E+05
 cg2d: Sum(rhs),rhsMax =  -9.45462852719612E+01  1.39939615953935E+00
(PID.TID 0000.0001)  ploadbar=  1.01170688336665E+05
 cg2d: Sum(rhs),rhsMax =  -9.57215331377196E+01  1.38257226338642E+00
(PID.TID 0000.0001)  ploadbar=  1.01170970359040E+05
 cg2d: Sum(rhs),rhsMax =  -9.68686587827386E+01  1.36658279326516E+00
(PID.TID 0000.0001)  ploadbar=  1.01171252381415E+05
 cg2d: Sum(rhs),rhsMax =  -9.79492843899833E+01  1.35191367834435E+00
(PID.TID 0000.0001)  ploadbar=  1.01171534403790E+05
 cg2d: Sum(rhs),rhsMax =  -9.89473995804577E+01  1.33870665484150E+00
(PID.TID 0000.0001)  ploadbar=  1.01171816426164E+05
 cg2d: Sum(rhs),rhsMax =  -9.98567245748357E+01  1.32696821265540E+00
(PID.TID 0000.0001)  ploadbar=  1.01172098448539E+05
 cg2d: Sum(rhs),rhsMax =  -1.00677587995287E+02  1.31662122320528E+00
(PID.TID 0000.0001)  ploadbar=  1.01172380470914E+05
 cg2d: Sum(rhs),rhsMax =  -1.01399747830932E+02  1.30771330166202E+00
(PID.TID 0000.0001)  ploadbar=  1.01171287150819E+05
 cg2d: Sum(rhs),rhsMax =  -1.02087839642977E+02  1.29936676471284E+00
(PID.TID 0000.0001)  ploadbar=  1.01170193830724E+05
 cg2d: Sum(rhs),rhsMax =  -1.02732152306898E+02  1.29168242320081E+00
(PID.TID 0000.0001)  ploadbar=  1.01169100510629E+05
 cg2d: Sum(rhs),rhsMax =  -1.03313116228999E+02  1.28488125478115E+00
(PID.TID 0000.0001)  ploadbar=  1.01168007190534E+05
 cg2d: Sum(rhs),rhsMax =  -1.03829024304616E+02  1.27895812803484E+00
(PID.TID 0000.0001)  ploadbar=  1.01166913870440E+05
 cg2d: Sum(rhs),rhsMax =  -1.03742288546132E+02  1.28048951034873E+00
(PID.TID 0000.0001)  ploadbar=  1.01165820550345E+05
 cg2d: Sum(rhs),rhsMax =  -1.03556715475182E+02  1.28323629592087E+00
(PID.TID 0000.0001)  ploadbar=  1.01164894956261E+05
 cg2d: Sum(rhs),rhsMax =  -1.03326146200234E+02  1.28654146246955E+00
(PID.TID 0000.0001)  ploadbar=  1.01163969362176E+05
 cg2d: Sum(rhs),rhsMax =  -1.03072684883052E+02  1.29013662368837E+00
(PID.TID 0000.0001)  ploadbar=  1.01163043768092E+05
 cg2d: Sum(rhs),rhsMax =  -1.02803587303410E+02  1.29393485184436E+00
(PID.TID 0000.0001)  ploadbar=  1.01162118174008E+05
 cg2d: Sum(rhs),rhsMax =  -1.02504429498241E+02  1.29812246241651E+00
(PID.TID 0000.0001)  ploadbar=  1.01161192579924E+05
 cg2d: Sum(rhs),rhsMax =  -1.02237317614183E+02  1.30191423135635E+00
(PID.TID 0000.0001)  ploadbar=  1.01160266985840E+05
 cg2d: Sum(rhs),rhsMax =  -1.02087860727909E+02  1.30419358874797E+00
(PID.TID 0000.0001)  ploadbar=  1.01159805414882E+05
 cg2d: Sum(rhs),rhsMax =  -1.02052648755647E+02  1.30498805597086E+00
(PID.TID 0000.0001)  ploadbar=  1.01159343843923E+05
 cg2d: Sum(rhs),rhsMax =  -1.03408100809541E+02  1.28819374905446E+00
(PID.TID 0000.0001)  ploadbar=  1.01158882272965E+05
 cg2d: Sum(rhs),rhsMax =  -1.04816372472025E+02  1.27116556859922E+00
(PID.TID 0000.0001)  ploadbar=  1.01158420702007E+05
 cg2d: Sum(rhs),rhsMax =  -1.06236743551742E+02  1.25441875620870E+00
(PID.TID 0000.0001)  ploadbar=  1.01157959131048E+05
 cg2d: Sum(rhs),rhsMax =  -1.07650124586846E+02  1.23816695354318E+00
(PID.TID 0000.0001)  ploadbar=  1.01157497560090E+05
 cg2d: Sum(rhs),rhsMax =  -1.08939443217974E+02  1.22374507178394E+00
(PID.TID 0000.0001)  ploadbar=  1.01158653440307E+05
 cg2d: Sum(rhs),rhsMax =  -1.09292324803253E+02  1.22004219167161E+00
(PID.TID 0000.0001)  ploadbar=  1.01159809320524E+05
 cg2d: Sum(rhs),rhsMax =  -1.09640754273964E+02  1.21643050033953E+00
(PID.TID 0000.0001)  ploadbar=  1.01160965200741E+05
 cg2d: Sum(rhs),rhsMax =  -1.09985927530657E+02  1.21289533062413E+00
(PID.TID 0000.0001)  ploadbar=  1.01162121080958E+05
 cg2d: Sum(rhs),rhsMax =  -1.10318225050181E+02  1.20954090895741E+00
(PID.TID 0000.0001)  ploadbar=  1.01163276961175E+05
 cg2d: Sum(rhs),rhsMax =  -1.10612348903856E+02  1.20664182299014E+00
(PID.TID 0000.0001)  ploadbar=  1.01164432841392E+05
 cg2d: Sum(rhs),rhsMax =  -1.10861426490711E+02  1.20426030893368E+00
(PID.TID 0000.0001)  ploadbar=  1.01164688998058E+05
 cg2d: Sum(rhs),rhsMax =  -1.11076006265169E+02  1.20227557131405E+00
(PID.TID 0000.0001)  ploadbar=  1.01164945154723E+05
 cg2d: Sum(rhs),rhsMax =  -1.10816046507779E+02  1.20545155567297E+00
(PID.TID 0000.0001)  ploadbar=  1.01165201311388E+05
 cg2d: Sum(rhs),rhsMax =  -1.10489418174531E+02  1.20938581977638E+00
(PID.TID 0000.0001)  ploadbar=  1.01165457468054E+05
 cg2d: Sum(rhs),rhsMax =  -1.10151906768003E+02  1.21347705553678E+00
(PID.TID 0000.0001)  ploadbar=  1.01165713624719E+05
 cg2d: Sum(rhs),rhsMax =  -1.10802767772319E+02  1.20674600391863E+00
(PID.TID 0000.0001)  ploadbar=  1.01165969781384E+05
 cg2d: Sum(rhs),rhsMax =  -1.11802786048630E+02  1.19633180961590E+00
(PID.TID 0000.0001)  ploadbar=  1.01166204440021E+05
 cg2d: Sum(rhs),rhsMax =  -1.12243481386762E+02  1.19199714295970E+00
(PID.TID 0000.0001)  ploadbar=  1.01166439098658E+05
 cg2d: Sum(rhs),rhsMax =  -1.12395225014767E+02  1.19073520197999E+00
(PID.TID 0000.0001)  ploadbar=  1.01166673757295E+05
 cg2d: Sum(rhs),rhsMax =  -1.11862770808625E+02  1.19673732049857E+00
(PID.TID 0000.0001)  ploadbar=  1.01166908415932E+05
 cg2d: Sum(rhs),rhsMax =  -1.10707386401357E+02  1.20954945894937E+00
(PID.TID 0000.0001)  ploadbar=  1.01167143074569E+05
 cg2d: Sum(rhs),rhsMax =  -1.09444545348203E+02  1.22381642994537E+00
(PID.TID 0000.0001)  ploadbar=  1.01167377733206E+05
 cg2d: Sum(rhs),rhsMax =  -1.08129938421855E+02  1.23898267823681E+00
(PID.TID 0000.0001)  ploadbar=  1.01167566848220E+05
 cg2d: Sum(rhs),rhsMax =  -1.06786450515102E+02  1.25483366533760E+00
(PID.TID 0000.0001)  ploadbar=  1.01167755963235E+05
 cg2d: Sum(rhs),rhsMax =  -1.05417053991884E+02  1.27137208374246E+00
(PID.TID 0000.0001)  ploadbar=  1.01167945078249E+05
 cg2d: Sum(rhs),rhsMax =  -1.04050043730936E+02  1.28828616467678E+00
(PID.TID 0000.0001)  ploadbar=  1.01168134193263E+05
 cg2d: Sum(rhs),rhsMax =  -1.02728757397603E+02  1.30503968248394E+00
(PID.TID 0000.0001)  ploadbar=  1.01168323308278E+05
 cg2d: Sum(rhs),rhsMax =  -1.01562065183471E+02  1.32018697963838E+00
(PID.TID 0000.0001)  ploadbar=  1.01168512423292E+05
 cg2d: Sum(rhs),rhsMax =  -1.00670114426174E+02  1.33206471410315E+00
(PID.TID 0000.0001)  ploadbar=  1.01169562519473E+05
 cg2d: Sum(rhs),rhsMax =  -1.00195569102442E+02  1.33857660975995E+00
(PID.TID 0000.0001)  ploadbar=  1.01170612615655E+05
 cg2d: Sum(rhs),rhsMax =  -1.00136668183930E+02  1.33958758758748E+00
(PID.TID 0000.0001)  ploadbar=  1.01171662711836E+05
 cg2d: Sum(rhs),rhsMax =  -1.01998130196511E+02  1.31537776128110E+00
(PID.TID 0000.0001)  ploadbar=  1.01172712808018E+05
 cg2d: Sum(rhs),rhsMax =  -1.04282350861517E+02  1.28681660956186E+00
(PID.TID 0000.0001)  ploadbar=  1.01173762904199E+05
 cg2d: Sum(rhs),rhsMax =  -1.07048816537188E+02  1.25382430100040E+00
(PID.TID 0000.0001)  ploadbar=  1.01174813000380E+05
 cg2d: Sum(rhs),rhsMax =  -1.10570058482445E+02  1.21417331714362E+00
(PID.TID 0000.0001)  ploadbar=  1.01175247032545E+05
 cg2d: Sum(rhs),rhsMax =  -1.14545871849027E+02  1.17231976681922E+00
(PID.TID 0000.0001)  ploadbar=  1.01175681064710E+05
 cg2d: Sum(rhs),rhsMax =  -1.15432996647487E+02  1.16362030429389E+00
(PID.TID 0000.0001)  ploadbar=  1.01176115096876E+05
 cg2d: Sum(rhs),rhsMax =  -1.12890164202061E+02  1.19017042241615E+00
(PID.TID 0000.0001)  ploadbar=  1.01176549129041E+05
 cg2d: Sum(rhs),rhsMax =  -1.10675941394484E+02  1.21435088177758E+00
(PID.TID 0000.0001)  ploadbar=  1.01176983161206E+05
 cg2d: Sum(rhs),rhsMax =  -1.08813567396642E+02  1.23553380523791E+00
(PID.TID 0000.0001)  ploadbar=  1.01177417193371E+05
 cg2d: Sum(rhs),rhsMax =  -1.07402530256542E+02  1.25216043056806E+00
(PID.TID 0000.0001)  ploadbar=  1.01177460220631E+05
 cg2d: Sum(rhs),rhsMax =  -1.06205107290062E+02  1.26666580183276E+00
(PID.TID 0000.0001)  ploadbar=  1.01177503247891E+05
 cg2d: Sum(rhs),rhsMax =  -1.05134446115705E+02  1.27994856120973E+00
(PID.TID 0000.0001)  ploadbar=  1.01177546275151E+05
 cg2d: Sum(rhs),rhsMax =  -1.04115623956033E+02  1.29285279218296E+00
(PID.TID 0000.0001)  ploadbar=  1.01177589302411E+05
 cg2d: Sum(rhs),rhsMax =  -1.03162548250484E+02  1.30517365636105E+00
(PID.TID 0000.0001)  ploadbar=  1.01177632329671E+05
 cg2d: Sum(rhs),rhsMax =  -1.02329126227659E+02  1.31617829431939E+00
(PID.TID 0000.0001)  ploadbar=  1.01177675356931E+05
 cg2d: Sum(rhs),rhsMax =  -1.01637371030299E+02  1.32549166950149E+00
(PID.TID 0000.0001)  ploadbar=  1.01177461613671E+05
 cg2d: Sum(rhs),rhsMax =  -1.01076119850798E+02  1.33318488544391E+00
(PID.TID 0000.0001)  ploadbar=  1.01177247870411E+05
 cg2d: Sum(rhs),rhsMax =  -1.00680671793759E+02  1.33873272472174E+00
(PID.TID 0000.0001)  ploadbar=  1.01177034127151E+05
 cg2d: Sum(rhs),rhsMax =  -1.00494724301079E+02  1.34149860401217E+00
(PID.TID 0000.0001)  ploadbar=  1.01176820383891E+05
 cg2d: Sum(rhs),rhsMax =  -1.00555929898459E+02  1.34094870881273E+00
(PID.TID 0000.0001)  ploadbar=  1.01176606640631E+05
 cg2d: Sum(rhs),rhsMax =  -1.00766365975532E+02  1.33839092590352E+00
(PID.TID 0000.0001)  ploadbar=  1.01176392897371E+05
 cg2d: Sum(rhs),rhsMax =  -1.01120732717820E+02  1.33397820762396E+00
(PID.TID 0000.0001)  ploadbar=  1.01176269949370E+05
 cg2d: Sum(rhs),rhsMax =  -1.01598031748620E+02  1.32802170425976E+00
(PID.TID 0000.0001)  ploadbar=  1.01176147001370E+05
 cg2d: Sum(rhs),rhsMax =  -1.02190322660045E+02  1.32066842005140E+00
(PID.TID 0000.0001)  ploadbar=  1.01176024053369E+05
 cg2d: Sum(rhs),rhsMax =  -1.02876652672284E+02  1.31223420469197E+00
(PID.TID 0000.0001)  ploadbar=  1.01175901105368E+05
 cg2d: Sum(rhs),rhsMax =  -1.03634440532786E+02  1.30304901567392E+00
(PID.TID 0000.0001)  ploadbar=  1.01175778157368E+05
 cg2d: Sum(rhs),rhsMax =  -1.04450726737454E+02  1.29330588085218E+00
(PID.TID 0000.0001)  ploadbar=  1.01175655209367E+05
 cg2d: Sum(rhs),rhsMax =  -1.05300707723249E+02  1.28331114002650E+00
(PID.TID 0000.0001)  ploadbar=  1.01175218792331E+05
 cg2d: Sum(rhs),rhsMax =  -1.06195387798107E+02  1.27294757568943E+00
(PID.TID 0000.0001)  ploadbar=  1.01174782375295E+05
 cg2d: Sum(rhs),rhsMax =  -1.07128203945073E+02  1.26231568620791E+00
(PID.TID 0000.0001)  ploadbar=  1.01174345958258E+05
 cg2d: Sum(rhs),rhsMax =  -1.08110079850805E+02  1.25130670807150E+00
(PID.TID 0000.0001)  ploadbar=  1.01173909541222E+05
 cg2d: Sum(rhs),rhsMax =  -1.09147143946540E+02  1.23987650697261E+00
(PID.TID 0000.0001)  ploadbar=  1.01173473124186E+05
 cg2d: Sum(rhs),rhsMax =  -1.10247046413128E+02  1.22796857504528E+00
(PID.TID 0000.0001)  ploadbar=  1.01173036707150E+05
 cg2d: Sum(rhs),rhsMax =  -1.11343530570702E+02  1.21632951173231E+00
(PID.TID 0000.0001)  ploadbar=  1.01172434636312E+05
 cg2d: Sum(rhs),rhsMax =  -1.12452311417485E+02  1.20478120003863E+00
(PID.TID 0000.0001)  ploadbar=  1.01171832565474E+05
 cg2d: Sum(rhs),rhsMax =  -1.12748025675412E+02  1.20206126047368E+00
(PID.TID 0000.0001)  ploadbar=  1.01171230494635E+05
 cg2d: Sum(rhs),rhsMax =  -1.10506711789298E+02  1.22688907714957E+00
(PID.TID 0000.0001)  ploadbar=  1.01170628423797E+05
 cg2d: Sum(rhs),rhsMax =  -1.08103661905397E+02  1.25461750776187E+00
(PID.TID 0000.0001)  ploadbar=  1.01170026352959E+05
 cg2d: Sum(rhs),rhsMax =  -1.05541541391223E+02  1.28553838900222E+00
(PID.TID 0000.0001)  ploadbar=  1.01169424282120E+05
 cg2d: Sum(rhs),rhsMax =  -1.03307523046294E+02  1.31378603653862E+00
(PID.TID 0000.0001)  ploadbar=  1.01168482885296E+05
 cg2d: Sum(rhs),rhsMax =  -1.01279483939985E+02  1.34052466470823E+00
(PID.TID 0000.0001)  ploadbar=  1.01167541488472E+05
 cg2d: Sum(rhs),rhsMax =  -9.95080360866922E+01  1.36480300886170E+00
(PID.TID 0000.0001)  ploadbar=  1.01166600091648E+05
 cg2d: Sum(rhs),rhsMax =  -9.79876766916623E+01  1.38637476786386E+00
(PID.TID 0000.0001)  ploadbar=  1.01165658694824E+05
 cg2d: Sum(rhs),rhsMax =  -9.66811497937497E+01  1.40548630378564E+00
(PID.TID 0000.0001)  ploadbar=  1.01164717298000E+05
 cg2d: Sum(rhs),rhsMax =  -9.55601656416251E+01  1.42232733250233E+00
(PID.TID 0000.0001)  ploadbar=  1.01163775901176E+05
 cg2d: Sum(rhs),rhsMax =  -9.48190502202155E+01  1.43381684104404E+00
(PID.TID 0000.0001)  ploadbar=  1.01162673587232E+05
 cg2d: Sum(rhs),rhsMax =  -9.42277498027850E+01  1.44320603402923E+00
(PID.TID 0000.0001)  ploadbar=  1.01161571273288E+05
 cg2d: Sum(rhs),rhsMax =  -9.37577171023617E+01  1.45085172466967E+00
(PID.TID 0000.0001)  ploadbar=  1.01160468959344E+05
 cg2d: Sum(rhs),rhsMax =  -9.35008688038122E+01  1.45526643300993E+00
(PID.TID 0000.0001)  ploadbar=  1.01159366645400E+05
 cg2d: Sum(rhs),rhsMax =  -9.34846588159547E+01  1.45596546686616E+00
(PID.TID 0000.0001)  ploadbar=  1.01158264331456E+05
 cg2d: Sum(rhs),rhsMax =  -9.37408314782940E+01  1.45244902338589E+00
(PID.TID 0000.0001)  ploadbar=  1.01157162017511E+05
 cg2d: Sum(rhs),rhsMax =  -9.42743631733360E+01  1.44471033885592E+00
(PID.TID 0000.0001)  ploadbar=  1.01155369734777E+05
 cg2d: Sum(rhs),rhsMax =  -9.51949806143066E+01  1.43123361290369E+00
(PID.TID 0000.0001)  ploadbar=  1.01153577452043E+05
 cg2d: Sum(rhs),rhsMax =  -9.60780004473209E+01  1.41858618895498E+00
(PID.TID 0000.0001)  ploadbar=  1.01151785169309E+05
 cg2d: Sum(rhs),rhsMax =  -9.69523582665378E+01  1.40631199915363E+00
(PID.TID 0000.0001)  ploadbar=  1.01149992886575E+05
 cg2d: Sum(rhs),rhsMax =  -9.77575416498692E+01  1.39526079604333E+00
(PID.TID 0000.0001)  ploadbar=  1.01148200603841E+05
 cg2d: Sum(rhs),rhsMax =  -9.84557008091824E+01  1.38591026955414E+00
(PID.TID 0000.0001)  ploadbar=  1.01146408321107E+05
 cg2d: Sum(rhs),rhsMax =  -9.89961212287419E+01  1.37887426666321E+00
(PID.TID 0000.0001)  ploadbar=  1.01145380892520E+05
 cg2d: Sum(rhs),rhsMax =  -9.93910719078671E+01  1.37391258320315E+00
(PID.TID 0000.0001)  ploadbar=  1.01144353463933E+05
 cg2d: Sum(rhs),rhsMax =  -9.96110318270975E+01  1.37138334640915E+00
(PID.TID 0000.0001)  ploadbar=  1.01143326035346E+05
 cg2d: Sum(rhs),rhsMax =  -9.98233981995969E+01  1.36895754650871E+00
(PID.TID 0000.0001)  ploadbar=  1.01142298606760E+05
 cg2d: Sum(rhs),rhsMax =  -1.00188147360457E+02  1.36445021421003E+00
(PID.TID 0000.0001)  ploadbar=  1.01141271178173E+05
 cg2d: Sum(rhs),rhsMax =  -1.00741964744591E+02  1.35741049886209E+00
(PID.TID 0000.0001)  ploadbar=  1.01140243749586E+05
 cg2d: Sum(rhs),rhsMax =  -1.01491579290625E+02  1.34781584887245E+00
(PID.TID 0000.0001)  ploadbar=  1.01139365022062E+05
 cg2d: Sum(rhs),rhsMax =  -1.02502144214958E+02  1.33492904773378E+00
(PID.TID 0000.0001)  ploadbar=  1.01138486294538E+05
 cg2d: Sum(rhs),rhsMax =  -1.03869451896732E+02  1.31772519516051E+00
(PID.TID 0000.0001)  ploadbar=  1.01137607567014E+05
 cg2d: Sum(rhs),rhsMax =  -1.05567877761274E+02  1.29685922654049E+00
(PID.TID 0000.0001)  ploadbar=  1.01136728839490E+05
 cg2d: Sum(rhs),rhsMax =  -1.07603777830168E+02  1.27262291731504E+00
(PID.TID 0000.0001)  ploadbar=  1.01135850111966E+05
 cg2d: Sum(rhs),rhsMax =  -1.09932468410550E+02  1.24593039308553E+00
(PID.TID 0000.0001)  ploadbar=  1.01134971384442E+05
 cg2d: Sum(rhs),rhsMax =  -1.12515101903583E+02  1.21759504160045E+00
(PID.TID 0000.0001)  ploadbar=  1.01134475751698E+05
 cg2d: Sum(rhs),rhsMax =  -1.15478134250919E+02  1.18661523959470E+00
(PID.TID 0000.0001)  ploadbar=  1.01133980118953E+05
 cg2d: Sum(rhs),rhsMax =  -1.18782298247689E+02  1.15386564370413E+00
(PID.TID 0000.0001)  ploadbar=  1.01133484486208E+05
 cg2d: Sum(rhs),rhsMax =  -1.22355783850940E+02  1.12042020560775E+00
(PID.TID 0000.0001)  ploadbar=  1.01132988853464E+05
 cg2d: Sum(rhs),rhsMax =  -1.26191850290793E+02  1.08661030840931E+00
(PID.TID 0000.0001)  ploadbar=  1.01132493220719E+05
 cg2d: Sum(rhs),rhsMax =  -1.30271982460812E+02  1.05282316649018E+00
(PID.TID 0000.0001)  ploadbar=  1.01131997587975E+05
 cg2d: Sum(rhs),rhsMax =  -1.34389422007637E+02  1.02081444532937E+00
(PID.TID 0000.0001)  ploadbar=  1.01132587970718E+05
 cg2d: Sum(rhs),rhsMax =  -1.36070157177584E+02  1.00845748667738E+00
(PID.TID 0000.0001)  ploadbar=  1.01133178353461E+05
 cg2d: Sum(rhs),rhsMax =  -1.36279260551756E+02  1.00716946464064E+00
(PID.TID 0000.0001)  ploadbar=  1.01133768736204E+05
 cg2d: Sum(rhs),rhsMax =  -1.36353629745298E+02  1.00688569419665E+00
(PID.TID 0000.0001)  ploadbar=  1.01134359118947E+05
 cg2d: Sum(rhs),rhsMax =  -1.36292600451665E+02  1.00760738242346E+00
(PID.TID 0000.0001)  ploadbar=  1.01134949501690E+05
 cg2d: Sum(rhs),rhsMax =  -1.36152074651866E+02  1.00892304982409E+00
(PID.TID 0000.0001)  ploadbar=  1.01135539884433E+05
 cg2d: Sum(rhs),rhsMax =  -1.35898164215288E+02  1.01107531234313E+00
(PID.TID 0000.0001)  ploadbar=  1.01135289585549E+05
 cg2d: Sum(rhs),rhsMax =  -1.35622400437894E+02  1.01339047302631E+00
(PID.TID 0000.0001)  ploadbar=  1.01135039286664E+05
 cg2d: Sum(rhs),rhsMax =  -1.35328760962635E+02  1.01583877950279E+00
(PID.TID 0000.0001)  ploadbar=  1.01134788987779E+05
 cg2d: Sum(rhs),rhsMax =  -1.35056137092953E+02  1.01812736076694E+00
(PID.TID 0000.0001)  ploadbar=  1.01134538688895E+05
 cg2d: Sum(rhs),rhsMax =  -1.34822238110732E+02  1.02011742814645E+00
(PID.TID 0000.0001)  ploadbar=  1.01134288390010E+05
 cg2d: Sum(rhs),rhsMax =  -1.34666920591013E+02  1.02150147721218E+00
(PID.TID 0000.0001)  ploadbar=  1.01134038091126E+05
 cg2d: Sum(rhs),rhsMax =  -1.34508355808637E+02  1.02290123347308E+00
(PID.TID 0000.0001)  ploadbar=  1.01133742719410E+05
 cg2d: Sum(rhs),rhsMax =  -1.34475132308239E+02  1.02333529154754E+00
(PID.TID 0000.0001)  ploadbar=  1.01133447347695E+05
 cg2d: Sum(rhs),rhsMax =  -1.34464991988381E+02  1.02357835448987E+00
(PID.TID 0000.0001)  ploadbar=  1.01133151975980E+05
 cg2d: Sum(rhs),rhsMax =  -1.34329966669779E+02  1.02475636413233E+00
(PID.TID 0000.0001)  ploadbar=  1.01132856604265E+05
 cg2d: Sum(rhs),rhsMax =  -1.34179880165509E+02  1.02603302699694E+00
(PID.TID 0000.0001)  ploadbar=  1.01132561232550E+05
 cg2d: Sum(rhs),rhsMax =  -1.34219118639908E+02  1.02584308662481E+00
(PID.TID 0000.0001)  ploadbar=  1.01132265860835E+05
 cg2d: Sum(rhs),rhsMax =  -1.34397017793434E+02  1.02462137195137E+00
(PID.TID 0000.0001)  ploadbar=  1.01132363408163E+05
 cg2d: Sum(rhs),rhsMax =  -1.34691963900514E+02  1.02253806963340E+00
(PID.TID 0000.0001)  ploadbar=  1.01132460955491E+05
 cg2d: Sum(rhs),rhsMax =  -1.35144767054627E+02  1.01929477193049E+00
(PID.TID 0000.0001)  ploadbar=  1.01132558502819E+05
 cg2d: Sum(rhs),rhsMax =  -1.34970225083993E+02  1.02081822164394E+00
(PID.TID 0000.0001)  ploadbar=  1.01132656050146E+05
 cg2d: Sum(rhs),rhsMax =  -1.33785936609949E+02  1.03008264120604E+00
(PID.TID 0000.0001)  ploadbar=  1.01132753597474E+05
 cg2d: Sum(rhs),rhsMax =  -1.32514173710515E+02  1.04021669834091E+00
(PID.TID 0000.0001)  ploadbar=  1.01132851144802E+05
 cg2d: Sum(rhs),rhsMax =  -1.31430423158150E+02  1.04905150893239E+00
(PID.TID 0000.0001)  ploadbar=  1.01132299186599E+05
 cg2d: Sum(rhs),rhsMax =  -1.30388280045878E+02  1.05770159931880E+00
(PID.TID 0000.0001)  ploadbar=  1.01131747228395E+05
 cg2d: Sum(rhs),rhsMax =  -1.29397798454563E+02  1.06607052860012E+00
(PID.TID 0000.0001)  ploadbar=  1.01131195270192E+05
 cg2d: Sum(rhs),rhsMax =  -1.28525098544792E+02  1.07358726140555E+00
(PID.TID 0000.0001)  ploadbar=  1.01130643311989E+05
 cg2d: Sum(rhs),rhsMax =  -1.27834236718856E+02  1.07967114341812E+00
(PID.TID 0000.0001)  ploadbar=  1.01130091353785E+05
 cg2d: Sum(rhs),rhsMax =  -1.27472370771260E+02  1.08302016598861E+00
(PID.TID 0000.0001)  ploadbar=  1.01129539395582E+05
 cg2d: Sum(rhs),rhsMax =  -1.27339304890051E+02  1.08443199598737E+00
(PID.TID 0000.0001)  ploadbar=  1.01129536080050E+05
 cg2d: Sum(rhs),rhsMax =  -1.27355312816725E+02  1.08457021470023E+00
(PID.TID 0000.0001)  ploadbar=  1.01129532764519E+05
 cg2d: Sum(rhs),rhsMax =  -1.27438338508970E+02  1.08413185767259E+00
(PID.TID 0000.0001)  ploadbar=  1.01129529448987E+05
 cg2d: Sum(rhs),rhsMax =  -1.27483664759088E+02  1.08400644748271E+00
(PID.TID 0000.0001)  ploadbar=  1.01129526133456E+05
 cg2d: Sum(rhs),rhsMax =  -1.27489037964670E+02  1.08421223337825E+00
(PID.TID 0000.0001)  ploadbar=  1.01129522817924E+05
 cg2d: Sum(rhs),rhsMax =  -1.27639451407285E+02  1.08317572151510E+00
(PID.TID 0000.0001)  ploadbar=  1.01129519502393E+05
 cg2d: Sum(rhs),rhsMax =  -1.27976298186651E+02  1.08054823763145E+00
(PID.TID 0000.0001)  ploadbar=  1.01129214570220E+05
 cg2d: Sum(rhs),rhsMax =  -1.28501299325458E+02  1.07634001706223E+00
(PID.TID 0000.0001)  ploadbar=  1.01128909638047E+05
 cg2d: Sum(rhs),rhsMax =  -1.29121656287720E+02  1.07135761070989E+00
(PID.TID 0000.0001)  ploadbar=  1.01128604705875E+05
 cg2d: Sum(rhs),rhsMax =  -1.28976705088681E+02  1.07273279485878E+00
(PID.TID 0000.0001)  ploadbar=  1.01128299773702E+05
 cg2d: Sum(rhs),rhsMax =  -1.27811505393546E+02  1.08266641113860E+00
(PID.TID 0000.0001)  ploadbar=  1.01127994841529E+05
 cg2d: Sum(rhs),rhsMax =  -1.26693017239249E+02  1.09236035082987E+00
(PID.TID 0000.0001)  ploadbar=  1.01127689909357E+05
 cg2d: Sum(rhs),rhsMax =  -1.25692718672872E+02  1.10122775720565E+00
(PID.TID 0000.0001)  ploadbar=  1.01127765027032E+05
 cg2d: Sum(rhs),rhsMax =  -1.24983058880476E+02  1.10769008152252E+00
(PID.TID 0000.0001)  ploadbar=  1.01127840144708E+05
 cg2d: Sum(rhs),rhsMax =  -1.24556331849392E+02  1.11172870450429E+00
(PID.TID 0000.0001)  ploadbar=  1.01127915262383E+05
 cg2d: Sum(rhs),rhsMax =  -1.24071726418186E+02  1.11634788821682E+00
(PID.TID 0000.0001)  ploadbar=  1.01127990380058E+05
 cg2d: Sum(rhs),rhsMax =  -1.23256953429608E+02  1.12403541970759E+00
(PID.TID 0000.0001)  ploadbar=  1.01128065497734E+05
 cg2d: Sum(rhs),rhsMax =  -1.22125155963382E+02  1.13478886151167E+00
(PID.TID 0000.0001)  ploadbar=  1.01128140615409E+05
 cg2d: Sum(rhs),rhsMax =  -1.21082800308209E+02  1.14490543486236E+00
(PID.TID 0000.0001)  ploadbar=  1.01128133101405E+05
 cg2d: Sum(rhs),rhsMax =  -1.20174370290816E+02  1.15391791009780E+00
(PID.TID 0000.0001)  ploadbar=  1.01128125587401E+05
 cg2d: Sum(rhs),rhsMax =  -1.19557978922889E+02  1.16023199894409E+00
(PID.TID 0000.0001)  ploadbar=  1.01128118073396E+05
 cg2d: Sum(rhs),rhsMax =  -1.19160847643456E+02  1.16446836100436E+00
(PID.TID 0000.0001)  ploadbar=  1.01128110559392E+05
 cg2d: Sum(rhs),rhsMax =  -1.18800177658712E+02  1.16837539623808E+00
(PID.TID 0000.0001)  ploadbar=  1.01128103045388E+05
 cg2d: Sum(rhs),rhsMax =  -1.18319938172509E+02  1.17348973283216E+00
(PID.TID 0000.0001)  ploadbar=  1.01128095531383E+05
 cg2d: Sum(rhs),rhsMax =  -1.17791020802904E+02  1.17912689632961E+00
(PID.TID 0000.0001)  ploadbar=  1.01128168838529E+05
 cg2d: Sum(rhs),rhsMax =  -1.17261886754873E+02  1.18481136919270E+00
(PID.TID 0000.0001)  ploadbar=  1.01128242145676E+05
 cg2d: Sum(rhs),rhsMax =  -1.16850438945476E+02  1.18934159865850E+00
(PID.TID 0000.0001)  ploadbar=  1.01128315452822E+05
 cg2d: Sum(rhs),rhsMax =  -1.16536659602643E+02  1.19289476561737E+00
(PID.TID 0000.0001)  ploadbar=  1.01128388759968E+05
 cg2d: Sum(rhs),rhsMax =  -1.16301637171625E+02  1.19564612631164E+00
(PID.TID 0000.0001)  ploadbar=  1.01128462067114E+05
 cg2d: Sum(rhs),rhsMax =  -1.16139022206514E+02  1.19764912783632E+00
(PID.TID 0000.0001)  ploadbar=  1.01128535374261E+05
 cg2d: Sum(rhs),rhsMax =  -1.16077650740732E+02  1.19858882672367E+00
(PID.TID 0000.0001)  ploadbar=  1.01128297275685E+05
 cg2d: Sum(rhs),rhsMax =  -1.16088498461064E+02  1.19876030659288E+00
(PID.TID 0000.0001)  ploadbar=  1.01128059177110E+05
 cg2d: Sum(rhs),rhsMax =  -1.16101559638172E+02  1.19888456031030E+00
(PID.TID 0000.0001)  ploadbar=  1.01127821078534E+05
 cg2d: Sum(rhs),rhsMax =  -1.16129720749415E+02  1.19883003270349E+00
(PID.TID 0000.0001)  ploadbar=  1.01127582979958E+05
 cg2d: Sum(rhs),rhsMax =  -1.16186946033624E+02  1.19845267028868E+00
(PID.TID 0000.0001)  ploadbar=  1.01127344881383E+05
 cg2d: Sum(rhs),rhsMax =  -1.16266408457193E+02  1.19782030639025E+00
(PID.TID 0000.0001)  ploadbar=  1.01127106782807E+05
 cg2d: Sum(rhs),rhsMax =  -1.16364960281718E+02  1.19701343859357E+00
(PID.TID 0000.0001)  ploadbar=  1.01126666124598E+05
 cg2d: Sum(rhs),rhsMax =  -1.16514234774873E+02  1.19570708379517E+00
(PID.TID 0000.0001)  ploadbar=  1.01126225466388E+05
 cg2d: Sum(rhs),rhsMax =  -1.16697157211500E+02  1.19407925004813E+00
(PID.TID 0000.0001)  ploadbar=  1.01125784808178E+05
 cg2d: Sum(rhs),rhsMax =  -1.16915857929984E+02  1.19211252646774E+00
(PID.TID 0000.0001)  ploadbar=  1.01125344149969E+05
 cg2d: Sum(rhs),rhsMax =  -1.17158671409234E+02  1.18992787488015E+00
(PID.TID 0000.0001)  ploadbar=  1.01124903491759E+05
 cg2d: Sum(rhs),rhsMax =  -1.17426317733601E+02  1.18751995697602E+00
(PID.TID 0000.0001)  ploadbar=  1.01124462833550E+05
 cg2d: Sum(rhs),rhsMax =  -1.17682901288535E+02  1.18523077251283E+00
(PID.TID 0000.0001)  ploadbar=  1.01123684668826E+05
 cg2d: Sum(rhs),rhsMax =  -1.17951209247757E+02  1.18282809507772E+00
(PID.TID 0000.0001)  ploadbar=  1.01122906504103E+05
 cg2d: Sum(rhs),rhsMax =  -1.18239499107048E+02  1.18023013337334E+00
(PID.TID 0000.0001)  ploadbar=  1.01122128339380E+05
 cg2d: Sum(rhs),rhsMax =  -1.18526286241035E+02  1.17765284886408E+00
(PID.TID 0000.0001)  ploadbar=  1.01121350174657E+05
 cg2d: Sum(rhs),rhsMax =  -1.18802762749948E+02  1.17518286271662E+00
(PID.TID 0000.0001)  ploadbar=  1.01120572009934E+05
 cg2d: Sum(rhs),rhsMax =  -1.19057191247364E+02  1.17293366002837E+00
(PID.TID 0000.0001)  ploadbar=  1.01119793845210E+05
 cg2d: Sum(rhs),rhsMax =  -1.19380325012517E+02  1.17002730377322E+00
(PID.TID 0000.0001)  ploadbar=  1.01119781424811E+05
 cg2d: Sum(rhs),rhsMax =  -1.19715269530374E+02  1.16702607391552E+00
(PID.TID 0000.0001)  ploadbar=  1.01119769004412E+05
 cg2d: Sum(rhs),rhsMax =  -1.20032164661802E+02  1.16422164928660E+00
(PID.TID 0000.0001)  ploadbar=  1.01119756584013E+05
 cg2d: Sum(rhs),rhsMax =  -1.20345734147376E+02  1.16146861703726E+00
(PID.TID 0000.0001)  ploadbar=  1.01119744163613E+05
 cg2d: Sum(rhs),rhsMax =  -1.20662343177900E+02  1.15870481342381E+00
(PID.TID 0000.0001)  ploadbar=  1.01119731743214E+05
 cg2d: Sum(rhs),rhsMax =  -1.20983598669864E+02  1.15591417310408E+00
(PID.TID 0000.0001)  ploadbar=  1.01119719322815E+05
 cg2d: Sum(rhs),rhsMax =  -1.21241507221570E+02  1.15371332719130E+00
(PID.TID 0000.0001)  ploadbar=  1.01118162186424E+05
 cg2d: Sum(rhs),rhsMax =  -1.21530569469248E+02  1.15119847823798E+00
(PID.TID 0000.0001)  ploadbar=  1.01116605050032E+05
 cg2d: Sum(rhs),rhsMax =  -1.21828659326648E+02  1.14858253943654E+00
(PID.TID 0000.0001)  ploadbar=  1.01115047913641E+05
 cg2d: Sum(rhs),rhsMax =  -1.22148230575070E+02  1.14574946866434E+00
(PID.TID 0000.0001)  ploadbar=  1.01113490777249E+05
 cg2d: Sum(rhs),rhsMax =  -1.22501939570137E+02  1.14258444887141E+00
(PID.TID 0000.0001)  ploadbar=  1.01111933640858E+05
 cg2d: Sum(rhs),rhsMax =  -1.22878947268324E+02  1.13919305494823E+00
(PID.TID 0000.0001)  ploadbar=  1.01110376504466E+05
 cg2d: Sum(rhs),rhsMax =  -1.23256735284711E+02  1.13583925030100E+00
(PID.TID 0000.0001)  ploadbar=  1.01109610311183E+05
 cg2d: Sum(rhs),rhsMax =  -1.23676581023272E+02  1.13214388468938E+00
(PID.TID 0000.0001)  ploadbar=  1.01108844117899E+05
 cg2d: Sum(rhs),rhsMax =  -1.24132084756982E+02  1.12817223694127E+00
(PID.TID 0000.0001)  ploadbar=  1.01108077924615E+05
 cg2d: Sum(rhs),rhsMax =  -1.24606107754537E+02  1.12408484437025E+00
(PID.TID 0000.0001)  ploadbar=  1.01107311731331E+05
 cg2d: Sum(rhs),rhsMax =  -1.25098786266667E+02  1.11988420113608E+00
(PID.TID 0000.0001)  ploadbar=  1.01106545538047E+05
 cg2d: Sum(rhs),rhsMax =  -1.25628020247889E+02  1.11541374937801E+00
(PID.TID 0000.0001)  ploadbar=  1.01105779344763E+05
 cg2d: Sum(rhs),rhsMax =  -1.26000768005115E+02  1.11237452916037E+00
(PID.TID 0000.0001)  ploadbar=  1.01105302846080E+05
 cg2d: Sum(rhs),rhsMax =  -1.26391768678950E+02  1.10920542386714E+00
(PID.TID 0000.0001)  ploadbar=  1.01104826347396E+05
 cg2d: Sum(rhs),rhsMax =  -1.26805902395003E+02  1.10586486574409E+00
(PID.TID 0000.0001)  ploadbar=  1.01104349848713E+05
 cg2d: Sum(rhs),rhsMax =  -1.27200791001784E+02  1.10272240450632E+00
(PID.TID 0000.0001)  ploadbar=  1.01103873350030E+05
 cg2d: Sum(rhs),rhsMax =  -1.27562023105400E+02  1.09989813647127E+00
(PID.TID 0000.0001)  ploadbar=  1.01103396851347E+05
 cg2d: Sum(rhs),rhsMax =  -1.27881225750869E+02  1.09746000716421E+00
(PID.TID 0000.0001)  ploadbar=  1.01102920352664E+05
 cg2d: Sum(rhs),rhsMax =  -1.28145552082025E+02  1.09549750135506E+00
(PID.TID 0000.0001)  ploadbar=  1.01102096366065E+05
 cg2d: Sum(rhs),rhsMax =  -1.28315135391302E+02  1.09434532861058E+00
(PID.TID 0000.0001)  ploadbar=  1.01101272379466E+05
 cg2d: Sum(rhs),rhsMax =  -1.28470645933625E+02  1.09331151060880E+00
(PID.TID 0000.0001)  ploadbar=  1.01100448392866E+05
 cg2d: Sum(rhs),rhsMax =  -1.28615089226987E+02  1.09236889245723E+00
(PID.TID 0000.0001)  ploadbar=  1.01099624406267E+05
 cg2d: Sum(rhs),rhsMax =  -1.28753515793800E+02  1.09147355912318E+00
(PID.TID 0000.0001)  ploadbar=  1.01098800419668E+05
 cg2d: Sum(rhs),rhsMax =  -1.28894667951521E+02  1.09054963275206E+00
(PID.TID 0000.0001)  ploadbar=  1.01097976433069E+05
 cg2d: Sum(rhs),rhsMax =  -1.29085217085107E+02  1.08920088112977E+00
(PID.TID 0000.0001)  ploadbar=  1.01097804362096E+05
 cg2d: Sum(rhs),rhsMax =  -1.29233870014515E+02  1.08819968371007E+00
(PID.TID 0000.0001)  ploadbar=  1.01097632291123E+05
 cg2d: Sum(rhs),rhsMax =  -1.29343824555934E+02  1.08751637608966E+00
(PID.TID 0000.0001)  ploadbar=  1.01097460220150E+05
 cg2d: Sum(rhs),rhsMax =  -1.29428533675739E+02  1.08703666074041E+00
(PID.TID 0000.0001)  ploadbar=  1.01097288149177E+05
 cg2d: Sum(rhs),rhsMax =  -1.29480726308662E+02  1.08681969248607E+00
(PID.TID 0000.0001)  ploadbar=  1.01097116078204E+05
 cg2d: Sum(rhs),rhsMax =  -1.29507196103968E+02  1.08680767646044E+00
(PID.TID 0000.0001)  ploadbar=  1.01096944007231E+05
 cg2d: Sum(rhs),rhsMax =  -1.29551341880738E+02  1.08667775816383E+00
(PID.TID 0000.0001)  ploadbar=  1.01098075457411E+05
 cg2d: Sum(rhs),rhsMax =  -1.29593096412944E+02  1.08659617202423E+00
(PID.TID 0000.0001)  ploadbar=  1.01099206907591E+05
 cg2d: Sum(rhs),rhsMax =  -1.29659340565362E+02  1.08633711950355E+00
(PID.TID 0000.0001)  ploadbar=  1.01100338357771E+05
 cg2d: Sum(rhs),rhsMax =  -1.29766208755853E+02  1.08576496679348E+00
(PID.TID 0000.0001)  ploadbar=  1.01101469807951E+05
 cg2d: Sum(rhs),rhsMax =  -1.29908124407905E+02  1.08492694653307E+00
(PID.TID 0000.0001)  ploadbar=  1.01102601258130E+05
 cg2d: Sum(rhs),rhsMax =  -1.30088662025449E+02  1.08379468061138E+00
(PID.TID 0000.0001)  ploadbar=  1.01103732708310E+05
 cg2d: Sum(rhs),rhsMax =  -1.30366578257227E+02  1.08185581692385E+00
(PID.TID 0000.0001)  ploadbar=  1.01104333407014E+05
 cg2d: Sum(rhs),rhsMax =  -1.30633130833105E+02  1.08001634036279E+00
(PID.TID 0000.0001)  ploadbar=  1.01104934105718E+05
 cg2d: Sum(rhs),rhsMax =  -1.30883083520679E+02  1.07831848326207E+00
(PID.TID 0000.0001)  ploadbar=  1.01105534804422E+05
 cg2d: Sum(rhs),rhsMax =  -1.31112190236469E+02  1.07679591120651E+00
(PID.TID 0000.0001)  ploadbar=  1.01106135503125E+05
 cg2d: Sum(rhs),rhsMax =  -1.31321148413096E+02  1.07544024290904E+00
(PID.TID 0000.0001)  ploadbar=  1.01106736201829E+05
 cg2d: Sum(rhs),rhsMax =  -1.31514424904744E+02  1.07421265145092E+00
(PID.TID 0000.0001)  ploadbar=  1.01107336900533E+05
 cg2d: Sum(rhs),rhsMax =  -1.31792235245773E+02  1.07228915292422E+00
(PID.TID 0000.0001)  ploadbar=  1.01107689395959E+05
 cg2d: Sum(rhs),rhsMax =  -1.32085640488990E+02  1.07023545459416E+00
(PID.TID 0000.0001)  ploadbar=  1.01108041891385E+05
 cg2d: Sum(rhs),rhsMax =  -1.32352599841729E+02  1.06839246554491E+00
(PID.TID 0000.0001)  ploadbar=  1.01108394386810E+05
 cg2d: Sum(rhs),rhsMax =  -1.32600687298025E+02  1.06669640736504E+00
(PID.TID 0000.0001)  ploadbar=  1.01108746882236E+05
 cg2d: Sum(rhs),rhsMax =  -1.32855594417349E+02  1.06493858562186E+00
(PID.TID 0000.0001)  ploadbar=  1.01109099377662E+05
 cg2d: Sum(rhs),rhsMax =  -1.33117808371353E+02  1.06311445945457E+00
(PID.TID 0000.0001)  ploadbar=  1.01109451873087E+05
 cg2d: Sum(rhs),rhsMax =  -1.33343849245402E+02  1.06157377746434E+00
(PID.TID 0000.0001)  ploadbar=  1.01110313077524E+05
 cg2d: Sum(rhs),rhsMax =  -1.33606248640527E+02  1.05973697604762E+00
(PID.TID 0000.0001)  ploadbar=  1.01111174281961E+05
 cg2d: Sum(rhs),rhsMax =  -1.33851100477120E+02  1.05803357701115E+00
(PID.TID 0000.0001)  ploadbar=  1.01112035486398E+05
 cg2d: Sum(rhs),rhsMax =  -1.34085273999348E+02  1.05640745178884E+00
(PID.TID 0000.0001)  ploadbar=  1.01112896690835E+05
 cg2d: Sum(rhs),rhsMax =  -1.34326760088419E+02  1.05471402815114E+00
(PID.TID 0000.0001)  ploadbar=  1.01113757895271E+05
 cg2d: Sum(rhs),rhsMax =  -1.34561400232872E+02  1.05306224299039E+00
(PID.TID 0000.0001)  ploadbar=  1.01114619099708E+05
 cg2d: Sum(rhs),rhsMax =  -1.34732521073545E+02  1.05192917305498E+00
(PID.TID 0000.0001)  ploadbar=  1.01114739719212E+05
 cg2d: Sum(rhs),rhsMax =  -1.34925340203468E+02  1.05064692367946E+00
(PID.TID 0000.0001)  ploadbar=  1.01114860338716E+05
 cg2d: Sum(rhs),rhsMax =  -1.34782755024084E+02  1.05199441612376E+00
(PID.TID 0000.0001)  ploadbar=  1.01114980958220E+05
 cg2d: Sum(rhs),rhsMax =  -1.34406349706036E+02  1.05519104967803E+00
(PID.TID 0000.0001)  ploadbar=  1.01115101577724E+05
 cg2d: Sum(rhs),rhsMax =  -1.34048771973483E+02  1.05826999060129E+00
(PID.TID 0000.0001)  ploadbar=  1.01115222197228E+05
 cg2d: Sum(rhs),rhsMax =  -1.33724217464831E+02  1.06111711624839E+00
(PID.TID 0000.0001)  ploadbar=  1.01115342816732E+05
 cg2d: Sum(rhs),rhsMax =  -1.33398191690337E+02  1.06398152754543E+00
(PID.TID 0000.0001)  ploadbar=  1.01116861453399E+05
 cg2d: Sum(rhs),rhsMax =  -1.33063783648461E+02  1.06691635777851E+00
(PID.TID 0000.0001)  ploadbar=  1.01118380090065E+05
 cg2d: Sum(rhs),rhsMax =  -1.32700880934870E+02  1.07008330754615E+00
(PID.TID 0000.0001)  ploadbar=  1.01119898726732E+05
 cg2d: Sum(rhs),rhsMax =  -1.32323036380608E+02  1.07337518547928E+00
(PID.TID 0000.0001)  ploadbar=  1.01121417363398E+05
 cg2d: Sum(rhs),rhsMax =  -1.31952737178152E+02  1.07660806640288E+00
(PID.TID 0000.0001)  ploadbar=  1.01122936000064E+05
 cg2d: Sum(rhs),rhsMax =  -1.31592374787223E+02  1.07975913899632E+00
(PID.TID 0000.0001)  ploadbar=  1.01124454636731E+05
 cg2d: Sum(rhs),rhsMax =  -1.31183991776684E+02  1.08333227656420E+00
(PID.TID 0000.0001)  ploadbar=  1.01124965374833E+05
 cg2d: Sum(rhs),rhsMax =  -1.30740366626404E+02  1.08722568540462E+00
(PID.TID 0000.0001)  ploadbar=  1.01125476112934E+05
 cg2d: Sum(rhs),rhsMax =  -1.29665876211853E+02  1.09645918476662E+00
(PID.TID 0000.0001)  ploadbar=  1.01125986851036E+05
 cg2d: Sum(rhs),rhsMax =  -1.24229263038203E+02  1.14468137874570E+00
(PID.TID 0000.0001)  ploadbar=  1.01126497589138E+05
 cg2d: Sum(rhs),rhsMax =  -1.19021391856836E+02  1.19502044712885E+00
(PID.TID 0000.0001)  ploadbar=  1.01127008327240E+05
 cg2d: Sum(rhs),rhsMax =  -1.13843465770331E+02  1.24963871383805E+00
(PID.TID 0000.0001)  ploadbar=  1.01127519065342E+05
 cg2d: Sum(rhs),rhsMax =  -1.09392832159403E+02  1.30074083260213E+00
(PID.TID 0000.0001)  ploadbar=  1.01128300688594E+05
 cg2d: Sum(rhs),rhsMax =  -1.05754012403863E+02  1.34574874869587E+00
(PID.TID 0000.0001)  ploadbar=  1.01129082311846E+05
 cg2d: Sum(rhs),rhsMax =  -1.02953827432618E+02  1.38258977138711E+00
(PID.TID 0000.0001)  ploadbar=  1.01129863935098E+05
 cg2d: Sum(rhs),rhsMax =  -1.00935162854919E+02  1.41046406696914E+00
(PID.TID 0000.0001)  ploadbar=  1.01130645558349E+05
 cg2d: Sum(rhs),rhsMax =  -9.95951920147896E+01  1.42964345243916E+00
(PID.TID 0000.0001)  ploadbar=  1.01131427181601E+05
 cg2d: Sum(rhs),rhsMax =  -9.88247526268240E+01  1.44096865846979E+00
(PID.TID 0000.0001)  ploadbar=  1.01132208804853E+05
 cg2d: Sum(rhs),rhsMax =  -9.84281617984001E+01  1.44699318141614E+00
(PID.TID 0000.0001)  ploadbar=  1.01132182170362E+05
 cg2d: Sum(rhs),rhsMax =  -9.81994801150452E+01  1.45061837298151E+00
(PID.TID 0000.0001)  ploadbar=  1.01132155535871E+05
 cg2d: Sum(rhs),rhsMax =  -9.80758252875230E+01  1.45273781482292E+00
(PID.TID 0000.0001)  ploadbar=  1.01132128901380E+05
 cg2d: Sum(rhs),rhsMax =  -9.80855265549022E+01  1.45291804531511E+00
(PID.TID 0000.0001)  ploadbar=  1.01132102266889E+05
 cg2d: Sum(rhs),rhsMax =  -9.82672691350211E+01  1.45058854993053E+00
(PID.TID 0000.0001)  ploadbar=  1.01132075632398E+05
 cg2d: Sum(rhs),rhsMax =  -9.86274228867108E+01  1.44568287005398E+00
(PID.TID 0000.0001)  ploadbar=  1.01132048997907E+05
 cg2d: Sum(rhs),rhsMax =  -9.88546934997693E+01  1.44275416364071E+00
(PID.TID 0000.0001)  ploadbar=  1.01131997698612E+05
 cg2d: Sum(rhs),rhsMax =  -9.90161951049160E+01  1.44080062790415E+00
(PID.TID 0000.0001)      cg2d_init_res =   2.65888377726119E-01
(PID.TID 0000.0001)      cg2d_iters(min,last) =      -1     141
(PID.TID 0000.0001)      cg2d_last_res =   9.97927137032897E-08
(PID.TID 0000.0001) // =======================================================
(PID.TID 0000.0001) // Begin MONITOR dynamic field statistics
(PID.TID 0000.0001) // =======================================================
(PID.TID 0000.0001) %MON time_tsnumber                =                  5256
(PID.TID 0000.0001) %MON time_secondsf                =   1.8921600000000E+07
(PID.TID 0000.0001) %MON dynstat_eta_max              =   1.2822684899482E+00
(PID.TID 0000.0001) %MON dynstat_eta_min              =  -5.1005404994368E+00
(PID.TID 0000.0001) %MON dynstat_eta_mean             =   7.2205976769688E-02
(PID.TID 0000.0001) %MON dynstat_eta_sd               =   7.0449933595981E-01
(PID.TID 0000.0001) %MON dynstat_eta_del2             =   2.3208217483218E-04
(PID.TID 0000.0001) %MON dynstat_uvel_max             =   1.1075863992217E+00
(PID.TID 0000.0001) %MON dynstat_uvel_min             =  -6.3813886863948E-01
(PID.TID 0000.0001) %MON dynstat_uvel_mean            =   1.4410672981092E-03
(PID.TID 0000.0001) %MON dynstat_uvel_sd              =   2.0220097830652E-02
(PID.TID 0000.0001) %MON dynstat_uvel_del2            =   9.0827272009945E-06
(PID.TID 0000.0001) %MON dynstat_vvel_max             =   1.0943676243559E+00
(PID.TID 0000.0001) %MON dynstat_vvel_min             =  -1.0664337019224E+00
(PID.TID 0000.0001) %MON dynstat_vvel_mean            =   1.2379750513197E-03
(PID.TID 0000.0001) %MON dynstat_vvel_sd              =   2.2220508897578E-02
(PID.TID 0000.0001) %MON dynstat_vvel_del2            =   9.5845920479800E-06
(PID.TID 0000.0001) %MON dynstat_wvel_max             =   3.6070669134937E-04
(PID.TID 0000.0001) %MON dynstat_wvel_min             =  -8.4292345161785E-04
(PID.TID 0000.0001) %MON dynstat_wvel_mean            =   3.1580902348316E-09
(PID.TID 0000.0001) %MON dynstat_wvel_sd              =   2.2424879048105E-05
(PID.TID 0000.0001) %MON dynstat_wvel_del2            =   1.5665671821494E-08
(PID.TID 0000.0001) %MON dynstat_theta_max            =   3.3562229178375E+01
(PID.TID 0000.0001) %MON dynstat_theta_min            =  -2.1637982642873E+00
(PID.TID 0000.0001) %MON dynstat_theta_mean           =   3.5774351244947E+00
(PID.TID 0000.0001) %MON dynstat_theta_sd             =   4.4206569097764E+00
(PID.TID 0000.0001) %MON dynstat_theta_del2           =   9.5397974932463E-05
(PID.TID 0000.0001) %MON dynstat_salt_max             =   4.0641657116637E+01
(PID.TID 0000.0001) %MON dynstat_salt_min             =   2.0085632633520E+01
(PID.TID 0000.0001) %MON dynstat_salt_mean            =   3.4726983956776E+01
(PID.TID 0000.0001) %MON dynstat_salt_sd              =   3.8002908490140E-01
(PID.TID 0000.0001) %MON dynstat_salt_del2            =   2.0049594796998E-05
(PID.TID 0000.0001) %MON dynstat_sst_max              =   3.3562229178375E+01
(PID.TID 0000.0001) %MON dynstat_sst_min              =  -1.9602452235613E+00
(PID.TID 0000.0001) %MON dynstat_sst_mean             =   1.8153467601437E+01
(PID.TID 0000.0001) %MON dynstat_sst_sd               =   1.0168797661726E+01
(PID.TID 0000.0001) %MON dynstat_sst_del2             =   6.8579318012153E-04
(PID.TID 0000.0001) %MON dynstat_sss_max              =   3.9675936434414E+01
(PID.TID 0000.0001) %MON dynstat_sss_min              =   2.0085632633520E+01
(PID.TID 0000.0001) %MON dynstat_sss_mean             =   3.4693094071310E+01
(PID.TID 0000.0001) %MON dynstat_sss_sd               =   1.3280615637174E+00
(PID.TID 0000.0001) %MON dynstat_sss_del2             =   3.3367566279050E-04
(PID.TID 0000.0001) %MON forcing_qnet_max             =   6.7573479199694E+02
(PID.TID 0000.0001) %MON forcing_qnet_min             =  -5.6922140565771E+02
(PID.TID 0000.0001) %MON forcing_qnet_mean            =   4.4388802893920E+01
(PID.TID 0000.0001) %MON forcing_qnet_sd              =   1.5533376556141E+02
(PID.TID 0000.0001) %MON forcing_qnet_del2            =   9.9805475535365E-02
(PID.TID 0000.0001) %MON forcing_qsw_max              =   4.8571008715674E+01
(PID.TID 0000.0001) %MON forcing_qsw_min              =  -6.7510702867674E+02
(PID.TID 0000.0001) %MON forcing_qsw_mean             =  -1.1979392906429E+02
(PID.TID 0000.0001) %MON forcing_qsw_sd               =   1.4259829227110E+02
(PID.TID 0000.0001) %MON forcing_qsw_del2             =   4.3534780921533E-02
(PID.TID 0000.0001) %MON forcing_empmr_max            =   1.8403373338737E-03
(PID.TID 0000.0001) %MON forcing_empmr_min            =  -1.9621897005593E-03
(PID.TID 0000.0001) %MON forcing_empmr_mean           =  -5.7253445097519E-06
(PID.TID 0000.0001) %MON forcing_empmr_sd             =   1.0442610572569E-04
(PID.TID 0000.0001) %MON forcing_empmr_del2           =   3.0282112446340E-07
(PID.TID 0000.0001) %MON forcing_fu_max               =   1.0505705887369E+00
(PID.TID 0000.0001) %MON forcing_fu_min               =  -1.3288838041979E+00
(PID.TID 0000.0001) %MON forcing_fu_mean              =   1.7627949544343E-02
(PID.TID 0000.0001) %MON forcing_fu_sd                =   1.3915699366312E-01
(PID.TID 0000.0001) %MON forcing_fu_del2              =   7.5770177138471E-05
(PID.TID 0000.0001) %MON forcing_fv_max               =   6.5495472649733E-01
(PID.TID 0000.0001) %MON forcing_fv_min               =  -7.1993692715963E-01
(PID.TID 0000.0001) %MON forcing_fv_mean              =   1.0408288434685E-02
(PID.TID 0000.0001) %MON forcing_fv_sd                =   1.1614244141855E-01
(PID.TID 0000.0001) %MON forcing_fv_del2              =   6.6257848966930E-05
(PID.TID 0000.0001) %MON trAdv_CFL_u_max              =   6.2021697668267E-02
(PID.TID 0000.0001) %MON trAdv_CFL_v_max              =   8.0437545991025E-02
(PID.TID 0000.0001) %MON trAdv_CFL_w_max              =   1.0788055913257E-01
(PID.TID 0000.0001) %MON advcfl_uvel_max              =   5.5250273459868E-02
(PID.TID 0000.0001) %MON advcfl_vvel_max              =   8.5801825531675E-02
(PID.TID 0000.0001) %MON advcfl_wvel_max              =   1.0481158977713E-01
(PID.TID 0000.0001) %MON advcfl_W_hf_max              =   1.0801861803370E-01
(PID.TID 0000.0001) %MON pe_b_mean                    =   2.3642361156153E-03
(PID.TID 0000.0001) %MON ke_max                       =   9.3597213704496E-01
(PID.TID 0000.0001) %MON ke_mean                      =   4.3697428796451E-04
(PID.TID 0000.0001) %MON ke_vol                       =   1.3350237205087E+18
(PID.TID 0000.0001) %MON vort_r_min                   =  -2.9094363615913E-05
(PID.TID 0000.0001) %MON vort_r_max                   =   2.7969025431963E-05
(PID.TID 0000.0001) %MON vort_a_mean                  =  -1.9727725272414E-05
(PID.TID 0000.0001) %MON vort_a_sd                    =   7.4543019129814E-05
(PID.TID 0000.0001) %MON vort_p_mean                  =  -2.1759912910380E-05
(PID.TID 0000.0001) %MON vort_p_sd                    =   9.7242808205288E-05
(PID.TID 0000.0001) %MON surfExpan_theta_mean         =   1.2210474529935E-07
(PID.TID 0000.0001) %MON surfExpan_salt_mean          =   4.6829270728382E-08
(PID.TID 0000.0001) // =======================================================
(PID.TID 0000.0001) // End MONITOR dynamic field statistics
(PID.TID 0000.0001) // =======================================================
(PID.TID 0000.0001)  ploadbar=  1.01131946399317E+05
(PID.TID 0000.0001) %SBO sbo_mass                     =   1.3737590772466E+21
(PID.TID 0000.0001) %SBO sbo_mass_fw                  =   4.6261876089893E+16
(PID.TID 0000.0001) %SBO sbo_zoamc                    =   1.2470110406470E+25
(PID.TID 0000.0001) %SBO sbo_zoamp                    =   2.9276623166503E+30
(PID.TID 0000.0001) // =======================================================
(PID.TID 0000.0001) // Begin MONITOR SEAICE statistics
(PID.TID 0000.0001) // =======================================================
(PID.TID 0000.0001) %MON seaice_tsnumber              =                  5256
(PID.TID 0000.0001) %MON seaice_time_sec              =   1.8921600000000E+07
(PID.TID 0000.0001) %MON seaice_uice_max              =   4.0000000000000E-01
(PID.TID 0000.0001) %MON seaice_uice_min              =  -4.0000000000000E-01
(PID.TID 0000.0001) %MON seaice_uice_mean             =   1.1624896667587E-02
(PID.TID 0000.0001) %MON seaice_uice_sd               =   1.8546022191814E-01
(PID.TID 0000.0001) %MON seaice_uice_del2             =   1.4277284072298E-04
(PID.TID 0000.0001) %MON seaice_vice_max              =   4.0000000000000E-01
(PID.TID 0000.0001) %MON seaice_vice_min              =  -4.0000000000000E-01
(PID.TID 0000.0001) %MON seaice_vice_mean             =   4.2804103546317E-03
(PID.TID 0000.0001) %MON seaice_vice_sd               =   1.8831353006929E-01
(PID.TID 0000.0001) %MON seaice_vice_del2             =   1.4758261765696E-04
(PID.TID 0000.0001) %MON seaice_area_max              =   9.7000000000000E-01
(PID.TID 0000.0001) %MON seaice_area_min              =   0.0000000000000E+00
(PID.TID 0000.0001) %MON seaice_area_mean             =   6.1774181602819E-02
(PID.TID 0000.0001) %MON seaice_area_sd               =   2.2106379685419E-01
(PID.TID 0000.0001) %MON seaice_area_del2             =   1.9424467658560E-04
(PID.TID 0000.0001) %MON seaice_heff_max              =   4.7497950267224E+00
(PID.TID 0000.0001) %MON seaice_heff_min              =   0.0000000000000E+00
(PID.TID 0000.0001) %MON seaice_heff_mean             =   5.7484218777776E-02
(PID.TID 0000.0001) %MON seaice_heff_sd               =   2.6998935010782E-01
(PID.TID 0000.0001) %MON seaice_heff_del2             =   2.4528106352765E-04
(PID.TID 0000.0001) %MON seaice_hsnow_max             =   1.5169005386247E+00
(PID.TID 0000.0001) %MON seaice_hsnow_min             =  -6.4356180841624E-05
(PID.TID 0000.0001) %MON seaice_hsnow_mean            =   7.9015917597991E-03
(PID.TID 0000.0001) %MON seaice_hsnow_sd              =   4.4342983129430E-02
(PID.TID 0000.0001) %MON seaice_hsnow_del2            =   4.7431186223704E-05
(PID.TID 0000.0001) // =======================================================
(PID.TID 0000.0001) // End MONITOR SEAICE statistics
(PID.TID 0000.0001) // =======================================================
(PID.TID 0000.0001) // =======================================================
(PID.TID 0000.0001) // Begin MONITOR EXF statistics
(PID.TID 0000.0001) // =======================================================
(PID.TID 0000.0001) %MON exf_tsnumber                 =                  5256
(PID.TID 0000.0001) %MON exf_time_sec                 =   1.8921600000000E+07
(PID.TID 0000.0001) %MON exf_ustress_max              =   1.0319605171680E+00
(PID.TID 0000.0001) %MON exf_ustress_min              =  -2.7365112886986E+00
(PID.TID 0000.0001) %MON exf_ustress_mean             =   1.6951254638928E-02
(PID.TID 0000.0001) %MON exf_ustress_sd               =   1.4141458613852E-01
(PID.TID 0000.0001) %MON exf_ustress_del2             =   9.5632318855146E-05
(PID.TID 0000.0001) %MON exf_vstress_max              =   9.8055192322097E-01
(PID.TID 0000.0001) %MON exf_vstress_min              =  -7.5642028450966E-01
(PID.TID 0000.0001) %MON exf_vstress_mean             =   1.0716276380661E-02
(PID.TID 0000.0001) %MON exf_vstress_sd               =   1.1676662501779E-01
(PID.TID 0000.0001) %MON exf_vstress_del2             =   8.9841285683955E-05
(PID.TID 0000.0001) %MON exf_hflux_max                =   1.3888866039611E+03
(PID.TID 0000.0001) %MON exf_hflux_min                =  -5.4045871205914E+02
(PID.TID 0000.0001) %MON exf_hflux_mean               =   5.5162244519083E+01
(PID.TID 0000.0001) %MON exf_hflux_sd                 =   1.9173712880153E+02
(PID.TID 0000.0001) %MON exf_hflux_del2               =   5.2057577744621E-01
(PID.TID 0000.0001) %MON exf_sflux_max                =   1.8331899003857E-07
(PID.TID 0000.0001) %MON exf_sflux_min                =  -1.7385806455726E-06
(PID.TID 0000.0001) %MON exf_sflux_mean               =  -1.3744953235869E-09
(PID.TID 0000.0001) %MON exf_sflux_sd                 =   8.4184538377655E-08
(PID.TID 0000.0001) %MON exf_sflux_del2               =   2.3477503664662E-10
(PID.TID 0000.0001) %MON exf_wspeed_max               =   2.5240690231323E+01
(PID.TID 0000.0001) %MON exf_wspeed_min               =   4.1723468899727E-01
(PID.TID 0000.0001) %MON exf_wspeed_mean              =   7.3858445083069E+00
(PID.TID 0000.0001) %MON exf_wspeed_sd                =   3.4528558720404E+00
(PID.TID 0000.0001) %MON exf_wspeed_del2              =   1.7852083183700E-02
(PID.TID 0000.0001) %MON exf_atemp_max                =   3.0868459548950E+02
(PID.TID 0000.0001) %MON exf_atemp_min                =   2.0404054107666E+02
(PID.TID 0000.0001) %MON exf_atemp_mean               =   2.8943417945940E+02
(PID.TID 0000.0001) %MON exf_atemp_sd                 =   1.1800198632299E+01
(PID.TID 0000.0001) %MON exf_atemp_del2               =   3.6387405263929E-02
(PID.TID 0000.0001) %MON exf_aqh_max                  =   2.6844160631299E-02
(PID.TID 0000.0001) %MON exf_aqh_min                  =  -8.8349646830466E-05
(PID.TID 0000.0001) %MON exf_aqh_mean                 =   1.0956839730891E-02
(PID.TID 0000.0001) %MON exf_aqh_sd                   =   5.6255708972185E-03
(PID.TID 0000.0001) %MON exf_aqh_del2                 =   2.0634822780237E-05
(PID.TID 0000.0001) %MON exf_lwflux_max               =   2.6851439182145E+02
(PID.TID 0000.0001) %MON exf_lwflux_min               =  -5.2037547531647E+01
(PID.TID 0000.0001) %MON exf_lwflux_mean              =   4.4600358847968E+01
(PID.TID 0000.0001) %MON exf_lwflux_sd                =   2.6967803253721E+01
(PID.TID 0000.0001) %MON exf_lwflux_del2              =   1.2302527743599E-01
(PID.TID 0000.0001) %MON exf_evap_max                 =   1.9061944874219E-07
(PID.TID 0000.0001) %MON exf_evap_min                 =  -3.8133425261906E-08
(PID.TID 0000.0001) %MON exf_evap_mean                =   4.4079451176365E-08
(PID.TID 0000.0001) %MON exf_evap_sd                  =   2.9102194106782E-08
(PID.TID 0000.0001) %MON exf_evap_del2                =   9.7749339502121E-11
(PID.TID 0000.0001) %MON exf_precip_max               =   1.6365848694022E-06
(PID.TID 0000.0001) %MON exf_precip_min               =  -2.5055840957577E-08
(PID.TID 0000.0001) %MON exf_precip_mean              =   4.1368785095349E-08
(PID.TID 0000.0001) %MON exf_precip_sd                =   7.0131753952796E-08
(PID.TID 0000.0001) %MON exf_precip_del2              =   2.2110814135601E-10
(PID.TID 0000.0001) %MON exf_swflux_max               =   5.0799459075928E+01
(PID.TID 0000.0001) %MON exf_swflux_min               =  -5.8765573282653E+02
(PID.TID 0000.0001) %MON exf_swflux_mean              =  -1.2678102726158E+02
(PID.TID 0000.0001) %MON exf_swflux_sd                =   1.4517331930600E+02
(PID.TID 0000.0001) %MON exf_swflux_del2              =   3.4408261616568E-01
(PID.TID 0000.0001) %MON exf_swdown_max               =   6.3462234497070E+02
(PID.TID 0000.0001) %MON exf_swdown_min               =  -7.2570655822754E+01
(PID.TID 0000.0001) %MON exf_swdown_mean              =   1.3780403391997E+02
(PID.TID 0000.0001) %MON exf_swdown_sd                =   1.5697225883198E+02
(PID.TID 0000.0001) %MON exf_swdown_del2              =   3.7423040472699E-01
(PID.TID 0000.0001) %MON exf_lwdown_max               =   4.9949020385742E+02
(PID.TID 0000.0001) %MON exf_lwdown_min               =   3.0470651626587E+01
(PID.TID 0000.0001) %MON exf_lwdown_mean              =   3.6524669911288E+02
(PID.TID 0000.0001) %MON exf_lwdown_sd                =   6.1816184845257E+01
(PID.TID 0000.0001) %MON exf_lwdown_del2              =   7.0148828938144E-01
(PID.TID 0000.0001) %MON exf_apressure_max            =   1.0336608984375E+05
(PID.TID 0000.0001) %MON exf_apressure_min            =   9.4059789062500E+04
(PID.TID 0000.0001) %MON exf_apressure_mean           =   1.0113189510002E+05
(PID.TID 0000.0001) %MON exf_apressure_sd             =   1.2305024627474E+03
(PID.TID 0000.0001) %MON exf_apressure_del2           =   2.0668423099779E+02
(PID.TID 0000.0001) %MON exf_runoff_max               =   1.7809814879353E-06
(PID.TID 0000.0001) %MON exf_runoff_min               =   0.0000000000000E+00
(PID.TID 0000.0001) %MON exf_runoff_mean              =   4.0851614046022E-09
(PID.TID 0000.0001) %MON exf_runoff_sd                =   2.7591373452955E-08
(PID.TID 0000.0001) %MON exf_runoff_del2              =   7.2367526299534E-11
(PID.TID 0000.0001) // =======================================================
(PID.TID 0000.0001) // End MONITOR EXF statistics
(PID.TID 0000.0001) // =======================================================
 cg2d: Sum(rhs),rhsMax =  -9.91672210803690E+01  1.43901117196410E+00
(PID.TID 0000.0001)  ploadbar=  1.01131895100022E+05
 cg2d: Sum(rhs),rhsMax =  -9.92623251073685E+01  1.43804180912987E+00
(PID.TID 0000.0001)  ploadbar=  1.01131843800727E+05
 cg2d: Sum(rhs),rhsMax =  -9.93023961994814E+01  1.43787338152846E+00
(PID.TID 0000.0001)  ploadbar=  1.01131792501432E+05
 cg2d: Sum(rhs),rhsMax =  -9.92679775862044E+01  1.43878575748047E+00
(PID.TID 0000.0001)  ploadbar=  1.01131741202137E+05
 cg2d: Sum(rhs),rhsMax =  -9.91763784031401E+01  1.44054782225223E+00
(PID.TID 0000.0001)  ploadbar=  1.01130139418654E+05
 cg2d: Sum(rhs),rhsMax =  -9.90492540397113E+01  1.44284843544304E+00
(PID.TID 0000.0001)  ploadbar=  1.01128537635172E+05
 cg2d: Sum(rhs),rhsMax =  -9.88982554437002E+01  1.44552435245606E+00
(PID.TID 0000.0001)  ploadbar=  1.01126935851689E+05
 cg2d: Sum(rhs),rhsMax =  -9.87114264557972E+01  1.44875286490734E+00
(PID.TID 0000.0001)  ploadbar=  1.01125334068207E+05
 cg2d: Sum(rhs),rhsMax =  -9.85811488140459E+01  1.45117827946005E+00
(PID.TID 0000.0001)  ploadbar=  1.01123732284725E+05
 cg2d: Sum(rhs),rhsMax =  -9.84528820952194E+01  1.45359599548413E+00
(PID.TID 0000.0001)  ploadbar=  1.01122130501242E+05
 cg2d: Sum(rhs),rhsMax =  -9.84812176942746E+01  1.45369617310066E+00
(PID.TID 0000.0001)  ploadbar=  1.01121029613314E+05
 cg2d: Sum(rhs),rhsMax =  -9.85721813952243E+01  1.45286258337159E+00
(PID.TID 0000.0001)  ploadbar=  1.01119928725386E+05
 cg2d: Sum(rhs),rhsMax =  -9.88250909917613E+01  1.44963989807697E+00
(PID.TID 0000.0001)  ploadbar=  1.01118827837458E+05
 cg2d: Sum(rhs),rhsMax =  -9.93194489795775E+01  1.44290648190412E+00
(PID.TID 0000.0001)  ploadbar=  1.01117726949529E+05
 cg2d: Sum(rhs),rhsMax =  -1.00019039260499E+02  1.43328083260036E+00
(PID.TID 0000.0001)  ploadbar=  1.01116626061601E+05
 cg2d: Sum(rhs),rhsMax =  -1.00973666249172E+02  1.42018220687069E+00
(PID.TID 0000.0001)  ploadbar=  1.01115525173673E+05
 cg2d: Sum(rhs),rhsMax =  -1.02153312459435E+02  1.40426302616677E+00
(PID.TID 0000.0001)  ploadbar=  1.01115631705394E+05
 cg2d: Sum(rhs),rhsMax =  -1.02407751340557E+02  1.40128567330771E+00
(PID.TID 0000.0001)  ploadbar=  1.01115738237116E+05
 cg2d: Sum(rhs),rhsMax =  -1.02664168698322E+02  1.39832583795275E+00
(PID.TID 0000.0001)  ploadbar=  1.01115844768837E+05
 cg2d: Sum(rhs),rhsMax =  -1.02866279281129E+02  1.39614562383476E+00
(PID.TID 0000.0001)  ploadbar=  1.01115951300559E+05
 cg2d: Sum(rhs),rhsMax =  -1.03014221679192E+02  1.39473136703072E+00
(PID.TID 0000.0001)  ploadbar=  1.01116057832280E+05
 cg2d: Sum(rhs),rhsMax =  -1.03080070974276E+02  1.39445756548185E+00
(PID.TID 0000.0001)  ploadbar=  1.01116164364002E+05
 cg2d: Sum(rhs),rhsMax =  -1.01445184074802E+02  1.41753059264467E+00
(PID.TID 0000.0001)  ploadbar=  1.01115389566454E+05
 cg2d: Sum(rhs),rhsMax =  -9.92119193838011E+01  1.45002588105705E+00
(PID.TID 0000.0001)  ploadbar=  1.01114614768906E+05
 cg2d: Sum(rhs),rhsMax =  -9.70438329737322E+01  1.48299393455123E+00
(PID.TID 0000.0001)  ploadbar=  1.01113839971359E+05
 cg2d: Sum(rhs),rhsMax =  -9.49328203183425E+01  1.51653004179900E+00
(PID.TID 0000.0001)  ploadbar=  1.01113065173811E+05
 cg2d: Sum(rhs),rhsMax =  -9.28843153693354E+01  1.55052007160933E+00
(PID.TID 0000.0001)  ploadbar=  1.01112290376263E+05
 cg2d: Sum(rhs),rhsMax =  -9.09142800380316E+01  1.58464482589358E+00
(PID.TID 0000.0001)  ploadbar=  1.01111515578715E+05
 cg2d: Sum(rhs),rhsMax =  -8.91682500308227E+01  1.61619306934293E+00
(PID.TID 0000.0001)  ploadbar=  1.01108974090806E+05
 cg2d: Sum(rhs),rhsMax =  -8.76199177546006E+01  1.64526307651015E+00
(PID.TID 0000.0001)  ploadbar=  1.01106432602897E+05
 cg2d: Sum(rhs),rhsMax =  -8.63167188458807E+01  1.67060203464241E+00
(PID.TID 0000.0001)  ploadbar=  1.01103891114988E+05
 cg2d: Sum(rhs),rhsMax =  -8.52707162948789E+01  1.69158076316399E+00
(PID.TID 0000.0001)  ploadbar=  1.01101349627078E+05
 cg2d: Sum(rhs),rhsMax =  -8.44635128958056E+01  1.70821684163126E+00
(PID.TID 0000.0001)  ploadbar=  1.01098808139169E+05
 cg2d: Sum(rhs),rhsMax =  -8.38703195429163E+01  1.72075239663199E+00
(PID.TID 0000.0001)  ploadbar=  1.01096266651260E+05
 cg2d: Sum(rhs),rhsMax =  -8.34530769620506E+01  1.72979152976926E+00
(PID.TID 0000.0001)  ploadbar=  1.01095620154618E+05
 cg2d: Sum(rhs),rhsMax =  -8.30946016027018E+01  1.73767196721309E+00
(PID.TID 0000.0001)  ploadbar=  1.01094973657977E+05
 cg2d: Sum(rhs),rhsMax =  -8.28958957331630E+01  1.74223482974652E+00
(PID.TID 0000.0001)  ploadbar=  1.01094327161335E+05
 cg2d: Sum(rhs),rhsMax =  -8.31598734388852E+01  1.73707674564028E+00
(PID.TID 0000.0001)  ploadbar=  1.01093680664694E+05
 cg2d: Sum(rhs),rhsMax =  -8.38588866646516E+01  1.72294597601996E+00
(PID.TID 0000.0001)  ploadbar=  1.01093034168053E+05
 cg2d: Sum(rhs),rhsMax =  -8.46946801773770E+01  1.70626754501723E+00
(PID.TID 0000.0001)  ploadbar=  1.01092387671411E+05
 cg2d: Sum(rhs),rhsMax =  -8.54299324579052E+01  1.69193677063786E+00
(PID.TID 0000.0001)  ploadbar=  1.01092094903227E+05
 cg2d: Sum(rhs),rhsMax =  -8.60625750715277E+01  1.67988262509395E+00
(PID.TID 0000.0001)  ploadbar=  1.01091802135042E+05
 cg2d: Sum(rhs),rhsMax =  -8.66777351981731E+01  1.66836991184882E+00
(PID.TID 0000.0001)  ploadbar=  1.01091509366858E+05
 cg2d: Sum(rhs),rhsMax =  -8.72966408179228E+01  1.65697707935282E+00
(PID.TID 0000.0001)  ploadbar=  1.01091216598673E+05
 cg2d: Sum(rhs),rhsMax =  -8.79038321463173E+01  1.64599353645912E+00
(PID.TID 0000.0001)  ploadbar=  1.01090923830489E+05
 cg2d: Sum(rhs),rhsMax =  -8.85647393254638E+01  1.63419925754167E+00
(PID.TID 0000.0001)  ploadbar=  1.01090631062304E+05
 cg2d: Sum(rhs),rhsMax =  -8.91372537341324E+01  1.62418999971259E+00
(PID.TID 0000.0001)  ploadbar=  1.01090944913479E+05
 cg2d: Sum(rhs),rhsMax =  -8.96552752607239E+01  1.61529149233495E+00
(PID.TID 0000.0001)  ploadbar=  1.01091258764654E+05
 cg2d: Sum(rhs),rhsMax =  -8.78497433527017E+01  1.64898909710358E+00
(PID.TID 0000.0001)  ploadbar=  1.01091572615829E+05
 cg2d: Sum(rhs),rhsMax =  -8.32051471213242E+01  1.74156805083431E+00
(PID.TID 0000.0001)  ploadbar=  1.01091886467004E+05
 cg2d: Sum(rhs),rhsMax =  -7.90978399113330E+01  1.83256641987351E+00
(PID.TID 0000.0001)  ploadbar=  1.01092200318179E+05
 cg2d: Sum(rhs),rhsMax =  -7.54450272830664E+01  1.92189042126420E+00
(PID.TID 0000.0001)  ploadbar=  1.01092514169353E+05
 cg2d: Sum(rhs),rhsMax =  -7.22472820148337E+01  2.00755600533869E+00
(PID.TID 0000.0001)  ploadbar=  1.01093438465448E+05
 cg2d: Sum(rhs),rhsMax =  -6.93728485064512E+01  2.09134041741861E+00
(PID.TID 0000.0001)  ploadbar=  1.01094362761542E+05
 cg2d: Sum(rhs),rhsMax =  -6.67677377838255E+01  2.17354595422289E+00
(PID.TID 0000.0001)  ploadbar=  1.01095287057636E+05
 cg2d: Sum(rhs),rhsMax =  -6.44073037690407E+01  2.25381486059855E+00
(PID.TID 0000.0001)  ploadbar=  1.01096211353731E+05
 cg2d: Sum(rhs),rhsMax =  -6.22646381180439E+01  2.33199107749748E+00
(PID.TID 0000.0001)  ploadbar=  1.01097135649825E+05
 cg2d: Sum(rhs),rhsMax =  -6.03153797587873E+01  2.40798112923604E+00
(PID.TID 0000.0001)  ploadbar=  1.01098059945919E+05
 cg2d: Sum(rhs),rhsMax =  -5.85012920862979E+01  2.48325954570422E+00
(PID.TID 0000.0001)  ploadbar=  1.01098351515064E+05
 cg2d: Sum(rhs),rhsMax =  -5.69771810813633E+01  2.55027294663124E+00
(PID.TID 0000.0001)  ploadbar=  1.01098643084209E+05
 cg2d: Sum(rhs),rhsMax =  -5.61413047063593E+01  2.58879965053195E+00
(PID.TID 0000.0001)  ploadbar=  1.01098934653353E+05
 cg2d: Sum(rhs),rhsMax =  -5.53884933621390E+01  2.62451060950591E+00
(PID.TID 0000.0001)  ploadbar=  1.01099226222498E+05
 cg2d: Sum(rhs),rhsMax =  -5.49640334870785E+01  2.64526825649994E+00
(PID.TID 0000.0001)  ploadbar=  1.01099517791643E+05
 cg2d: Sum(rhs),rhsMax =  -5.44804122635325E+01  2.66920330183242E+00
(PID.TID 0000.0001)  ploadbar=  1.01099809360788E+05
 cg2d: Sum(rhs),rhsMax =  -5.47313551741484E+01  2.65744729186464E+00
(PID.TID 0000.0001)  ploadbar=  1.01101259925560E+05
 cg2d: Sum(rhs),rhsMax =  -5.58175947751265E+01  2.60623597242177E+00
(PID.TID 0000.0001)  ploadbar=  1.01102710490332E+05
 cg2d: Sum(rhs),rhsMax =  -5.71996151669669E+01  2.54378496004861E+00
(PID.TID 0000.0001)  ploadbar=  1.01104161055104E+05
 cg2d: Sum(rhs),rhsMax =  -5.85079511450024E+01  2.48743832409393E+00
(PID.TID 0000.0001)  ploadbar=  1.01105611619876E+05
 cg2d: Sum(rhs),rhsMax =  -5.96716888798116E+01  2.43948318291821E+00
(PID.TID 0000.0001)  ploadbar=  1.01107062184648E+05
 cg2d: Sum(rhs),rhsMax =  -6.06416322882877E+01  2.40104165755998E+00
(PID.TID 0000.0001)  ploadbar=  1.01108512749420E+05
 cg2d: Sum(rhs),rhsMax =  -6.15584700437930E+01  2.36584785069299E+00
(PID.TID 0000.0001)  ploadbar=  1.01109768735207E+05
 cg2d: Sum(rhs),rhsMax =  -6.23757039921790E+01  2.33541141834182E+00
(PID.TID 0000.0001)  ploadbar=  1.01111024720993E+05
 cg2d: Sum(rhs),rhsMax =  -6.31715765673829E+01  2.30654313875119E+00
(PID.TID 0000.0001)  ploadbar=  1.01112280706780E+05
 cg2d: Sum(rhs),rhsMax =  -6.39684716585247E+01  2.27835730865177E+00
(PID.TID 0000.0001)  ploadbar=  1.01113536692567E+05
 cg2d: Sum(rhs),rhsMax =  -6.47727427667960E+01  2.25060776753499E+00
(PID.TID 0000.0001)  ploadbar=  1.01114792678353E+05
 cg2d: Sum(rhs),rhsMax =  -6.55793840343734E+01  2.22345813900611E+00
(PID.TID 0000.0001)  ploadbar=  1.01116048664140E+05
 cg2d: Sum(rhs),rhsMax =  -6.63210079548862E+01  2.19909078638688E+00
(PID.TID 0000.0001)  ploadbar=  1.01116859153577E+05
 cg2d: Sum(rhs),rhsMax =  -6.70995986100835E+01  2.17403416618752E+00
(PID.TID 0000.0001)  ploadbar=  1.01117669643015E+05
 cg2d: Sum(rhs),rhsMax =  -6.79254637521923E+01  2.14802746549623E+00
(PID.TID 0000.0001)  ploadbar=  1.01118480132452E+05
 cg2d: Sum(rhs),rhsMax =  -6.87832344807426E+01  2.12163368949886E+00
(PID.TID 0000.0001)  ploadbar=  1.01119290621889E+05
 cg2d: Sum(rhs),rhsMax =  -6.96834379210301E+01  2.09458629373992E+00
(PID.TID 0000.0001)  ploadbar=  1.01120101111327E+05
 cg2d: Sum(rhs),rhsMax =  -7.06460324516275E+01  2.06637559665149E+00
(PID.TID 0000.0001)  ploadbar=  1.01120911600764E+05
 cg2d: Sum(rhs),rhsMax =  -7.16665404233149E+01  2.03725886208321E+00
(PID.TID 0000.0001)  ploadbar=  1.01120763087388E+05
 cg2d: Sum(rhs),rhsMax =  -7.27044391264643E+01  2.00846139337173E+00
(PID.TID 0000.0001)  ploadbar=  1.01120614574012E+05
 cg2d: Sum(rhs),rhsMax =  -7.37582267431731E+01  1.98003096474890E+00
(PID.TID 0000.0001)  ploadbar=  1.01120466060635E+05
 cg2d: Sum(rhs),rhsMax =  -7.48313070345535E+01  1.95188248308258E+00
(PID.TID 0000.0001)  ploadbar=  1.01120317547259E+05
 cg2d: Sum(rhs),rhsMax =  -7.59344973706510E+01  1.92375281233492E+00
(PID.TID 0000.0001)  ploadbar=  1.01120169033883E+05
 cg2d: Sum(rhs),rhsMax =  -7.70662869427157E+01  1.89571168719424E+00
(PID.TID 0000.0001)  ploadbar=  1.01120020520507E+05
 cg2d: Sum(rhs),rhsMax =  -7.81970736673426E+01  1.86853674690794E+00
(PID.TID 0000.0001)  ploadbar=  1.01119273452753E+05
 cg2d: Sum(rhs),rhsMax =  -7.92753407739233E+01  1.84338560651341E+00
(PID.TID 0000.0001)  ploadbar=  1.01118526384999E+05
 cg2d: Sum(rhs),rhsMax =  -8.03086340894493E+01  1.81995619357937E+00
(PID.TID 0000.0001)  ploadbar=  1.01117779317245E+05
 cg2d: Sum(rhs),rhsMax =  -8.12853397317447E+01  1.79840178435483E+00
(PID.TID 0000.0001)  ploadbar=  1.01117032249492E+05
 cg2d: Sum(rhs),rhsMax =  -8.22157054009812E+01  1.77839032685277E+00
(PID.TID 0000.0001)  ploadbar=  1.01116285181738E+05
 cg2d: Sum(rhs),rhsMax =  -8.31835775501794E+01  1.75806047201161E+00
(PID.TID 0000.0001)  ploadbar=  1.01115538113984E+05
 cg2d: Sum(rhs),rhsMax =  -8.42220376699660E+01  1.73673562621578E+00
(PID.TID 0000.0001)  ploadbar=  1.01114754430325E+05
 cg2d: Sum(rhs),rhsMax =  -8.53925991060223E+01  1.71326941655935E+00
(PID.TID 0000.0001)  ploadbar=  1.01113970746667E+05
 cg2d: Sum(rhs),rhsMax =  -8.66974703429204E+01  1.68781249316988E+00
(PID.TID 0000.0001)  ploadbar=  1.01113187063008E+05
 cg2d: Sum(rhs),rhsMax =  -8.81804647819496E+01  1.65974446819611E+00
(PID.TID 0000.0001)  ploadbar=  1.01112403379349E+05
 cg2d: Sum(rhs),rhsMax =  -8.98604688350465E+01  1.62901749688875E+00
(PID.TID 0000.0001)  ploadbar=  1.01111619695691E+05
 cg2d: Sum(rhs),rhsMax =  -9.17440748358316E+01  1.59586062146158E+00
(PID.TID 0000.0001)  ploadbar=  1.01110836012032E+05
 cg2d: Sum(rhs),rhsMax =  -9.06659513241586E+01  1.61512591917949E+00
(PID.TID 0000.0001)  ploadbar=  1.01110563258609E+05
 cg2d: Sum(rhs),rhsMax =  -8.93871478817081E+01  1.63851822030854E+00
(PID.TID 0000.0001)  ploadbar=  1.01110290505186E+05
 cg2d: Sum(rhs),rhsMax =  -8.76882415982401E+01  1.67054696521896E+00
(PID.TID 0000.0001)  ploadbar=  1.01110017751763E+05
 cg2d: Sum(rhs),rhsMax =  -8.60163080289513E+01  1.70329910172427E+00
(PID.TID 0000.0001)  ploadbar=  1.01109744998340E+05
 cg2d: Sum(rhs),rhsMax =  -8.46274257540563E+01  1.73153080519828E+00
(PID.TID 0000.0001)  ploadbar=  1.01109472244918E+05
 cg2d: Sum(rhs),rhsMax =  -8.34644227767354E+01  1.75593022520083E+00
(PID.TID 0000.0001)  ploadbar=  1.01109199491495E+05
 cg2d: Sum(rhs),rhsMax =  -8.27172335502437E+01  1.77203919188187E+00
(PID.TID 0000.0001)  ploadbar=  1.01108824908469E+05
 cg2d: Sum(rhs),rhsMax =  -8.22467238353672E+01  1.78239890059290E+00
(PID.TID 0000.0001)  ploadbar=  1.01108450325444E+05
 cg2d: Sum(rhs),rhsMax =  -8.20202622724899E+01  1.78751588509329E+00
(PID.TID 0000.0001)  ploadbar=  1.01108075742418E+05
 cg2d: Sum(rhs),rhsMax =  -8.20387691616751E+01  1.78728152763374E+00
(PID.TID 0000.0001)  ploadbar=  1.01107701159393E+05
 cg2d: Sum(rhs),rhsMax =  -8.24537736445004E+01  1.77842743206864E+00
(PID.TID 0000.0001)  ploadbar=  1.01107326576367E+05
 cg2d: Sum(rhs),rhsMax =  -8.30732990654379E+01  1.76527847010805E+00
(PID.TID 0000.0001)  ploadbar=  1.01106951993342E+05
 cg2d: Sum(rhs),rhsMax =  -8.36766934287277E+01  1.75270508721632E+00
(PID.TID 0000.0001)  ploadbar=  1.01106225207313E+05
 cg2d: Sum(rhs),rhsMax =  -8.42139982848502E+01  1.74171677464523E+00
(PID.TID 0000.0001)  ploadbar=  1.01105498421284E+05
 cg2d: Sum(rhs),rhsMax =  -8.46562919016702E+01  1.73284771322796E+00
(PID.TID 0000.0001)  ploadbar=  1.01104771635255E+05
 cg2d: Sum(rhs),rhsMax =  -8.50112275854134E+01  1.72588018125647E+00
(PID.TID 0000.0001)  ploadbar=  1.01104044849226E+05
 cg2d: Sum(rhs),rhsMax =  -8.53103946271929E+01  1.72013048640889E+00
(PID.TID 0000.0001)  ploadbar=  1.01103318063197E+05
 cg2d: Sum(rhs),rhsMax =  -8.55846590671222E+01  1.71495493774270E+00
(PID.TID 0000.0001)  ploadbar=  1.01102591277167E+05
 cg2d: Sum(rhs),rhsMax =  -8.57337003934927E+01  1.71232912518046E+00
(PID.TID 0000.0001)  ploadbar=  1.01101547041665E+05
 cg2d: Sum(rhs),rhsMax =  -8.58724612014284E+01  1.70993596456666E+00
(PID.TID 0000.0001)  ploadbar=  1.01100502806164E+05
 cg2d: Sum(rhs),rhsMax =  -8.60135246483795E+01  1.70752291708463E+00
(PID.TID 0000.0001)  ploadbar=  1.01099458570662E+05
 cg2d: Sum(rhs),rhsMax =  -8.61555713942292E+01  1.70511544893805E+00
(PID.TID 0000.0001)  ploadbar=  1.01098414335160E+05
 cg2d: Sum(rhs),rhsMax =  -8.63008353560167E+01  1.70266868447496E+00
(PID.TID 0000.0001)  ploadbar=  1.01097370099658E+05
 cg2d: Sum(rhs),rhsMax =  -8.64459262210769E+01  1.70024760199659E+00
(PID.TID 0000.0001)  ploadbar=  1.01096325864156E+05
 cg2d: Sum(rhs),rhsMax =  -8.65236226373699E+01  1.69915615334420E+00
(PID.TID 0000.0001)  ploadbar=  1.01095046381119E+05
 cg2d: Sum(rhs),rhsMax =  -8.65936865010231E+01  1.69821363865335E+00
(PID.TID 0000.0001)  ploadbar=  1.01093766898082E+05
 cg2d: Sum(rhs),rhsMax =  -8.66621118611376E+01  1.69730110642478E+00
(PID.TID 0000.0001)  ploadbar=  1.01092487415045E+05
 cg2d: Sum(rhs),rhsMax =  -8.67350702763226E+01  1.69629671825656E+00
(PID.TID 0000.0001)  ploadbar=  1.01091207932008E+05
 cg2d: Sum(rhs),rhsMax =  -8.68109835914590E+01  1.69523004285507E+00
(PID.TID 0000.0001)  ploadbar=  1.01089928448971E+05
 cg2d: Sum(rhs),rhsMax =  -8.68916425503791E+01  1.69406441780563E+00
(PID.TID 0000.0001)  ploadbar=  1.01088648965934E+05
 cg2d: Sum(rhs),rhsMax =  -8.70006499753339E+01  1.69232813527853E+00
(PID.TID 0000.0001)  ploadbar=  1.01088571149636E+05
 cg2d: Sum(rhs),rhsMax =  -8.71173711450816E+01  1.69042481079797E+00
(PID.TID 0000.0001)  ploadbar=  1.01088493333338E+05
 cg2d: Sum(rhs),rhsMax =  -8.72369012174086E+01  1.68845001833748E+00
(PID.TID 0000.0001)  ploadbar=  1.01088415517039E+05
 cg2d: Sum(rhs),rhsMax =  -8.73700547737153E+01  1.68619495116501E+00
(PID.TID 0000.0001)  ploadbar=  1.01088337700741E+05
 cg2d: Sum(rhs),rhsMax =  -8.75135761724692E+01  1.68372363109347E+00
(PID.TID 0000.0001)  ploadbar=  1.01088259884443E+05
 cg2d: Sum(rhs),rhsMax =  -8.76629922856926E+01  1.68112241133219E+00
(PID.TID 0000.0001)  ploadbar=  1.01088182068144E+05
 cg2d: Sum(rhs),rhsMax =  -8.78164022735514E+01  1.67848466863067E+00
(PID.TID 0000.0001)  ploadbar=  1.01088241489251E+05
 cg2d: Sum(rhs),rhsMax =  -8.79710317227946E+01  1.67586213128930E+00
(PID.TID 0000.0001)  ploadbar=  1.01088300910357E+05
 cg2d: Sum(rhs),rhsMax =  -8.81167075433693E+01  1.67344646152069E+00
(PID.TID 0000.0001)  ploadbar=  1.01088360331464E+05
 cg2d: Sum(rhs),rhsMax =  -8.82588732590727E+01  1.67113287924711E+00
(PID.TID 0000.0001)  ploadbar=  1.01088419752571E+05
 cg2d: Sum(rhs),rhsMax =  -8.84004049417939E+01  1.66886564180162E+00
(PID.TID 0000.0001)  ploadbar=  1.01088479173677E+05
 cg2d: Sum(rhs),rhsMax =  -8.85384690180828E+01  1.66669552249842E+00
(PID.TID 0000.0001)  ploadbar=  1.01088538594784E+05
 cg2d: Sum(rhs),rhsMax =  -8.87529165103091E+01  1.66309854830316E+00
(PID.TID 0000.0001)  ploadbar=  1.01089080724852E+05
 cg2d: Sum(rhs),rhsMax =  -8.89751638436856E+01  1.65937119275625E+00
(PID.TID 0000.0001)  ploadbar=  1.01089622854921E+05
 cg2d: Sum(rhs),rhsMax =  -8.90152805222113E+01  1.65904776353793E+00
(PID.TID 0000.0001)  ploadbar=  1.01090164984989E+05
 cg2d: Sum(rhs),rhsMax =  -8.83025868783074E+01  1.67286293529844E+00
(PID.TID 0000.0001)  ploadbar=  1.01090707115058E+05
 cg2d: Sum(rhs),rhsMax =  -8.74749952448530E+01  1.68911451585071E+00
(PID.TID 0000.0001)  ploadbar=  1.01091249245126E+05
 cg2d: Sum(rhs),rhsMax =  -8.65824985484050E+01  1.70695002763100E+00
(PID.TID 0000.0001)  ploadbar=  1.01091791375195E+05
 cg2d: Sum(rhs),rhsMax =  -8.56562760787767E+01  1.72583716420422E+00
(PID.TID 0000.0001)  ploadbar=  1.01091781302136E+05
 cg2d: Sum(rhs),rhsMax =  -8.47588985819135E+01  1.74454247510479E+00
(PID.TID 0000.0001)  ploadbar=  1.01091771229076E+05
 cg2d: Sum(rhs),rhsMax =  -8.39430737477360E+01  1.76193265782121E+00
(PID.TID 0000.0001)  ploadbar=  1.01091761156017E+05
 cg2d: Sum(rhs),rhsMax =  -8.32170340997344E+01  1.77774154692312E+00
(PID.TID 0000.0001)  ploadbar=  1.01091751082958E+05
 cg2d: Sum(rhs),rhsMax =  -8.25890344870633E+01  1.79169616224803E+00
(PID.TID 0000.0001)  ploadbar=  1.01091741009899E+05
 cg2d: Sum(rhs),rhsMax =  -8.20657416828903E+01  1.80355757355171E+00
(PID.TID 0000.0001)  ploadbar=  1.01091730936839E+05
 cg2d: Sum(rhs),rhsMax =  -8.16349485620465E+01  1.81348568160457E+00
(PID.TID 0000.0001)  ploadbar=  1.01092689713016E+05
 cg2d: Sum(rhs),rhsMax =  -8.12753667710289E+01  1.82189098697296E+00
(PID.TID 0000.0001)  ploadbar=  1.01093648489192E+05
 cg2d: Sum(rhs),rhsMax =  -8.10037433160469E+01  1.82835220549541E+00
(PID.TID 0000.0001)  ploadbar=  1.01094607265368E+05
 cg2d: Sum(rhs),rhsMax =  -8.08082880750751E+01  1.83309599930494E+00
(PID.TID 0000.0001)  ploadbar=  1.01095566041544E+05
 cg2d: Sum(rhs),rhsMax =  -8.06967865316282E+01  1.83591876087117E+00
(PID.TID 0000.0001)  ploadbar=  1.01096524817720E+05
 cg2d: Sum(rhs),rhsMax =  -8.06808187687013E+01  1.83653815639079E+00
(PID.TID 0000.0001)  ploadbar=  1.01097483593896E+05
 cg2d: Sum(rhs),rhsMax =  -8.07848967559060E+01  1.83446866044709E+00
(PID.TID 0000.0001)  ploadbar=  1.01098727031442E+05
 cg2d: Sum(rhs),rhsMax =  -8.09326980535780E+01  1.83145423212158E+00
(PID.TID 0000.0001)  ploadbar=  1.01099970468988E+05
 cg2d: Sum(rhs),rhsMax =  -8.10890883817545E+01  1.82829547143089E+00
(PID.TID 0000.0001)  ploadbar=  1.01101213906534E+05
 cg2d: Sum(rhs),rhsMax =  -8.12360006549223E+01  1.82539852626777E+00
(PID.TID 0000.0001)  ploadbar=  1.01102457344080E+05
 cg2d: Sum(rhs),rhsMax =  -8.13549259945027E+01  1.82317538259780E+00
(PID.TID 0000.0001)  ploadbar=  1.01103700781625E+05
 cg2d: Sum(rhs),rhsMax =  -8.14370129699602E+01  1.82181597906768E+00
(PID.TID 0000.0001)  ploadbar=  1.01104944219171E+05
 cg2d: Sum(rhs),rhsMax =  -8.15255972178172E+01  1.82028328674106E+00
(PID.TID 0000.0001)  ploadbar=  1.01106371992370E+05
 cg2d: Sum(rhs),rhsMax =  -8.15859360010617E+01  1.81935176959346E+00
(PID.TID 0000.0001)  ploadbar=  1.01107799765568E+05
 cg2d: Sum(rhs),rhsMax =  -8.15831365478705E+01  1.81979740219303E+00
(PID.TID 0000.0001)  ploadbar=  1.01109227538767E+05
 cg2d: Sum(rhs),rhsMax =  -8.15551367203931E+01  1.82077423331272E+00
(PID.TID 0000.0001)  ploadbar=  1.01110655311966E+05
 cg2d: Sum(rhs),rhsMax =  -8.15615083123955E+01  1.82095271080475E+00
(PID.TID 0000.0001)  ploadbar=  1.01112083085164E+05
 cg2d: Sum(rhs),rhsMax =  -8.16411120969653E+01  1.81946588919137E+00
(PID.TID 0000.0001)  ploadbar=  1.01113510858363E+05
 cg2d: Sum(rhs),rhsMax =  -8.17606320267728E+01  1.81707989625335E+00
(PID.TID 0000.0001)  ploadbar=  1.01113500372485E+05
 cg2d: Sum(rhs),rhsMax =  -8.19417558892900E+01  1.81332124791200E+00
(PID.TID 0000.0001)  ploadbar=  1.01113489886606E+05
 cg2d: Sum(rhs),rhsMax =  -8.21378437183426E+01  1.80923329607916E+00
(PID.TID 0000.0001)  ploadbar=  1.01113479400728E+05
 cg2d: Sum(rhs),rhsMax =  -8.23528415302412E+01  1.80473360854684E+00
(PID.TID 0000.0001)  ploadbar=  1.01113468914850E+05
 cg2d: Sum(rhs),rhsMax =  -8.25967350964782E+01  1.79961126806415E+00
(PID.TID 0000.0001)  ploadbar=  1.01113458428971E+05
 cg2d: Sum(rhs),rhsMax =  -8.28802513906843E+01  1.79364576134890E+00
(PID.TID 0000.0001)  ploadbar=  1.01113447943093E+05
 cg2d: Sum(rhs),rhsMax =  -8.31501941063495E+01  1.78797041808899E+00
(PID.TID 0000.0001)  ploadbar=  1.01114071051591E+05
 cg2d: Sum(rhs),rhsMax =  -8.34337771131754E+01  1.78199553790262E+00
(PID.TID 0000.0001)  ploadbar=  1.01114694160089E+05
 cg2d: Sum(rhs),rhsMax =  -8.37004486591550E+01  1.77637454229393E+00
(PID.TID 0000.0001)  ploadbar=  1.01115317268587E+05
 cg2d: Sum(rhs),rhsMax =  -8.39311699655920E+01  1.77150185617541E+00
(PID.TID 0000.0001)  ploadbar=  1.01115940377085E+05
 cg2d: Sum(rhs),rhsMax =  -8.41288053782147E+01  1.76730447465739E+00
(PID.TID 0000.0001)  ploadbar=  1.01116563485582E+05
 cg2d: Sum(rhs),rhsMax =  -8.42982782249541E+01  1.76366832926227E+00
(PID.TID 0000.0001)  ploadbar=  1.01117186594080E+05
 cg2d: Sum(rhs),rhsMax =  -8.43819526902093E+01  1.76188056604133E+00
(PID.TID 0000.0001)  ploadbar=  1.01117215551341E+05
 cg2d: Sum(rhs),rhsMax =  -8.44441042991087E+01  1.76058995288322E+00
(PID.TID 0000.0001)  ploadbar=  1.01117244508601E+05
 cg2d: Sum(rhs),rhsMax =  -8.44970906305546E+01  1.75953505685215E+00
(PID.TID 0000.0001)  ploadbar=  1.01117273465861E+05
 cg2d: Sum(rhs),rhsMax =  -8.45329480473715E+01  1.75888032380769E+00
(PID.TID 0000.0001)  ploadbar=  1.01117302423121E+05
 cg2d: Sum(rhs),rhsMax =  -8.45685116904516E+01  1.75827409496231E+00
(PID.TID 0000.0001)  ploadbar=  1.01117331380381E+05
 cg2d: Sum(rhs),rhsMax =  -8.46115583209516E+01  1.75755303607357E+00
(PID.TID 0000.0001)  ploadbar=  1.01117360337642E+05
 cg2d: Sum(rhs),rhsMax =  -8.46623170069817E+01  1.75668068051575E+00
(PID.TID 0000.0001)  ploadbar=  1.01117235124061E+05
 cg2d: Sum(rhs),rhsMax =  -8.47195649896332E+01  1.75568169802250E+00
(PID.TID 0000.0001)  ploadbar=  1.01117109910481E+05
 cg2d: Sum(rhs),rhsMax =  -8.48111495864622E+01  1.75398159887337E+00
(PID.TID 0000.0001)  ploadbar=  1.01116984696900E+05
 cg2d: Sum(rhs),rhsMax =  -8.49372980648414E+01  1.75157936712621E+00
(PID.TID 0000.0001)  ploadbar=  1.01116859483320E+05
 cg2d: Sum(rhs),rhsMax =  -8.50930613941781E+01  1.74858238691119E+00
(PID.TID 0000.0001)  ploadbar=  1.01116734269740E+05
 cg2d: Sum(rhs),rhsMax =  -8.52703392831324E+01  1.74516343224807E+00
(PID.TID 0000.0001)  ploadbar=  1.01116609056159E+05
 cg2d: Sum(rhs),rhsMax =  -8.54729433491244E+01  1.74122196211174E+00
(PID.TID 0000.0001)  ploadbar=  1.01117238484868E+05
 cg2d: Sum(rhs),rhsMax =  -8.56801006923552E+01  1.73718484812187E+00
(PID.TID 0000.0001)  ploadbar=  1.01117867913577E+05
 cg2d: Sum(rhs),rhsMax =  -8.58870761434622E+01  1.73314776272383E+00
(PID.TID 0000.0001)  ploadbar=  1.01118497342285E+05
 cg2d: Sum(rhs),rhsMax =  -8.60960708555786E+01  1.72906581678244E+00
(PID.TID 0000.0001)  ploadbar=  1.01119126770994E+05
 cg2d: Sum(rhs),rhsMax =  -8.63053785538272E+01  1.72497365933523E+00
(PID.TID 0000.0001)  ploadbar=  1.01119756199703E+05
 cg2d: Sum(rhs),rhsMax =  -8.65173796653569E+01  1.72082277793028E+00
(PID.TID 0000.0001)  ploadbar=  1.01120385628411E+05
 cg2d: Sum(rhs),rhsMax =  -8.67836135993442E+01  1.71558128558447E+00
(PID.TID 0000.0001)  ploadbar=  1.01120580682073E+05
 cg2d: Sum(rhs),rhsMax =  -8.70821369512153E+01  1.70969850615105E+00
(PID.TID 0000.0001)  ploadbar=  1.01120775735735E+05
 cg2d: Sum(rhs),rhsMax =  -8.74006341485602E+01  1.70342696022235E+00
(PID.TID 0000.0001)  ploadbar=  1.01120970789396E+05
 cg2d: Sum(rhs),rhsMax =  -8.77582551044188E+01  1.69640259663624E+00
(PID.TID 0000.0001)  ploadbar=  1.01121165843058E+05
 cg2d: Sum(rhs),rhsMax =  -8.80424688403913E+01  1.69080367967923E+00
(PID.TID 0000.0001)  ploadbar=  1.01121360896719E+05
 cg2d: Sum(rhs),rhsMax =  -8.83362215046665E+01  1.68501797373173E+00
(PID.TID 0000.0001)  ploadbar=  1.01121555950381E+05
 cg2d: Sum(rhs),rhsMax =  -8.86511738754942E+01  1.67892474044865E+00
(PID.TID 0000.0001)  ploadbar=  1.01122426002277E+05
 cg2d: Sum(rhs),rhsMax =  -8.90018741395685E+01  1.67225656761296E+00
(PID.TID 0000.0001)  ploadbar=  1.01123296054173E+05
 cg2d: Sum(rhs),rhsMax =  -8.96130035445465E+01  1.66085122443945E+00
(PID.TID 0000.0001)  ploadbar=  1.01124166106069E+05
 cg2d: Sum(rhs),rhsMax =  -9.04793427584902E+01  1.64499534415340E+00
(PID.TID 0000.0001)  ploadbar=  1.01125036157965E+05
 cg2d: Sum(rhs),rhsMax =  -9.14247393949000E+01  1.62807763176724E+00
(PID.TID 0000.0001)  ploadbar=  1.01125906209861E+05
 cg2d: Sum(rhs),rhsMax =  -9.13746375465352E+01  1.62910692476054E+00
(PID.TID 0000.0001)  ploadbar=  1.01126776261757E+05
 cg2d: Sum(rhs),rhsMax =  -9.07907251899732E+01  1.63972231506964E+00
(PID.TID 0000.0001)  ploadbar=  1.01127016550739E+05
 cg2d: Sum(rhs),rhsMax =  -8.98690752660618E+01  1.65667633666458E+00
(PID.TID 0000.0001)  ploadbar=  1.01127256839722E+05
 cg2d: Sum(rhs),rhsMax =  -8.88606292170319E+01  1.67561206523275E+00
(PID.TID 0000.0001)  ploadbar=  1.01127497128705E+05
 cg2d: Sum(rhs),rhsMax =  -8.82691690717594E+01  1.68697030785484E+00
(PID.TID 0000.0001)  ploadbar=  1.01127737417687E+05
 cg2d: Sum(rhs),rhsMax =  -8.78006265099485E+01  1.69609602455969E+00
(PID.TID 0000.0001)  ploadbar=  1.01127977706670E+05
 cg2d: Sum(rhs),rhsMax =  -8.72144919881572E+01  1.70760842765098E+00
(PID.TID 0000.0001)  ploadbar=  1.01128217995653E+05
 cg2d: Sum(rhs),rhsMax =  -8.65649001477460E+01  1.72053235343708E+00
(PID.TID 0000.0001)  ploadbar=  1.01129111338904E+05
 cg2d: Sum(rhs),rhsMax =  -8.58108173043931E+01  1.73575343730155E+00
(PID.TID 0000.0001)  ploadbar=  1.01130004682154E+05
 cg2d: Sum(rhs),rhsMax =  -8.50211338427788E+01  1.75196627031449E+00
(PID.TID 0000.0001)  ploadbar=  1.01130898025405E+05
 cg2d: Sum(rhs),rhsMax =  -8.41708365260478E+01  1.76974261335150E+00
(PID.TID 0000.0001)  ploadbar=  1.01131791368656E+05
 cg2d: Sum(rhs),rhsMax =  -8.32500419608587E+01  1.78937940125373E+00
(PID.TID 0000.0001)  ploadbar=  1.01132684711906E+05
 cg2d: Sum(rhs),rhsMax =  -8.22610829999805E+01  1.81093442417224E+00
(PID.TID 0000.0001)  ploadbar=  1.01133578055157E+05
 cg2d: Sum(rhs),rhsMax =  -8.12377870081240E+01  1.83377671220138E+00
(PID.TID 0000.0001)  ploadbar=  1.01133917683186E+05
 cg2d: Sum(rhs),rhsMax =  -8.01867584313077E+01  1.85783082147600E+00
(PID.TID 0000.0001)  ploadbar=  1.01134257311215E+05
 cg2d: Sum(rhs),rhsMax =  -7.91439376794090E+01  1.88231470527423E+00
(PID.TID 0000.0001)  ploadbar=  1.01134596939244E+05
 cg2d: Sum(rhs),rhsMax =  -7.81207285309266E+01  1.90695782502000E+00
(PID.TID 0000.0001)  ploadbar=  1.01134936567273E+05
 cg2d: Sum(rhs),rhsMax =  -7.71268354037936E+01  1.93150274058813E+00
(PID.TID 0000.0001)  ploadbar=  1.01135276195303E+05
 cg2d: Sum(rhs),rhsMax =  -7.61630603491519E+01  1.95589458033061E+00
(PID.TID 0000.0001)  ploadbar=  1.01135615823332E+05
 cg2d: Sum(rhs),rhsMax =  -7.52817136538678E+01  1.97880059385686E+00
(PID.TID 0000.0001)  ploadbar=  1.01135670021773E+05
 cg2d: Sum(rhs),rhsMax =  -7.44431153794813E+01  2.00115766551117E+00
(PID.TID 0000.0001)  ploadbar=  1.01135724220214E+05
 cg2d: Sum(rhs),rhsMax =  -7.36468352544100E+01  2.02291534725346E+00
(PID.TID 0000.0001)  ploadbar=  1.01135778418655E+05
 cg2d: Sum(rhs),rhsMax =  -7.28905130180764E+01  2.04408146820153E+00
(PID.TID 0000.0001)  ploadbar=  1.01135832617097E+05
 cg2d: Sum(rhs),rhsMax =  -7.21717040934947E+01  2.06466715959751E+00
(PID.TID 0000.0001)  ploadbar=  1.01135886815538E+05
 cg2d: Sum(rhs),rhsMax =  -7.14862073185615E+01  2.08473756851109E+00
(PID.TID 0000.0001)  ploadbar=  1.01135941013979E+05
 cg2d: Sum(rhs),rhsMax =  -7.08410566985973E+01  2.10400781068706E+00
(PID.TID 0000.0001)  ploadbar=  1.01136390705072E+05
 cg2d: Sum(rhs),rhsMax =  -7.02429094738260E+01  2.12222541206811E+00
(PID.TID 0000.0001)  ploadbar=  1.01136840396164E+05
 cg2d: Sum(rhs),rhsMax =  -6.96877420127231E+01  2.13944766239720E+00
(PID.TID 0000.0001)  ploadbar=  1.01137290087257E+05
 cg2d: Sum(rhs),rhsMax =  -6.91780073890773E+01  2.15553997562849E+00
(PID.TID 0000.0001)  ploadbar=  1.01137739778350E+05
 cg2d: Sum(rhs),rhsMax =  -6.87169910387169E+01  2.17033753953013E+00
(PID.TID 0000.0001)  ploadbar=  1.01138189469442E+05
 cg2d: Sum(rhs),rhsMax =  -6.83003440032102E+01  2.18391850219154E+00
(PID.TID 0000.0001)  ploadbar=  1.01138639160535E+05
 cg2d: Sum(rhs),rhsMax =  -6.79335422566872E+01  2.19607383187005E+00
(PID.TID 0000.0001)  ploadbar=  1.01139397625948E+05
 cg2d: Sum(rhs),rhsMax =  -6.76087376506978E+01  2.20700498813268E+00
(PID.TID 0000.0001)  ploadbar=  1.01140156091360E+05
 cg2d: Sum(rhs),rhsMax =  -6.73252432956989E+01  2.21669353806739E+00
(PID.TID 0000.0001)  ploadbar=  1.01140914556773E+05
 cg2d: Sum(rhs),rhsMax =  -6.70835117598812E+01  2.22508687971899E+00
(PID.TID 0000.0001)  ploadbar=  1.01141673022186E+05
 cg2d: Sum(rhs),rhsMax =  -6.68951850190649E+01  2.23176345882870E+00
(PID.TID 0000.0001)  ploadbar=  1.01142431487599E+05
 cg2d: Sum(rhs),rhsMax =  -6.67699150374699E+01  2.23636834135938E+00
(PID.TID 0000.0001)  ploadbar=  1.01143189953012E+05
 cg2d: Sum(rhs),rhsMax =  -6.67186040476247E+01  2.23847279711969E+00
(PID.TID 0000.0001)  ploadbar=  1.01143993198870E+05
 cg2d: Sum(rhs),rhsMax =  -6.67563207711856E+01  2.23755747907877E+00
(PID.TID 0000.0001)  ploadbar=  1.01144796444728E+05
 cg2d: Sum(rhs),rhsMax =  -6.68413731204723E+01  2.23502343340972E+00
(PID.TID 0000.0001)  ploadbar=  1.01145599690587E+05
 cg2d: Sum(rhs),rhsMax =  -6.71386192987971E+01  2.22540288447198E+00
(PID.TID 0000.0001)  ploadbar=  1.01146402936445E+05
 cg2d: Sum(rhs),rhsMax =  -6.74495722917787E+01  2.21537848835938E+00
(PID.TID 0000.0001)  ploadbar=  1.01147206182303E+05
 cg2d: Sum(rhs),rhsMax =  -6.77839156544334E+01  2.20464482471999E+00
(PID.TID 0000.0001)  ploadbar=  1.01148009428162E+05
 cg2d: Sum(rhs),rhsMax =  -6.81764275861835E+01  2.19221334329541E+00
(PID.TID 0000.0001)  ploadbar=  1.01148513389695E+05
 cg2d: Sum(rhs),rhsMax =  -6.85892228841582E+01  2.17934648684907E+00
(PID.TID 0000.0001)  ploadbar=  1.01149017351229E+05
 cg2d: Sum(rhs),rhsMax =  -6.89887409092062E+01  2.16711598270926E+00
(PID.TID 0000.0001)  ploadbar=  1.01149521312763E+05
 cg2d: Sum(rhs),rhsMax =  -6.93663056630236E+01  2.15577077497345E+00
(PID.TID 0000.0001)  ploadbar=  1.01150025274296E+05
 cg2d: Sum(rhs),rhsMax =  -6.97053508260624E+01  2.14579215042804E+00
(PID.TID 0000.0001)  ploadbar=  1.01150529235830E+05
 cg2d: Sum(rhs),rhsMax =  -6.99877045124720E+01  2.13769102356702E+00
(PID.TID 0000.0001)  ploadbar=  1.01151033197364E+05
 cg2d: Sum(rhs),rhsMax =  -7.02297922908405E+01  2.13084664054831E+00
(PID.TID 0000.0001)  ploadbar=  1.01151484518588E+05
 cg2d: Sum(rhs),rhsMax =  -7.04362937564365E+01  2.12509405226782E+00
(PID.TID 0000.0001)  ploadbar=  1.01151935839811E+05
 cg2d: Sum(rhs),rhsMax =  -7.06066810760037E+01  2.12043018695602E+00
(PID.TID 0000.0001)  ploadbar=  1.01152387161035E+05
 cg2d: Sum(rhs),rhsMax =  -7.07500583318454E+01  2.11656458140404E+00
(PID.TID 0000.0001)  ploadbar=  1.01152838482259E+05
 cg2d: Sum(rhs),rhsMax =  -7.08765314400394E+01  2.11318590983070E+00
(PID.TID 0000.0001)  ploadbar=  1.01153289803483E+05
 cg2d: Sum(rhs),rhsMax =  -7.10248042942238E+01  2.10913557526172E+00
(PID.TID 0000.0001)  ploadbar=  1.01153741124707E+05
 cg2d: Sum(rhs),rhsMax =  -7.11788160098325E+01  2.10493536187072E+00
(PID.TID 0000.0001)  ploadbar=  1.01153199309754E+05
 cg2d: Sum(rhs),rhsMax =  -7.13682830681027E+01  2.09970318509344E+00
(PID.TID 0000.0001)  ploadbar=  1.01152657494800E+05
 cg2d: Sum(rhs),rhsMax =  -7.15669828529867E+01  2.09421761142346E+00
(PID.TID 0000.0001)  ploadbar=  1.01152115679847E+05
 cg2d: Sum(rhs),rhsMax =  -7.17751900550992E+01  2.08847386113691E+00
(PID.TID 0000.0001)  ploadbar=  1.01151573864894E+05
 cg2d: Sum(rhs),rhsMax =  -7.19977103396251E+01  2.08233856013571E+00
(PID.TID 0000.0001)  ploadbar=  1.01151032049941E+05
 cg2d: Sum(rhs),rhsMax =  -7.22311306645519E+01  2.07591602724590E+00
(PID.TID 0000.0001)  ploadbar=  1.01150490234988E+05
 cg2d: Sum(rhs),rhsMax =  -7.24120091572605E+01  2.07101018344427E+00
(PID.TID 0000.0001)  ploadbar=  1.01149999913864E+05
 cg2d: Sum(rhs),rhsMax =  -7.25908699489623E+01  2.06616192612656E+00
(PID.TID 0000.0001)  ploadbar=  1.01149509592741E+05
 cg2d: Sum(rhs),rhsMax =  -7.27536568452463E+01  2.06176695311777E+00
(PID.TID 0000.0001)  ploadbar=  1.01149019271617E+05
 cg2d: Sum(rhs),rhsMax =  -7.28998676392014E+01  2.05783443144617E+00
(PID.TID 0000.0001)  ploadbar=  1.01148528950494E+05
 cg2d: Sum(rhs),rhsMax =  -7.30330391379601E+01  2.05425921012041E+00
(PID.TID 0000.0001)  ploadbar=  1.01148038629371E+05
 cg2d: Sum(rhs),rhsMax =  -7.31527081045387E+01  2.05104857991318E+00
(PID.TID 0000.0001)  ploadbar=  1.01147548308247E+05
 cg2d: Sum(rhs),rhsMax =  -7.32652847660475E+01  2.04810043749542E+00
(PID.TID 0000.0001)  ploadbar=  1.01145919657923E+05
 cg2d: Sum(rhs),rhsMax =  -7.33661120646783E+01  2.04554266963693E+00
(PID.TID 0000.0001)  ploadbar=  1.01144291007599E+05
 cg2d: Sum(rhs),rhsMax =  -7.34556784166243E+01  2.04335822311319E+00
(PID.TID 0000.0001)  ploadbar=  1.01142662357274E+05
 cg2d: Sum(rhs),rhsMax =  -7.35229023502797E+01  2.04184903658360E+00
(PID.TID 0000.0001)  ploadbar=  1.01141033706950E+05
 cg2d: Sum(rhs),rhsMax =  -7.35601640038137E+01  2.04122082846649E+00
(PID.TID 0000.0001)  ploadbar=  1.01139405056626E+05
 cg2d: Sum(rhs),rhsMax =  -7.35583748725953E+01  2.04172108292539E+00
(PID.TID 0000.0001)  ploadbar=  1.01137776406302E+05
 cg2d: Sum(rhs),rhsMax =  -7.34542679426663E+01  2.04507147376455E+00
(PID.TID 0000.0001)  ploadbar=  1.01137418553499E+05
 cg2d: Sum(rhs),rhsMax =  -7.32785774167088E+01  2.05043411323809E+00
(PID.TID 0000.0001)  ploadbar=  1.01137060700696E+05
 cg2d: Sum(rhs),rhsMax =  -7.30857670304632E+01  2.05629938269225E+00
(PID.TID 0000.0001)  ploadbar=  1.01136702847893E+05
 cg2d: Sum(rhs),rhsMax =  -7.29525334640703E+01  2.06050525416829E+00
(PID.TID 0000.0001)  ploadbar=  1.01136344995090E+05
 cg2d: Sum(rhs),rhsMax =  -7.29468052055477E+01  2.06110815231674E+00
(PID.TID 0000.0001)  ploadbar=  1.01135987142287E+05
 cg2d: Sum(rhs),rhsMax =  -7.31213589748194E+01  2.05661559748729E+00
(PID.TID 0000.0001)  ploadbar=  1.01135629289485E+05
 cg2d: Sum(rhs),rhsMax =  -7.35233010210163E+01  2.04579771666100E+00
(PID.TID 0000.0001)  ploadbar=  1.01135994913539E+05
 cg2d: Sum(rhs),rhsMax =  -7.41698066810370E+01  2.02838039905235E+00
(PID.TID 0000.0001)  ploadbar=  1.01136360537594E+05
 cg2d: Sum(rhs),rhsMax =  -7.51878644656848E+01  2.00131553112403E+00
(PID.TID 0000.0001)  ploadbar=  1.01136726161649E+05
 cg2d: Sum(rhs),rhsMax =  -7.65882951201315E+01  1.96510146720117E+00
(PID.TID 0000.0001)  ploadbar=  1.01137091785704E+05
 cg2d: Sum(rhs),rhsMax =  -7.79577053691414E+01  1.93094333859063E+00
(PID.TID 0000.0001)  ploadbar=  1.01137457409758E+05
 cg2d: Sum(rhs),rhsMax =  -7.82659045719408E+01  1.92368330033927E+00
(PID.TID 0000.0001)  ploadbar=  1.01137823033813E+05
 cg2d: Sum(rhs),rhsMax =  -7.79838793861946E+01  1.93095024028387E+00
(PID.TID 0000.0001)  ploadbar=  1.01137450092094E+05
 cg2d: Sum(rhs),rhsMax =  -7.79779675762901E+01  1.93137029338674E+00
(PID.TID 0000.0001)  ploadbar=  1.01137077150376E+05
 cg2d: Sum(rhs),rhsMax =  -7.80739181656985E+01  1.92923140989023E+00
(PID.TID 0000.0001)  ploadbar=  1.01136704208657E+05
 cg2d: Sum(rhs),rhsMax =  -7.81244397891323E+01  1.92817836621812E+00
(PID.TID 0000.0001)  ploadbar=  1.01136331266938E+05
 cg2d: Sum(rhs),rhsMax =  -7.80125790082723E+01  1.93109498263658E+00
(PID.TID 0000.0001)  ploadbar=  1.01135958325220E+05
 cg2d: Sum(rhs),rhsMax =  -7.77209634969739E+01  1.93844871441427E+00
(PID.TID 0000.0001)  ploadbar=  1.01135585383501E+05
 cg2d: Sum(rhs),rhsMax =  -7.73675381987516E+01  1.94746417809230E+00
(PID.TID 0000.0001)  ploadbar=  1.01136728475578E+05
 cg2d: Sum(rhs),rhsMax =  -7.69542752772257E+01  1.95813458077418E+00
(PID.TID 0000.0001)  ploadbar=  1.01137871567656E+05
 cg2d: Sum(rhs),rhsMax =  -7.64711847849914E+01  1.97076618534221E+00
(PID.TID 0000.0001)  ploadbar=  1.01139014659733E+05
 cg2d: Sum(rhs),rhsMax =  -7.59139521820101E+01  1.98553966415755E+00
(PID.TID 0000.0001)  ploadbar=  1.01140157751810E+05
 cg2d: Sum(rhs),rhsMax =  -7.52753717761118E+01  2.00273270185702E+00
(PID.TID 0000.0001)  ploadbar=  1.01141300843887E+05
 cg2d: Sum(rhs),rhsMax =  -7.45535473466317E+01  2.02250893407696E+00
(PID.TID 0000.0001)  ploadbar=  1.01142443935965E+05
 cg2d: Sum(rhs),rhsMax =  -7.38536138173027E+01  2.04206260696008E+00
(PID.TID 0000.0001)  ploadbar=  1.01143023462397E+05
 cg2d: Sum(rhs),rhsMax =  -7.31736089878762E+01  2.06142081403575E+00
(PID.TID 0000.0001)  ploadbar=  1.01143602988829E+05
 cg2d: Sum(rhs),rhsMax =  -7.25404625940147E+01  2.07978776669881E+00
(PID.TID 0000.0001)  ploadbar=  1.01144182515260E+05
 cg2d: Sum(rhs),rhsMax =  -7.19876875984329E+01  2.09612468201294E+00
(PID.TID 0000.0001)  ploadbar=  1.01144762041692E+05
 cg2d: Sum(rhs),rhsMax =  -7.15324939798306E+01  2.10981938533981E+00
(PID.TID 0000.0001)  ploadbar=  1.01145341568124E+05
 cg2d: Sum(rhs),rhsMax =  -7.11776965051540E+01  2.12067746580011E+00
(PID.TID 0000.0001)  ploadbar=  1.01145921094556E+05
 cg2d: Sum(rhs),rhsMax =  -7.09723818981899E+01  2.12715906863858E+00
(PID.TID 0000.0001)  ploadbar=  1.01145889334464E+05
 cg2d: Sum(rhs),rhsMax =  -7.08644494776794E+01  2.13074702908875E+00
(PID.TID 0000.0001)  ploadbar=  1.01145857574372E+05
 cg2d: Sum(rhs),rhsMax =  -7.08352269496370E+01  2.13197141102616E+00
(PID.TID 0000.0001)  ploadbar=  1.01145825814281E+05
 cg2d: Sum(rhs),rhsMax =  -7.08942497069050E+01  2.13053883948828E+00
(PID.TID 0000.0001)  ploadbar=  1.01145794054189E+05
 cg2d: Sum(rhs),rhsMax =  -7.10471120885484E+01  2.12629194860111E+00
(PID.TID 0000.0001)  ploadbar=  1.01145762294097E+05
 cg2d: Sum(rhs),rhsMax =  -7.12929560896927E+01  2.11929135422883E+00
(PID.TID 0000.0001)  ploadbar=  1.01145730534005E+05
 cg2d: Sum(rhs),rhsMax =  -7.15980759078847E+01  2.11055800260522E+00
(PID.TID 0000.0001)  ploadbar=  1.01145561120909E+05
 cg2d: Sum(rhs),rhsMax =  -7.19840806641384E+01  2.09950166634208E+00
(PID.TID 0000.0001)  ploadbar=  1.01145391707813E+05
 cg2d: Sum(rhs),rhsMax =  -7.25217914411813E+01  2.08415791611364E+00
(PID.TID 0000.0001)  ploadbar=  1.01145222294717E+05
 cg2d: Sum(rhs),rhsMax =  -7.31344857758973E+01  2.06688173063040E+00
(PID.TID 0000.0001)  ploadbar=  1.01145052881621E+05
 cg2d: Sum(rhs),rhsMax =  -7.37343674165329E+01  2.05021164824522E+00
(PID.TID 0000.0001)  ploadbar=  1.01144883468525E+05
 cg2d: Sum(rhs),rhsMax =  -7.43544720124982E+01  2.03321969366739E+00
(PID.TID 0000.0001)  ploadbar=  1.01144714055429E+05
 cg2d: Sum(rhs),rhsMax =  -7.49739972220245E+01  2.01656031710057E+00
(PID.TID 0000.0001)  ploadbar=  1.01144665561879E+05
 cg2d: Sum(rhs),rhsMax =  -7.55898098398932E+01  2.00030687414289E+00
(PID.TID 0000.0001)  ploadbar=  1.01144617068329E+05
 cg2d: Sum(rhs),rhsMax =  -7.61788064836946E+01  1.98504710674555E+00
(PID.TID 0000.0001)  ploadbar=  1.01144568574779E+05
 cg2d: Sum(rhs),rhsMax =  -7.67434275087803E+01  1.97067859536888E+00
(PID.TID 0000.0001)  ploadbar=  1.01144520081229E+05
 cg2d: Sum(rhs),rhsMax =  -7.72806612898081E+01  1.95724117955720E+00
(PID.TID 0000.0001)  ploadbar=  1.01144471587679E+05
 cg2d: Sum(rhs),rhsMax =  -7.77856653758509E+01  1.94481904547462E+00
(PID.TID 0000.0001)  ploadbar=  1.01144423094129E+05
 cg2d: Sum(rhs),rhsMax =  -7.82416953688949E+01  1.93376230972405E+00
(PID.TID 0000.0001)  ploadbar=  1.01145121478031E+05
 cg2d: Sum(rhs),rhsMax =  -7.86736102206574E+01  1.92342024614533E+00
(PID.TID 0000.0001)  ploadbar=  1.01145819861933E+05
 cg2d: Sum(rhs),rhsMax =  -7.90879297484025E+01  1.91361364586978E+00
(PID.TID 0000.0001)  ploadbar=  1.01146518245834E+05
 cg2d: Sum(rhs),rhsMax =  -7.94879079563352E+01  1.90424866786024E+00
(PID.TID 0000.0001)  ploadbar=  1.01147216629736E+05
 cg2d: Sum(rhs),rhsMax =  -7.98775939617192E+01  1.89521610846935E+00
(PID.TID 0000.0001)  ploadbar=  1.01147915013638E+05
 cg2d: Sum(rhs),rhsMax =  -8.02588809714402E+01  1.88646010029272E+00
(PID.TID 0000.0001)  ploadbar=  1.01148613397540E+05
 cg2d: Sum(rhs),rhsMax =  -8.06013284528813E+01  1.87868603562842E+00
(PID.TID 0000.0001)  ploadbar=  1.01148922860656E+05
 cg2d: Sum(rhs),rhsMax =  -8.09215652692381E+01  1.87148369855072E+00
(PID.TID 0000.0001)  ploadbar=  1.01149232323773E+05
 cg2d: Sum(rhs),rhsMax =  -8.12230142068905E+01  1.86476025555809E+00
(PID.TID 0000.0001)  ploadbar=  1.01149541786890E+05
 cg2d: Sum(rhs),rhsMax =  -8.14966772981917E+01  1.85870955912245E+00
(PID.TID 0000.0001)  ploadbar=  1.01149851250006E+05
 cg2d: Sum(rhs),rhsMax =  -8.17389917797119E+01  1.85339800569030E+00
(PID.TID 0000.0001)  ploadbar=  1.01150160713123E+05
 cg2d: Sum(rhs),rhsMax =  -8.19487806105323E+01  1.84883795119596E+00
(PID.TID 0000.0001)  ploadbar=  1.01150470176239E+05
 cg2d: Sum(rhs),rhsMax =  -8.21461554392402E+01  1.84455888746899E+00
(PID.TID 0000.0001)  ploadbar=  1.01150490389784E+05
 cg2d: Sum(rhs),rhsMax =  -8.23189696821498E+01  1.84082669751206E+00
(PID.TID 0000.0001)  ploadbar=  1.01150510603329E+05
 cg2d: Sum(rhs),rhsMax =  -8.24784829726184E+01  1.83738206881995E+00
(PID.TID 0000.0001)  ploadbar=  1.01150530816874E+05
 cg2d: Sum(rhs),rhsMax =  -8.26324570734164E+01  1.83404822144212E+00
(PID.TID 0000.0001)  ploadbar=  1.01150551030418E+05
 cg2d: Sum(rhs),rhsMax =  -8.27801220111628E+01  1.83083912446572E+00
(PID.TID 0000.0001)  ploadbar=  1.01150571243963E+05
 cg2d: Sum(rhs),rhsMax =  -8.29220444803294E+01  1.82774067324221E+00
(PID.TID 0000.0001)  ploadbar=  1.01150591457508E+05
 cg2d: Sum(rhs),rhsMax =  -8.30585565433317E+01  1.82482697451669E+00
(PID.TID 0000.0001)  ploadbar=  1.01149268762012E+05
 cg2d: Sum(rhs),rhsMax =  -8.31799185265896E+01  1.82230851918296E+00
(PID.TID 0000.0001)  ploadbar=  1.01147946066516E+05
 cg2d: Sum(rhs),rhsMax =  -8.33110810730285E+01  1.81963372611249E+00
(PID.TID 0000.0001)  ploadbar=  1.01146623371021E+05
 cg2d: Sum(rhs),rhsMax =  -8.34681488117856E+01  1.81645343197511E+00
(PID.TID 0000.0001)  ploadbar=  1.01145300675525E+05
 cg2d: Sum(rhs),rhsMax =  -8.36638290453839E+01  1.81249724811399E+00
(PID.TID 0000.0001)  ploadbar=  1.01143977980029E+05
 cg2d: Sum(rhs),rhsMax =  -8.39075490399452E+01  1.80756898099175E+00
(PID.TID 0000.0001)  ploadbar=  1.01142655284533E+05
 cg2d: Sum(rhs),rhsMax =  -8.41817620419434E+01  1.80199168126123E+00
(PID.TID 0000.0001)  ploadbar=  1.01142442587971E+05
 cg2d: Sum(rhs),rhsMax =  -8.44891906157536E+01  1.79571575664653E+00
(PID.TID 0000.0001)  ploadbar=  1.01142229891410E+05
 cg2d: Sum(rhs),rhsMax =  -8.48209279190378E+01  1.78894559100520E+00
(PID.TID 0000.0001)  ploadbar=  1.01142017194849E+05
 cg2d: Sum(rhs),rhsMax =  -8.51668920302354E+01  1.78190353777717E+00
(PID.TID 0000.0001)  ploadbar=  1.01141804498287E+05
 cg2d: Sum(rhs),rhsMax =  -8.55252938506116E+01  1.77463322861143E+00
(PID.TID 0000.0001)  ploadbar=  1.01141591801726E+05
 cg2d: Sum(rhs),rhsMax =  -8.58976299509573E+01  1.76710767278607E+00
(PID.TID 0000.0001)  ploadbar=  1.01141379105164E+05
 cg2d: Sum(rhs),rhsMax =  -8.62986484317744E+01  1.75906747357584E+00
(PID.TID 0000.0001)  ploadbar=  1.01141591447631E+05
 cg2d: Sum(rhs),rhsMax =  -8.67332093124657E+01  1.75043023929399E+00
(PID.TID 0000.0001)  ploadbar=  1.01141803790098E+05
 cg2d: Sum(rhs),rhsMax =  -8.72014707963766E+01  1.74121280564936E+00
(PID.TID 0000.0001)  ploadbar=  1.01142016132565E+05
 cg2d: Sum(rhs),rhsMax =  -8.77065330841202E+01  1.73137335860438E+00
(PID.TID 0000.0001)  ploadbar=  1.01142228475032E+05
 cg2d: Sum(rhs),rhsMax =  -8.82502940873403E+01  1.72089573485338E+00
(PID.TID 0000.0001)  ploadbar=  1.01142440817499E+05
 cg2d: Sum(rhs),rhsMax =  -8.88353841123670E+01  1.70975367688360E+00
(PID.TID 0000.0001)  ploadbar=  1.01142653159966E+05
 cg2d: Sum(rhs),rhsMax =  -8.94982218703944E+01  1.69726407321142E+00
(PID.TID 0000.0001)  ploadbar=  1.01141987421076E+05
 cg2d: Sum(rhs),rhsMax =  -9.02180195983715E+01  1.68387457043944E+00
(PID.TID 0000.0001)  ploadbar=  1.01141321682186E+05
 cg2d: Sum(rhs),rhsMax =  -9.09789497509856E+01  1.66991877834658E+00
(PID.TID 0000.0001)  ploadbar=  1.01140655943296E+05
 cg2d: Sum(rhs),rhsMax =  -9.17923119556602E+01  1.65522587670650E+00
(PID.TID 0000.0001)  ploadbar=  1.01139990204406E+05
 cg2d: Sum(rhs),rhsMax =  -9.26689372961146E+01  1.63964806076949E+00
(PID.TID 0000.0001)  ploadbar=  1.01139324465516E+05
 cg2d: Sum(rhs),rhsMax =  -9.36132170748306E+01  1.62316484317201E+00
(PID.TID 0000.0001)  ploadbar=  1.01138658726626E+05
 cg2d: Sum(rhs),rhsMax =  -9.47415498275602E+01  1.60395051849774E+00
(PID.TID 0000.0001)  ploadbar=  1.01138459479690E+05
 cg2d: Sum(rhs),rhsMax =  -9.62248571636374E+01  1.57939815841523E+00
(PID.TID 0000.0001)  ploadbar=  1.01138260232754E+05
 cg2d: Sum(rhs),rhsMax =  -9.81453613968026E+01  1.54871686752467E+00
(PID.TID 0000.0001)  ploadbar=  1.01138060985819E+05
 cg2d: Sum(rhs),rhsMax =  -1.00528272167776E+02  1.51227742157766E+00
(PID.TID 0000.0001)  ploadbar=  1.01137861738883E+05
 cg2d: Sum(rhs),rhsMax =  -1.03382360014813E+02  1.47083669722648E+00
(PID.TID 0000.0001)  ploadbar=  1.01137662491947E+05
 cg2d: Sum(rhs),rhsMax =  -1.06677064705408E+02  1.42575071966462E+00
(PID.TID 0000.0001)  ploadbar=  1.01137463245011E+05
 cg2d: Sum(rhs),rhsMax =  -1.09467265922915E+02  1.38972940698002E+00
(PID.TID 0000.0001)  ploadbar=  1.01136119218212E+05
 cg2d: Sum(rhs),rhsMax =  -1.08858895449899E+02  1.39780174090837E+00
(PID.TID 0000.0001)  ploadbar=  1.01134775191413E+05
 cg2d: Sum(rhs),rhsMax =  -1.08301457187754E+02  1.40528711455409E+00
(PID.TID 0000.0001)  ploadbar=  1.01133431164614E+05
 cg2d: Sum(rhs),rhsMax =  -1.07811013790045E+02  1.41195432180539E+00
(PID.TID 0000.0001)  ploadbar=  1.01132087137815E+05
 cg2d: Sum(rhs),rhsMax =  -1.07390792191998E+02  1.41773473079368E+00
(PID.TID 0000.0001)  ploadbar=  1.01130743111016E+05
 cg2d: Sum(rhs),rhsMax =  -1.07021687245749E+02  1.42286008512237E+00
(PID.TID 0000.0001)  ploadbar=  1.01129399084216E+05
 cg2d: Sum(rhs),rhsMax =  -1.06659864623215E+02  1.42791310825375E+00
(PID.TID 0000.0001)  ploadbar=  1.01128819848227E+05
 cg2d: Sum(rhs),rhsMax =  -1.06237471429797E+02  1.43380604107433E+00
(PID.TID 0000.0001)  ploadbar=  1.01128240612238E+05
 cg2d: Sum(rhs),rhsMax =  -1.05732517435517E+02  1.44085837532067E+00
(PID.TID 0000.0001)  ploadbar=  1.01127661376249E+05
 cg2d: Sum(rhs),rhsMax =  -1.05162732243323E+02  1.44885844040379E+00
(PID.TID 0000.0001)  ploadbar=  1.01127082140260E+05
 cg2d: Sum(rhs),rhsMax =  -1.04546353395152E+02  1.45758087843245E+00
(PID.TID 0000.0001)  ploadbar=  1.01126502904271E+05
 cg2d: Sum(rhs),rhsMax =  -1.03919258961601E+02  1.46654254351772E+00
(PID.TID 0000.0001)  ploadbar=  1.01125923668282E+05
 cg2d: Sum(rhs),rhsMax =  -1.03287645054175E+02  1.47566724466234E+00
(PID.TID 0000.0001)  ploadbar=  1.01125500023168E+05
 cg2d: Sum(rhs),rhsMax =  -1.02697870514494E+02  1.48428693060178E+00
(PID.TID 0000.0001)  ploadbar=  1.01125076378054E+05
 cg2d: Sum(rhs),rhsMax =  -1.02140807555426E+02  1.49251417868131E+00
(PID.TID 0000.0001)  ploadbar=  1.01124652732940E+05
 cg2d: Sum(rhs),rhsMax =  -1.01603903180636E+02  1.50051764341682E+00
(PID.TID 0000.0001)  ploadbar=  1.01124229087826E+05
 cg2d: Sum(rhs),rhsMax =  -1.01079412393911E+02  1.50840376452058E+00
(PID.TID 0000.0001)  ploadbar=  1.01123805442712E+05
 cg2d: Sum(rhs),rhsMax =  -1.00572172877224E+02  1.51609255952766E+00
(PID.TID 0000.0001)  ploadbar=  1.01123381797597E+05
 cg2d: Sum(rhs),rhsMax =  -1.00031786214103E+02  1.52440236984726E+00
(PID.TID 0000.0001)  ploadbar=  1.01122370209204E+05
 cg2d: Sum(rhs),rhsMax =  -9.94609944171636E+01  1.53330781700347E+00
(PID.TID 0000.0001)  ploadbar=  1.01121358620812E+05
 cg2d: Sum(rhs),rhsMax =  -9.88338171580863E+01  1.54323177220648E+00
(PID.TID 0000.0001)  ploadbar=  1.01120347032419E+05
 cg2d: Sum(rhs),rhsMax =  -9.81471049877157E+01  1.55426006316387E+00
(PID.TID 0000.0001)  ploadbar=  1.01119335444026E+05
 cg2d: Sum(rhs),rhsMax =  -9.74496692112930E+01  1.56565073874096E+00
(PID.TID 0000.0001)  ploadbar=  1.01118323855633E+05
 cg2d: Sum(rhs),rhsMax =  -9.67692804277545E+01  1.57695720714743E+00
(PID.TID 0000.0001)  ploadbar=  1.01117312267240E+05
 cg2d: Sum(rhs),rhsMax =  -9.61725447336853E+01  1.58705482110301E+00
(PID.TID 0000.0001)  ploadbar=  1.01116867832439E+05
 cg2d: Sum(rhs),rhsMax =  -9.56416773146030E+01  1.59619019970856E+00
(PID.TID 0000.0001)  ploadbar=  1.01116423397639E+05
 cg2d: Sum(rhs),rhsMax =  -9.51860016601390E+01  1.60416745185600E+00
(PID.TID 0000.0001)  ploadbar=  1.01115978962839E+05
 cg2d: Sum(rhs),rhsMax =  -9.48318818583454E+01  1.61050228362613E+00
(PID.TID 0000.0001)  ploadbar=  1.01115534528038E+05
 cg2d: Sum(rhs),rhsMax =  -9.45858021781272E+01  1.61504322481565E+00
(PID.TID 0000.0001)  ploadbar=  1.01115090093238E+05
 cg2d: Sum(rhs),rhsMax =  -9.44474907825305E+01  1.61776364290709E+00
(PID.TID 0000.0001)  ploadbar=  1.01114645658438E+05
 cg2d: Sum(rhs),rhsMax =  -9.43977575511934E+01  1.61897076825839E+00
(PID.TID 0000.0001)  ploadbar=  1.01115252584199E+05
 cg2d: Sum(rhs),rhsMax =  -9.44236292523709E+01  1.61887765775810E+00
(PID.TID 0000.0001)  ploadbar=  1.01115859509961E+05
 cg2d: Sum(rhs),rhsMax =  -9.44984748469405E+01  1.61793954817224E+00
(PID.TID 0000.0001)  ploadbar=  1.01116466435722E+05
 cg2d: Sum(rhs),rhsMax =  -9.45849075771377E+01  1.61679794356363E+00
(PID.TID 0000.0001)  ploadbar=  1.01117073361483E+05
 cg2d: Sum(rhs),rhsMax =  -9.46576460292603E+01  1.61588282083470E+00
(PID.TID 0000.0001)  ploadbar=  1.01117680287245E+05
 cg2d: Sum(rhs),rhsMax =  -9.47066987434132E+01  1.61536064701684E+00
(PID.TID 0000.0001)  ploadbar=  1.01118287213006E+05
 cg2d: Sum(rhs),rhsMax =  -9.47170622601234E+01  1.61547429080352E+00
(PID.TID 0000.0001)  ploadbar=  1.01119102772382E+05
 cg2d: Sum(rhs),rhsMax =  -9.46996817591656E+01  1.61603533970610E+00
(PID.TID 0000.0001)  ploadbar=  1.01119918331758E+05
 cg2d: Sum(rhs),rhsMax =  -9.46848163274010E+01  1.61652599410262E+00
(PID.TID 0000.0001)  ploadbar=  1.01120733891133E+05
 cg2d: Sum(rhs),rhsMax =  -9.46980062171172E+01  1.61650805226271E+00
(PID.TID 0000.0001)  ploadbar=  1.01121549450509E+05
 cg2d: Sum(rhs),rhsMax =  -9.47649459789343E+01  1.61554081617284E+00
(PID.TID 0000.0001)  ploadbar=  1.01122365009885E+05
 cg2d: Sum(rhs),rhsMax =  -9.48986703470118E+01  1.61340497547054E+00
(PID.TID 0000.0001)  ploadbar=  1.01123180569261E+05
 cg2d: Sum(rhs),rhsMax =  -9.51127673264815E+01  1.60994908264385E+00
(PID.TID 0000.0001)  ploadbar=  1.01122285011461E+05
 cg2d: Sum(rhs),rhsMax =  -9.53806215622092E+01  1.60563882309970E+00
(PID.TID 0000.0001)  ploadbar=  1.01121389453661E+05
 cg2d: Sum(rhs),rhsMax =  -9.56814101868942E+01  1.60083588108964E+00
(PID.TID 0000.0001)  ploadbar=  1.01120493895861E+05
 cg2d: Sum(rhs),rhsMax =  -9.59677735078550E+01  1.59633415176633E+00
(PID.TID 0000.0001)  ploadbar=  1.01119598338061E+05
 cg2d: Sum(rhs),rhsMax =  -9.62393372759221E+01  1.59213343964786E+00
(PID.TID 0000.0001)  ploadbar=  1.01118702780261E+05
 cg2d: Sum(rhs),rhsMax =  -9.65160808158551E+01  1.58789778447264E+00
(PID.TID 0000.0001)  ploadbar=  1.01117807222461E+05
 cg2d: Sum(rhs),rhsMax =  -9.67607794060313E+01  1.58420907080831E+00
(PID.TID 0000.0001)  ploadbar=  1.01118474142604E+05
 cg2d: Sum(rhs),rhsMax =  -9.69470868512328E+01  1.58148524564711E+00
(PID.TID 0000.0001)  ploadbar=  1.01119141062747E+05
 cg2d: Sum(rhs),rhsMax =  -9.70718891153135E+01  1.57976486187108E+00
(PID.TID 0000.0001)  ploadbar=  1.01119807982889E+05
 cg2d: Sum(rhs),rhsMax =  -9.71484864048829E+01  1.57882303681383E+00
(PID.TID 0000.0001)  ploadbar=  1.01120474903032E+05
 cg2d: Sum(rhs),rhsMax =  -9.71850326221769E+01  1.57852250484678E+00
(PID.TID 0000.0001)  ploadbar=  1.01121141823175E+05
 cg2d: Sum(rhs),rhsMax =  -9.71900829550167E+01  1.57872001118919E+00
(PID.TID 0000.0001)  ploadbar=  1.01121808743317E+05
 cg2d: Sum(rhs),rhsMax =  -9.71614223751087E+01  1.57948134707837E+00
(PID.TID 0000.0001)  ploadbar=  1.01122512149178E+05
 cg2d: Sum(rhs),rhsMax =  -9.70925389310160E+01  1.58091196121845E+00
(PID.TID 0000.0001)  ploadbar=  1.01123215555039E+05
 cg2d: Sum(rhs),rhsMax =  -9.69828071087883E+01  1.58302284963162E+00
(PID.TID 0000.0001)  ploadbar=  1.01123918960900E+05
 cg2d: Sum(rhs),rhsMax =  -9.68239336742076E+01  1.58595292247031E+00
(PID.TID 0000.0001)  ploadbar=  1.01124622366761E+05
 cg2d: Sum(rhs),rhsMax =  -9.66179401384095E+01  1.58967517249455E+00
(PID.TID 0000.0001)  ploadbar=  1.01125325772622E+05
 cg2d: Sum(rhs),rhsMax =  -9.63849123914076E+01  1.59386457466539E+00
(PID.TID 0000.0001)  ploadbar=  1.01126029178483E+05
 cg2d: Sum(rhs),rhsMax =  -9.61367661571186E+01  1.59831232882206E+00
(PID.TID 0000.0001)  ploadbar=  1.01126524636223E+05
 cg2d: Sum(rhs),rhsMax =  -9.58979644953292E+01  1.60261312659694E+00
(PID.TID 0000.0001)  ploadbar=  1.01127020093964E+05
 cg2d: Sum(rhs),rhsMax =  -9.56697355654424E+01  1.60674241846093E+00
(PID.TID 0000.0001)  ploadbar=  1.01127515551705E+05
 cg2d: Sum(rhs),rhsMax =  -9.54547285438219E+01  1.61065107834689E+00
(PID.TID 0000.0001)  ploadbar=  1.01128011009446E+05
 cg2d: Sum(rhs),rhsMax =  -9.52517435570330E+01  1.61435299064165E+00
(PID.TID 0000.0001)  ploadbar=  1.01128506467186E+05
 cg2d: Sum(rhs),rhsMax =  -9.50541361832495E+01  1.61795718713635E+00
(PID.TID 0000.0001)  ploadbar=  1.01129001924927E+05
 cg2d: Sum(rhs),rhsMax =  -9.48756299614856E+01  1.62129104624405E+00
(PID.TID 0000.0001)  ploadbar=  1.01129573714285E+05
 cg2d: Sum(rhs),rhsMax =  -9.47097485261729E+01  1.62446127091604E+00
(PID.TID 0000.0001)  ploadbar=  1.01130145503643E+05
 cg2d: Sum(rhs),rhsMax =  -9.45717167207283E+01  1.62719907964900E+00
(PID.TID 0000.0001)  ploadbar=  1.01130717293001E+05
 cg2d: Sum(rhs),rhsMax =  -9.44744366428087E+01  1.62927682622404E+00
(PID.TID 0000.0001)  ploadbar=  1.01131289082359E+05
 cg2d: Sum(rhs),rhsMax =  -9.44336875044449E+01  1.63041531550006E+00
(PID.TID 0000.0001)  ploadbar=  1.01131860871717E+05
 cg2d: Sum(rhs),rhsMax =  -9.44610035874177E+01  1.63041059721130E+00
(PID.TID 0000.0001)  ploadbar=  1.01132432661075E+05
 cg2d: Sum(rhs),rhsMax =  -9.45379607080815E+01  1.62954477054921E+00
(PID.TID 0000.0001)  ploadbar=  1.01133333122255E+05
 cg2d: Sum(rhs),rhsMax =  -9.47154757995324E+01  1.62694632785886E+00
(PID.TID 0000.0001)  ploadbar=  1.01134233583435E+05
 cg2d: Sum(rhs),rhsMax =  -9.49509355056663E+01  1.62336213734300E+00
(PID.TID 0000.0001)  ploadbar=  1.01135134044615E+05
 cg2d: Sum(rhs),rhsMax =  -9.51779676213027E+01  1.61993457386778E+00
(PID.TID 0000.0001)  ploadbar=  1.01136034505795E+05
 cg2d: Sum(rhs),rhsMax =  -9.54620740710322E+01  1.61555114494461E+00
(PID.TID 0000.0001)  ploadbar=  1.01136934966975E+05
 cg2d: Sum(rhs),rhsMax =  -9.58741910555491E+01  1.60903421636188E+00
(PID.TID 0000.0001)  ploadbar=  1.01137835428155E+05
 cg2d: Sum(rhs),rhsMax =  -9.63273706267239E+01  1.60190883583712E+00
(PID.TID 0000.0001)  ploadbar=  1.01139364066157E+05
 cg2d: Sum(rhs),rhsMax =  -9.67052943518480E+01  1.59610889249120E+00
(PID.TID 0000.0001)  ploadbar=  1.01140892704160E+05
 cg2d: Sum(rhs),rhsMax =  -9.69525208465405E+01  1.59251309868179E+00
(PID.TID 0000.0001)  ploadbar=  1.01142421342162E+05
 cg2d: Sum(rhs),rhsMax =  -9.71256033353699E+01  1.59016251982245E+00
(PID.TID 0000.0001)  ploadbar=  1.01143949980165E+05
 cg2d: Sum(rhs),rhsMax =  -9.72856507512280E+01  1.58804361211258E+00
(PID.TID 0000.0001)  ploadbar=  1.01145478618167E+05
 cg2d: Sum(rhs),rhsMax =  -9.74221912785664E+01  1.58632387949022E+00
(PID.TID 0000.0001)  ploadbar=  1.01147007256170E+05
 cg2d: Sum(rhs),rhsMax =  -9.76937384263948E+01  1.58237788267399E+00
(PID.TID 0000.0001)  ploadbar=  1.01148400083483E+05
 cg2d: Sum(rhs),rhsMax =  -9.80681914609335E+01  1.57675852180037E+00
(PID.TID 0000.0001)  ploadbar=  1.01149792910796E+05
 cg2d: Sum(rhs),rhsMax =  -9.85623567251764E+01  1.56923285709836E+00
(PID.TID 0000.0001)  ploadbar=  1.01151185738108E+05
 cg2d: Sum(rhs),rhsMax =  -9.93384214251176E+01  1.55731010424657E+00
(PID.TID 0000.0001)  ploadbar=  1.01152578565421E+05
 cg2d: Sum(rhs),rhsMax =  -1.00521519373373E+02  1.53927469816425E+00
(PID.TID 0000.0001)  ploadbar=  1.01153971392734E+05
 cg2d: Sum(rhs),rhsMax =  -1.02119767945153E+02  1.51543356286582E+00
(PID.TID 0000.0001)  ploadbar=  1.01155364220047E+05
 cg2d: Sum(rhs),rhsMax =  -1.04022453298368E+02  1.48796545229302E+00
(PID.TID 0000.0001)  ploadbar=  1.01157482078909E+05
 cg2d: Sum(rhs),rhsMax =  -1.06121073599225E+02  1.45879417579604E+00
(PID.TID 0000.0001)  ploadbar=  1.01159599937771E+05
 cg2d: Sum(rhs),rhsMax =  -1.08227648267616E+02  1.43065689964556E+00
(PID.TID 0000.0001)  ploadbar=  1.01161717796633E+05
 cg2d: Sum(rhs),rhsMax =  -1.10121528075448E+02  1.40631067523726E+00
(PID.TID 0000.0001)  ploadbar=  1.01163835655494E+05
 cg2d: Sum(rhs),rhsMax =  -1.11865334917944E+02  1.38464280052908E+00
(PID.TID 0000.0001)  ploadbar=  1.01165953514356E+05
 cg2d: Sum(rhs),rhsMax =  -1.13613377266584E+02  1.36358549303940E+00
(PID.TID 0000.0001)  ploadbar=  1.01168071373218E+05
 cg2d: Sum(rhs),rhsMax =  -1.15238066102023E+02  1.34460683184961E+00
(PID.TID 0000.0001)  ploadbar=  1.01168555805609E+05
 cg2d: Sum(rhs),rhsMax =  -1.16940732141134E+02  1.32527327959545E+00
(PID.TID 0000.0001)  ploadbar=  1.01169040237999E+05
 cg2d: Sum(rhs),rhsMax =  -1.18759114323527E+02  1.30522116193171E+00
(PID.TID 0000.0001)  ploadbar=  1.01169524670390E+05
 cg2d: Sum(rhs),rhsMax =  -1.20670756159554E+02  1.28477608933500E+00
(PID.TID 0000.0001)  ploadbar=  1.01170009102780E+05
 cg2d: Sum(rhs),rhsMax =  -1.22610900959412E+02  1.26466635861130E+00
(PID.TID 0000.0001)  ploadbar=  1.01170493535171E+05
 cg2d: Sum(rhs),rhsMax =  -1.24466111435982E+02  1.24602042039780E+00
(PID.TID 0000.0001)  ploadbar=  1.01170977967561E+05
 cg2d: Sum(rhs),rhsMax =  -1.26236670482411E+02  1.22874763788178E+00
(PID.TID 0000.0001)  ploadbar=  1.01170232264069E+05
 cg2d: Sum(rhs),rhsMax =  -1.28176967985951E+02  1.21034576038880E+00
(PID.TID 0000.0001)  ploadbar=  1.01169486560577E+05
 cg2d: Sum(rhs),rhsMax =  -1.29918831428776E+02  1.19430699916049E+00
(PID.TID 0000.0001)  ploadbar=  1.01168740857086E+05
 cg2d: Sum(rhs),rhsMax =  -1.31148425596392E+02  1.18328692674993E+00
(PID.TID 0000.0001)  ploadbar=  1.01167995153594E+05
 cg2d: Sum(rhs),rhsMax =  -1.32485392553734E+02  1.17150917390532E+00
(PID.TID 0000.0001)  ploadbar=  1.01167249450102E+05
 cg2d: Sum(rhs),rhsMax =  -1.33830150960035E+02  1.15988504230695E+00
(PID.TID 0000.0001)  ploadbar=  1.01166503746610E+05
 cg2d: Sum(rhs),rhsMax =  -1.35107329052574E+02  1.14904480295648E+00
(PID.TID 0000.0001)  ploadbar=  1.01165742249217E+05
 cg2d: Sum(rhs),rhsMax =  -1.32427815894192E+02  1.17239635934086E+00
(PID.TID 0000.0001)  ploadbar=  1.01164980751824E+05
 cg2d: Sum(rhs),rhsMax =  -1.27362777564754E+02  1.21909906120656E+00
(PID.TID 0000.0001)  ploadbar=  1.01164219254431E+05
 cg2d: Sum(rhs),rhsMax =  -1.23109261089668E+02  1.26127093466456E+00
(PID.TID 0000.0001)  ploadbar=  1.01163457757038E+05
 cg2d: Sum(rhs),rhsMax =  -1.19591229379863E+02  1.29839560823499E+00
(PID.TID 0000.0001)  ploadbar=  1.01162696259645E+05
 cg2d: Sum(rhs),rhsMax =  -1.16660388815653E+02  1.33100393323463E+00
(PID.TID 0000.0001)  ploadbar=  1.01161934762253E+05
 cg2d: Sum(rhs),rhsMax =  -1.14142000145956E+02  1.36039302136512E+00
(PID.TID 0000.0001)  ploadbar=  1.01162567495822E+05
 cg2d: Sum(rhs),rhsMax =  -1.11915004525268E+02  1.38751852536682E+00
(PID.TID 0000.0001)  ploadbar=  1.01163200229392E+05
 cg2d: Sum(rhs),rhsMax =  -1.09898257776138E+02  1.41306608422969E+00
(PID.TID 0000.0001)  ploadbar=  1.01163832962962E+05
 cg2d: Sum(rhs),rhsMax =  -1.08056348003415E+02  1.43726623997685E+00
(PID.TID 0000.0001)  ploadbar=  1.01164465696531E+05
 cg2d: Sum(rhs),rhsMax =  -1.06404840255891E+02  1.45971187623411E+00
(PID.TID 0000.0001)  ploadbar=  1.01165098430101E+05
 cg2d: Sum(rhs),rhsMax =  -1.05001702974294E+02  1.47937615170364E+00
(PID.TID 0000.0001)  ploadbar=  1.01165731163671E+05
 cg2d: Sum(rhs),rhsMax =  -1.03956915427820E+02  1.49440278270332E+00
(PID.TID 0000.0001)  ploadbar=  1.01165676707698E+05
 cg2d: Sum(rhs),rhsMax =  -1.03302272670941E+02  1.50402884939556E+00
(PID.TID 0000.0001)  ploadbar=  1.01165622251725E+05
 cg2d: Sum(rhs),rhsMax =  -1.02964057050105E+02  1.50911979460310E+00
(PID.TID 0000.0001)  ploadbar=  1.01165567795751E+05
 cg2d: Sum(rhs),rhsMax =  -1.02778360267302E+02  1.51198661715339E+00
(PID.TID 0000.0001)  ploadbar=  1.01165513339778E+05
 cg2d: Sum(rhs),rhsMax =  -1.02611256695848E+02  1.51457446044327E+00
(PID.TID 0000.0001)  ploadbar=  1.01165458883805E+05
 cg2d: Sum(rhs),rhsMax =  -1.02406855010835E+02  1.51770359628483E+00
(PID.TID 0000.0001)  ploadbar=  1.01165404427832E+05
 cg2d: Sum(rhs),rhsMax =  -1.02109331658636E+02  1.52220935985257E+00
(PID.TID 0000.0001)  ploadbar=  1.01165800804172E+05
 cg2d: Sum(rhs),rhsMax =  -1.01769724086913E+02  1.52734644152523E+00
(PID.TID 0000.0001)  ploadbar=  1.01166197180513E+05
 cg2d: Sum(rhs),rhsMax =  -1.01468325220297E+02  1.53191086859214E+00
(PID.TID 0000.0001)  ploadbar=  1.01166593556854E+05
 cg2d: Sum(rhs),rhsMax =  -1.01267114004355E+02  1.53494894337664E+00
(PID.TID 0000.0001)  ploadbar=  1.01166989933194E+05
 cg2d: Sum(rhs),rhsMax =  -1.01196839581635E+02  1.53597143580568E+00
(PID.TID 0000.0001)  ploadbar=  1.01167386309535E+05
 cg2d: Sum(rhs),rhsMax =  -1.01272533149739E+02  1.53473961147409E+00
(PID.TID 0000.0001)  ploadbar=  1.01167782685876E+05
 cg2d: Sum(rhs),rhsMax =  -1.01466178454982E+02  1.53169320379843E+00
(PID.TID 0000.0001)  ploadbar=  1.01168027412818E+05
 cg2d: Sum(rhs),rhsMax =  -1.01755382905109E+02  1.52718654134812E+00
(PID.TID 0000.0001)  ploadbar=  1.01168272139760E+05
 cg2d: Sum(rhs),rhsMax =  -1.00364400580737E+02  1.54815813995429E+00
(PID.TID 0000.0001)  ploadbar=  1.01168516866702E+05
 cg2d: Sum(rhs),rhsMax =  -9.89656972280712E+01  1.56980046315708E+00
(PID.TID 0000.0001)  ploadbar=  1.01168761593644E+05
 cg2d: Sum(rhs),rhsMax =  -9.77742506900607E+01  1.58864480495263E+00
(PID.TID 0000.0001)  ploadbar=  1.01169006320586E+05
 cg2d: Sum(rhs),rhsMax =  -9.66574078923552E+01  1.60666711439638E+00
(PID.TID 0000.0001)  ploadbar=  1.01169251047528E+05
 cg2d: Sum(rhs),rhsMax =  -9.54745876498212E+01  1.62627902395419E+00
(PID.TID 0000.0001)  ploadbar=  1.01168905842618E+05
 cg2d: Sum(rhs),rhsMax =  -9.41452319074690E+01  1.64898848884886E+00
(PID.TID 0000.0001)  ploadbar=  1.01168560637708E+05
 cg2d: Sum(rhs),rhsMax =  -9.26506441287863E+01  1.67537119103012E+00
(PID.TID 0000.0001)  ploadbar=  1.01168215432798E+05
 cg2d: Sum(rhs),rhsMax =  -9.10444065220036E+01  1.70474529282951E+00
(PID.TID 0000.0001)  ploadbar=  1.01167870227888E+05
 cg2d: Sum(rhs),rhsMax =  -8.93832418920154E+01  1.73627337498084E+00
(PID.TID 0000.0001)  ploadbar=  1.01167525022978E+05
 cg2d: Sum(rhs),rhsMax =  -8.77193815600943E+01  1.76907690327582E+00
(PID.TID 0000.0001)  ploadbar=  1.01167179818068E+05
 cg2d: Sum(rhs),rhsMax =  -8.61688692606088E+01  1.80079160616809E+00
(PID.TID 0000.0001)  ploadbar=  1.01168518806873E+05
 cg2d: Sum(rhs),rhsMax =  -8.47935486902016E+01  1.82989253289184E+00
(PID.TID 0000.0001)  ploadbar=  1.01169857795678E+05
 cg2d: Sum(rhs),rhsMax =  -8.35998124569796E+01  1.85591896134392E+00
(PID.TID 0000.0001)  ploadbar=  1.01171196784484E+05
 cg2d: Sum(rhs),rhsMax =  -8.25436760173364E+01  1.87956200388384E+00
(PID.TID 0000.0001)  ploadbar=  1.01172535773289E+05
 cg2d: Sum(rhs),rhsMax =  -8.15647877272051E+01  1.90201058369459E+00
(PID.TID 0000.0001)  ploadbar=  1.01173874762094E+05
 cg2d: Sum(rhs),rhsMax =  -8.06230270021839E+01  1.92410736199373E+00
(PID.TID 0000.0001)  ploadbar=  1.01175213750899E+05
 cg2d: Sum(rhs),rhsMax =  -7.97391864779759E+01  1.94534175490994E+00
(PID.TID 0000.0001)  ploadbar=  1.01176143335039E+05
 cg2d: Sum(rhs),rhsMax =  -7.89483550495028E+01  1.96475911895813E+00
(PID.TID 0000.0001)  ploadbar=  1.01177072919179E+05
 cg2d: Sum(rhs),rhsMax =  -7.82965863490907E+01  1.98106211297649E+00
(PID.TID 0000.0001)  ploadbar=  1.01178002503319E+05
 cg2d: Sum(rhs),rhsMax =  -7.77877174996020E+01  1.99397887682024E+00
(PID.TID 0000.0001)  ploadbar=  1.01178932087458E+05
 cg2d: Sum(rhs),rhsMax =  -7.74109226425701E+01  2.00364516286799E+00
(PID.TID 0000.0001)  ploadbar=  1.01179861671598E+05
 cg2d: Sum(rhs),rhsMax =  -7.71735228567285E+01  2.00976394093573E+00
(PID.TID 0000.0001)  ploadbar=  1.01180791255738E+05
 cg2d: Sum(rhs),rhsMax =  -7.70926564151448E+01  2.01180759290226E+00
(PID.TID 0000.0001)  ploadbar=  1.01181729305013E+05
 cg2d: Sum(rhs),rhsMax =  -7.71768311909430E+01  2.00952513896370E+00
(PID.TID 0000.0001)  ploadbar=  1.01182667354287E+05
 cg2d: Sum(rhs),rhsMax =  -7.73841283383885E+01  2.00402743713780E+00
(PID.TID 0000.0001)  ploadbar=  1.01183605403562E+05
 cg2d: Sum(rhs),rhsMax =  -7.77363098537609E+01  1.99480290044882E+00
(PID.TID 0000.0001)  ploadbar=  1.01184543452837E+05
 cg2d: Sum(rhs),rhsMax =  -7.80660373856014E+01  1.98619531595440E+00
(PID.TID 0000.0001)  ploadbar=  1.01185481502111E+05
 cg2d: Sum(rhs),rhsMax =  -7.83550252769093E+01  1.97864688380344E+00
(PID.TID 0000.0001)  ploadbar=  1.01186419551386E+05
 cg2d: Sum(rhs),rhsMax =  -7.86312280929381E+01  1.97153113786414E+00
(PID.TID 0000.0001)  ploadbar=  1.01186481377537E+05
 cg2d: Sum(rhs),rhsMax =  -7.88659160077400E+01  1.96555334926533E+00
(PID.TID 0000.0001)  ploadbar=  1.01186543203688E+05
 cg2d: Sum(rhs),rhsMax =  -7.90610680571709E+01  1.96063931878548E+00
(PID.TID 0000.0001)  ploadbar=  1.01186605029839E+05
 cg2d: Sum(rhs),rhsMax =  -7.92341069347358E+01  1.95633815005647E+00
(PID.TID 0000.0001)  ploadbar=  1.01186666855990E+05
 cg2d: Sum(rhs),rhsMax =  -7.94034487507534E+01  1.95218226657096E+00
(PID.TID 0000.0001)  ploadbar=  1.01186728682141E+05
 cg2d: Sum(rhs),rhsMax =  -7.95852030182398E+01  1.94777003898842E+00
(PID.TID 0000.0001)  ploadbar=  1.01186790508292E+05
 cg2d: Sum(rhs),rhsMax =  -7.98011586340105E+01  1.94251376202716E+00
(PID.TID 0000.0001)  ploadbar=  1.01187572484857E+05
 cg2d: Sum(rhs),rhsMax =  -8.00616366023658E+01  1.93617710570378E+00
(PID.TID 0000.0001)  ploadbar=  1.01188354461421E+05
 cg2d: Sum(rhs),rhsMax =  -8.03645342918473E+01  1.92882610680491E+00
(PID.TID 0000.0001)  ploadbar=  1.01189136437985E+05
 cg2d: Sum(rhs),rhsMax =  -8.06969591745286E+01  1.92078653044668E+00
(PID.TID 0000.0001)  ploadbar=  1.01189918414549E+05
 cg2d: Sum(rhs),rhsMax =  -8.10347535354678E+01  1.91264115307650E+00
(PID.TID 0000.0001)  ploadbar=  1.01190700391114E+05
 cg2d: Sum(rhs),rhsMax =  -8.13790157786037E+01  1.90436168513913E+00
(PID.TID 0000.0001)  ploadbar=  1.01191482367678E+05
 cg2d: Sum(rhs),rhsMax =  -8.17362951156598E+01  1.89585419567807E+00
(PID.TID 0000.0001)  ploadbar=  1.01191512919352E+05
 cg2d: Sum(rhs),rhsMax =  -8.21102984721943E+01  1.88703886626586E+00
(PID.TID 0000.0001)  ploadbar=  1.01191543471026E+05
 cg2d: Sum(rhs),rhsMax =  -8.25073308667595E+01  1.87777919638421E+00
(PID.TID 0000.0001)  ploadbar=  1.01191574022700E+05
 cg2d: Sum(rhs),rhsMax =  -8.29335848747689E+01  1.86794625394760E+00
(PID.TID 0000.0001)  ploadbar=  1.01191604574374E+05
 cg2d: Sum(rhs),rhsMax =  -8.33921370297433E+01  1.85748577492769E+00
(PID.TID 0000.0001)  ploadbar=  1.01191635126048E+05
 cg2d: Sum(rhs),rhsMax =  -8.38833326390131E+01  1.84640791520503E+00
(PID.TID 0000.0001)  ploadbar=  1.01191665677722E+05
 cg2d: Sum(rhs),rhsMax =  -8.44334315408342E+01  1.83417345075454E+00
(PID.TID 0000.0001)  ploadbar=  1.01192301557463E+05
 cg2d: Sum(rhs),rhsMax =  -8.50133824388479E+01  1.82145156278511E+00
(PID.TID 0000.0001)  ploadbar=  1.01192937437204E+05
 cg2d: Sum(rhs),rhsMax =  -8.56120898880288E+01  1.80849707949317E+00
(PID.TID 0000.0001)  ploadbar=  1.01193573316945E+05
 cg2d: Sum(rhs),rhsMax =  -8.62170862640059E+01  1.79558001059692E+00
(PID.TID 0000.0001)  ploadbar=  1.01194209196686E+05
 cg2d: Sum(rhs),rhsMax =  -8.68117756987111E+01  1.78304160092852E+00
(PID.TID 0000.0001)  ploadbar=  1.01194845076427E+05
 cg2d: Sum(rhs),rhsMax =  -8.73833346617299E+01  1.77112636182970E+00
(PID.TID 0000.0001)  ploadbar=  1.01195480956168E+05
 cg2d: Sum(rhs),rhsMax =  -8.79289541783889E+01  1.75993327356975E+00
(PID.TID 0000.0001)  ploadbar=  1.01196952637147E+05
 cg2d: Sum(rhs),rhsMax =  -8.84167963827631E+01  1.75006698406508E+00
(PID.TID 0000.0001)  ploadbar=  1.01198424318126E+05
 cg2d: Sum(rhs),rhsMax =  -8.88505320894875E+01  1.74141032281582E+00
(PID.TID 0000.0001)  ploadbar=  1.01199895999105E+05
 cg2d: Sum(rhs),rhsMax =  -8.92379250346285E+01  1.73377538647109E+00
(PID.TID 0000.0001)  ploadbar=  1.01201367680084E+05
 cg2d: Sum(rhs),rhsMax =  -8.95966272049111E+01  1.72679415782858E+00
(PID.TID 0000.0001)  ploadbar=  1.01202839361063E+05
 cg2d: Sum(rhs),rhsMax =  -8.90287556669721E+01  1.73779911157419E+00
(PID.TID 0000.0001)  ploadbar=  1.01204311042042E+05
 cg2d: Sum(rhs),rhsMax =  -8.86693323529304E+01  1.74482752596776E+00
(PID.TID 0000.0001)  ploadbar=  1.01204238641180E+05
 cg2d: Sum(rhs),rhsMax =  -8.85434916350158E+01  1.74728374965744E+00
(PID.TID 0000.0001)  ploadbar=  1.01204166240319E+05
 cg2d: Sum(rhs),rhsMax =  -8.85628122263135E+01  1.74686766365429E+00
(PID.TID 0000.0001)  ploadbar=  1.01204093839457E+05
 cg2d: Sum(rhs),rhsMax =  -8.86520175393749E+01  1.74506065765066E+00
(PID.TID 0000.0001)  ploadbar=  1.01204021438595E+05
 cg2d: Sum(rhs),rhsMax =  -8.87570428989416E+01  1.74292858624604E+00
(PID.TID 0000.0001)  ploadbar=  1.01203949037734E+05
 cg2d: Sum(rhs),rhsMax =  -8.88503443816278E+01  1.74100911006544E+00
(PID.TID 0000.0001)  ploadbar=  1.01203876636872E+05
 cg2d: Sum(rhs),rhsMax =  -8.89088133449157E+01  1.73978364843143E+00
(PID.TID 0000.0001)  ploadbar=  1.01204406680635E+05
 cg2d: Sum(rhs),rhsMax =  -8.89592568896093E+01  1.73872384619098E+00
(PID.TID 0000.0001)  ploadbar=  1.01204936724397E+05
 cg2d: Sum(rhs),rhsMax =  -8.90482313194513E+01  1.73691779316476E+00
(PID.TID 0000.0001)  ploadbar=  1.01205466768160E+05
 cg2d: Sum(rhs),rhsMax =  -8.92095952450417E+01  1.73371065432623E+00
(PID.TID 0000.0001)  ploadbar=  1.01205996811922E+05
 cg2d: Sum(rhs),rhsMax =  -8.94666573292197E+01  1.72866285442161E+00
(PID.TID 0000.0001)  ploadbar=  1.01206526855685E+05
 cg2d: Sum(rhs),rhsMax =  -8.98212613887788E+01  1.72176561506009E+00
(PID.TID 0000.0001)  ploadbar=  1.01207056899447E+05
 cg2d: Sum(rhs),rhsMax =  -9.01154379245062E+01  1.71603661907153E+00
(PID.TID 0000.0001)  ploadbar=  1.01206941238241E+05
 cg2d: Sum(rhs),rhsMax =  -8.99302816987475E+01  1.71942320361901E+00
(PID.TID 0000.0001)  ploadbar=  1.01206825577034E+05
 cg2d: Sum(rhs),rhsMax =  -9.00531058092210E+01  1.71689202051168E+00
(PID.TID 0000.0001)  ploadbar=  1.01206709915828E+05
 cg2d: Sum(rhs),rhsMax =  -9.05324853100628E+01  1.70757662485168E+00
(PID.TID 0000.0001)  ploadbar=  1.01206594254621E+05
 cg2d: Sum(rhs),rhsMax =  -9.13119196894074E+01  1.69273935653036E+00
(PID.TID 0000.0001)  ploadbar=  1.01206478593415E+05
 cg2d: Sum(rhs),rhsMax =  -9.22881381498867E+01  1.67453389919878E+00
(PID.TID 0000.0001)  ploadbar=  1.01206362932209E+05
 cg2d: Sum(rhs),rhsMax =  -9.33101227261778E+01  1.65596122119760E+00
(PID.TID 0000.0001)  ploadbar=  1.01206233291942E+05
 cg2d: Sum(rhs),rhsMax =  -9.43481479768009E+01  1.63757326711656E+00
(PID.TID 0000.0001)  ploadbar=  1.01206103651676E+05
 cg2d: Sum(rhs),rhsMax =  -9.53376078336461E+01  1.62046558315413E+00
(PID.TID 0000.0001)  ploadbar=  1.01205974011410E+05
 cg2d: Sum(rhs),rhsMax =  -9.57391388690559E+01  1.61361076863417E+00
(PID.TID 0000.0001)  ploadbar=  1.01205844371143E+05
 cg2d: Sum(rhs),rhsMax =  -9.60287550861038E+01  1.60873362262117E+00
(PID.TID 0000.0001)  ploadbar=  1.01205714730877E+05
 cg2d: Sum(rhs),rhsMax =  -9.62196786981746E+01  1.60557419664474E+00
(PID.TID 0000.0001)  ploadbar=  1.01205585090611E+05
 cg2d: Sum(rhs),rhsMax =  -9.63024639533036E+01  1.60420852784143E+00
(PID.TID 0000.0001)  ploadbar=  1.01205013698394E+05
 cg2d: Sum(rhs),rhsMax =  -9.62905709622959E+01  1.60440121496364E+00
(PID.TID 0000.0001)  ploadbar=  1.01204442306178E+05
 cg2d: Sum(rhs),rhsMax =  -9.62127316834577E+01  1.60567119601991E+00
(PID.TID 0000.0001)  ploadbar=  1.01203870913961E+05
 cg2d: Sum(rhs),rhsMax =  -9.61068190975631E+01  1.60738984148849E+00
(PID.TID 0000.0001)  ploadbar=  1.01203299521745E+05
 cg2d: Sum(rhs),rhsMax =  -9.60105199276331E+01  1.60892571639290E+00
(PID.TID 0000.0001)  ploadbar=  1.01202728129529E+05
 cg2d: Sum(rhs),rhsMax =  -9.59654021362880E+01  1.60957569471623E+00
(PID.TID 0000.0001)  ploadbar=  1.01202156737312E+05
 cg2d: Sum(rhs),rhsMax =  -9.59853521089260E+01  1.60913749327454E+00
(PID.TID 0000.0001)  ploadbar=  1.01200652132872E+05
 cg2d: Sum(rhs),rhsMax =  -9.60673199004629E+01  1.60766041411704E+00
(PID.TID 0000.0001)  ploadbar=  1.01199147528431E+05
 cg2d: Sum(rhs),rhsMax =  -9.62133040252245E+01  1.60511341726550E+00
(PID.TID 0000.0001)  ploadbar=  1.01197642923991E+05
 cg2d: Sum(rhs),rhsMax =  -9.64243624346037E+01  1.60148452827496E+00
(PID.TID 0000.0001)  ploadbar=  1.01196138319550E+05
 cg2d: Sum(rhs),rhsMax =  -9.67010342719614E+01  1.59677686695565E+00
(PID.TID 0000.0001)  ploadbar=  1.01194633715109E+05
 cg2d: Sum(rhs),rhsMax =  -9.70345691525455E+01  1.59114691115577E+00
(PID.TID 0000.0001)  ploadbar=  1.01193129110669E+05
 cg2d: Sum(rhs),rhsMax =  -9.74019809047398E+01  1.58500998724688E+00
(PID.TID 0000.0001)  ploadbar=  1.01191482327677E+05
 cg2d: Sum(rhs),rhsMax =  -9.75683520956991E+01  1.58217579439506E+00
(PID.TID 0000.0001)  ploadbar=  1.01189835544685E+05
 cg2d: Sum(rhs),rhsMax =  -9.74666803705625E+01  1.58369891417982E+00
(PID.TID 0000.0001)  ploadbar=  1.01188188761693E+05
 cg2d: Sum(rhs),rhsMax =  -9.75196622079915E+01  1.58271589045482E+00
(PID.TID 0000.0001)  ploadbar=  1.01186541978701E+05
 cg2d: Sum(rhs),rhsMax =  -9.76575088351790E+01  1.58036392034451E+00
(PID.TID 0000.0001)  ploadbar=  1.01184895195710E+05
 cg2d: Sum(rhs),rhsMax =  -9.78147386061346E+01  1.57770883082957E+00
(PID.TID 0000.0001)  ploadbar=  1.01183248412718E+05
 cg2d: Sum(rhs),rhsMax =  -9.78233069632943E+01  1.57750655750862E+00
(PID.TID 0000.0001)  ploadbar=  1.01182072498622E+05
 cg2d: Sum(rhs),rhsMax =  -9.61439279633342E+01  1.60504552974004E+00
(PID.TID 0000.0001)  ploadbar=  1.01180896584526E+05
 cg2d: Sum(rhs),rhsMax =  -9.44280149914114E+01  1.63424530124942E+00
(PID.TID 0000.0001)  ploadbar=  1.01179720670430E+05
 cg2d: Sum(rhs),rhsMax =  -9.27450509595680E+01  1.66398159455506E+00
(PID.TID 0000.0001)  ploadbar=  1.01178544756335E+05
 cg2d: Sum(rhs),rhsMax =  -9.11689757888695E+01  1.69287374729152E+00
(PID.TID 0000.0001)  ploadbar=  1.01177368842239E+05
 cg2d: Sum(rhs),rhsMax =  -8.97538414916335E+01  1.71973400203122E+00
(PID.TID 0000.0001)  ploadbar=  1.01176192928143E+05
 cg2d: Sum(rhs),rhsMax =  -8.85302559247879E+01  1.74368546232899E+00
(PID.TID 0000.0001)  ploadbar=  1.01175351630069E+05
 cg2d: Sum(rhs),rhsMax =  -8.75141225811722E+01  1.76412616801578E+00
(PID.TID 0000.0001)  ploadbar=  1.01174510331994E+05
 cg2d: Sum(rhs),rhsMax =  -8.66462037054097E+01  1.78200133652115E+00
(PID.TID 0000.0001)  ploadbar=  1.01173669033920E+05
 cg2d: Sum(rhs),rhsMax =  -8.58653016995510E+01  1.79842111392388E+00
(PID.TID 0000.0001)  ploadbar=  1.01172827735845E+05
 cg2d: Sum(rhs),rhsMax =  -8.51259629436607E+01  1.81426276660345E+00
(PID.TID 0000.0001)  ploadbar=  1.01171986437771E+05
 cg2d: Sum(rhs),rhsMax =  -8.43822013152473E+01  1.83048311839224E+00
(PID.TID 0000.0001)  ploadbar=  1.01171145139696E+05
 cg2d: Sum(rhs),rhsMax =  -8.36410482806423E+01  1.84692532234340E+00
(PID.TID 0000.0001)  ploadbar=  1.01169549095544E+05
 cg2d: Sum(rhs),rhsMax =  -8.29329547688700E+01  1.86290814027365E+00
(PID.TID 0000.0001)  ploadbar=  1.01167953051392E+05
 cg2d: Sum(rhs),rhsMax =  -8.22603805332566E+01  1.87834225874166E+00
(PID.TID 0000.0001)  ploadbar=  1.01166357007240E+05
 cg2d: Sum(rhs),rhsMax =  -8.16304556462435E+01  1.89302521329692E+00
(PID.TID 0000.0001)  ploadbar=  1.01164760963088E+05
 cg2d: Sum(rhs),rhsMax =  -8.10532571080950E+01  1.90667621772067E+00
(PID.TID 0000.0001)  ploadbar=  1.01163164918936E+05
 cg2d: Sum(rhs),rhsMax =  -8.05420920163647E+01  1.91892565537114E+00
(PID.TID 0000.0001)  ploadbar=  1.01161568874784E+05
 cg2d: Sum(rhs),rhsMax =  -8.01039256556821E+01  1.92955910215006E+00
(PID.TID 0000.0001)  ploadbar=  1.01161575649684E+05
 cg2d: Sum(rhs),rhsMax =  -7.97354077714895E+01  1.93860215125234E+00
(PID.TID 0000.0001)  ploadbar=  1.01161582424583E+05
 cg2d: Sum(rhs),rhsMax =  -7.94180268116652E+01  1.94646012282235E+00
(PID.TID 0000.0001)  ploadbar=  1.01161589199483E+05
 cg2d: Sum(rhs),rhsMax =  -7.91350840748291E+01  1.95351509998858E+00
(PID.TID 0000.0001)  ploadbar=  1.01161595974383E+05
 cg2d: Sum(rhs),rhsMax =  -7.88683033642349E+01  1.96020114661152E+00
(PID.TID 0000.0001)  ploadbar=  1.01161602749283E+05
 cg2d: Sum(rhs),rhsMax =  -7.86050287080690E+01  1.96682204231436E+00
(PID.TID 0000.0001)  ploadbar=  1.01161609524183E+05
 cg2d: Sum(rhs),rhsMax =  -7.82680079903538E+01  1.97538873965101E+00
(PID.TID 0000.0001)  ploadbar=  1.01163097249859E+05
 cg2d: Sum(rhs),rhsMax =  -7.78764943396626E+01  1.98545894842564E+00
(PID.TID 0000.0001)  ploadbar=  1.01164584975535E+05
 cg2d: Sum(rhs),rhsMax =  -7.74386416472507E+01  1.99686587481737E+00
(PID.TID 0000.0001)  ploadbar=  1.01166072701211E+05
 cg2d: Sum(rhs),rhsMax =  -7.69721350185073E+01  2.00918577200605E+00
(PID.TID 0000.0001)  ploadbar=  1.01167560426888E+05
 cg2d: Sum(rhs),rhsMax =  -7.65100922258352E+01  2.02157065672418E+00
(PID.TID 0000.0001)  ploadbar=  1.01169048152564E+05
 cg2d: Sum(rhs),rhsMax =  -7.60762220802090E+01  2.03338186549338E+00
(PID.TID 0000.0001)  ploadbar=  1.01170535878240E+05
 cg2d: Sum(rhs),rhsMax =  -7.56896614280197E+01  2.04403378714479E+00
(PID.TID 0000.0001)  ploadbar=  1.01169720993552E+05
 cg2d: Sum(rhs),rhsMax =  -7.53091014345395E+01  2.05461447519190E+00
(PID.TID 0000.0001)  ploadbar=  1.01168906108865E+05
 cg2d: Sum(rhs),rhsMax =  -7.49370146832431E+01  2.06504792104376E+00
(PID.TID 0000.0001)  ploadbar=  1.01168091224178E+05
 cg2d: Sum(rhs),rhsMax =  -7.45716218080873E+01  2.07537588351599E+00
(PID.TID 0000.0001)  ploadbar=  1.01167276339491E+05
 cg2d: Sum(rhs),rhsMax =  -7.42071068872085E+01  2.08575619313457E+00
(PID.TID 0000.0001)  ploadbar=  1.01166461454803E+05
 cg2d: Sum(rhs),rhsMax =  -7.38313878765869E+01  2.09652983061214E+00
(PID.TID 0000.0001)  ploadbar=  1.01165646570116E+05
 cg2d: Sum(rhs),rhsMax =  -7.34472112106125E+01  2.10764389741001E+00
(PID.TID 0000.0001)  ploadbar=  1.01164563160885E+05
 cg2d: Sum(rhs),rhsMax =  -7.30366667234594E+01  2.11962358752225E+00
(PID.TID 0000.0001)  ploadbar=  1.01163479751654E+05
 cg2d: Sum(rhs),rhsMax =  -7.25855046201939E+01  2.13291103557243E+00
(PID.TID 0000.0001)  ploadbar=  1.01162396342423E+05
 cg2d: Sum(rhs),rhsMax =  -7.21002775028589E+01  2.14735266659936E+00
(PID.TID 0000.0001)  ploadbar=  1.01161312933191E+05
 cg2d: Sum(rhs),rhsMax =  -7.16018837542824E+01  2.16235316752670E+00
(PID.TID 0000.0001)  ploadbar=  1.01160229523960E+05
 cg2d: Sum(rhs),rhsMax =  -7.11171173620281E+01  2.17710806463710E+00
(PID.TID 0000.0001)  ploadbar=  1.01159146114729E+05
 cg2d: Sum(rhs),rhsMax =  -7.06262789831800E+01  2.19226324292502E+00
(PID.TID 0000.0001)  ploadbar=  1.01159041163316E+05
 cg2d: Sum(rhs),rhsMax =  -7.01609224460961E+01  2.20683531304192E+00
(PID.TID 0000.0001)  ploadbar=  1.01158936211902E+05
 cg2d: Sum(rhs),rhsMax =  -6.97143118677429E+01  2.22100556101159E+00
(PID.TID 0000.0001)  ploadbar=  1.01158831260489E+05
 cg2d: Sum(rhs),rhsMax =  -6.92832744058593E+01  2.23485199499971E+00
(PID.TID 0000.0001)  ploadbar=  1.01158726309076E+05
 cg2d: Sum(rhs),rhsMax =  -6.88712001058215E+01  2.24824236011067E+00
(PID.TID 0000.0001)  ploadbar=  1.01158621357662E+05
 cg2d: Sum(rhs),rhsMax =  -6.84899221797646E+01  2.26076242711719E+00
(PID.TID 0000.0001)  ploadbar=  1.01158516406249E+05
 cg2d: Sum(rhs),rhsMax =  -6.82647850975758E+01  2.26829492059940E+00
(PID.TID 0000.0001)  ploadbar=  1.01158855513615E+05
 cg2d: Sum(rhs),rhsMax =  -6.81728289298843E+01  2.27149911372490E+00
(PID.TID 0000.0001)  ploadbar=  1.01159194620980E+05
 cg2d: Sum(rhs),rhsMax =  -6.82027306058953E+01  2.27071009700646E+00
(PID.TID 0000.0001)  ploadbar=  1.01159533728346E+05
 cg2d: Sum(rhs),rhsMax =  -6.83274463166221E+01  2.26682821713156E+00
(PID.TID 0000.0001)  ploadbar=  1.01159872835712E+05
 cg2d: Sum(rhs),rhsMax =  -6.85210897026541E+01  2.26073130441544E+00
(PID.TID 0000.0001)  ploadbar=  1.01160211943077E+05
 cg2d: Sum(rhs),rhsMax =  -6.87602941558011E+01  2.25321505578734E+00
(PID.TID 0000.0001)  ploadbar=  1.01160551050443E+05
 cg2d: Sum(rhs),rhsMax =  -6.88892133897924E+01  2.24933583629335E+00
(PID.TID 0000.0001)  ploadbar=  1.01160401096401E+05
 cg2d: Sum(rhs),rhsMax =  -6.89667293245425E+01  2.24712861670694E+00
(PID.TID 0000.0001)  ploadbar=  1.01160251142360E+05
 cg2d: Sum(rhs),rhsMax =  -6.89881656209911E+01  2.24673404208899E+00
(PID.TID 0000.0001)  ploadbar=  1.01160101188318E+05
 cg2d: Sum(rhs),rhsMax =  -6.89643765029004E+01  2.24779387915773E+00
(PID.TID 0000.0001)  ploadbar=  1.01159951234277E+05
 cg2d: Sum(rhs),rhsMax =  -6.89218527778685E+01  2.24944587812766E+00
(PID.TID 0000.0001)  ploadbar=  1.01159801280235E+05
 cg2d: Sum(rhs),rhsMax =  -6.88888563340529E+01  2.25076255637407E+00
(PID.TID 0000.0001)  ploadbar=  1.01159651326194E+05
 cg2d: Sum(rhs),rhsMax =  -6.88837925171647E+01  2.25116241524103E+00
(PID.TID 0000.0001)  ploadbar=  1.01157930106130E+05
 cg2d: Sum(rhs),rhsMax =  -6.88611364669832E+01  2.25212800222288E+00
(PID.TID 0000.0001)  ploadbar=  1.01156208886067E+05
 cg2d: Sum(rhs),rhsMax =  -6.88423777350953E+01  2.25295206447923E+00
(PID.TID 0000.0001)  ploadbar=  1.01154487666004E+05
 cg2d: Sum(rhs),rhsMax =  -6.88902443852249E+01  2.25157883379232E+00
(PID.TID 0000.0001)  ploadbar=  1.01152766445940E+05
 cg2d: Sum(rhs),rhsMax =  -6.90260864413691E+01  2.24731857593672E+00
(PID.TID 0000.0001)  ploadbar=  1.01151045225877E+05
 cg2d: Sum(rhs),rhsMax =  -6.92818836476196E+01  2.23916490030360E+00
(PID.TID 0000.0001)  ploadbar=  1.01149324005813E+05
 cg2d: Sum(rhs),rhsMax =  -6.97211952269831E+01  2.22519984045631E+00
(PID.TID 0000.0001)  ploadbar=  1.01147875815637E+05
 cg2d: Sum(rhs),rhsMax =  -7.02859084564933E+01  2.20746121391834E+00
(PID.TID 0000.0001)  ploadbar=  1.01146427625460E+05
 cg2d: Sum(rhs),rhsMax =  -7.09296136124070E+01  2.18756185847491E+00
(PID.TID 0000.0001)  ploadbar=  1.01144979435284E+05
 cg2d: Sum(rhs),rhsMax =  -7.16086090858750E+01  2.16694259391268E+00
(PID.TID 0000.0001)  ploadbar=  1.01143531245107E+05
 cg2d: Sum(rhs),rhsMax =  -7.22928400081720E+01  2.14654174890446E+00
(PID.TID 0000.0001)  ploadbar=  1.01142083054930E+05
 cg2d: Sum(rhs),rhsMax =  -7.29957247326342E+01  2.12596261975401E+00
(PID.TID 0000.0001)  ploadbar=  1.01140634864754E+05
 cg2d: Sum(rhs),rhsMax =  -7.37284288354750E+01  2.10496345934202E+00
(PID.TID 0000.0001)  ploadbar=  1.01139900387208E+05
 cg2d: Sum(rhs),rhsMax =  -7.45392864155657E+01  2.08222464395848E+00
(PID.TID 0000.0001)  ploadbar=  1.01139165909663E+05
 cg2d: Sum(rhs),rhsMax =  -7.54501132475385E+01  2.05727477961523E+00
(PID.TID 0000.0001)  ploadbar=  1.01138431432118E+05
 cg2d: Sum(rhs),rhsMax =  -7.64875501400437E+01  2.02957940566763E+00
(PID.TID 0000.0001)  ploadbar=  1.01137696954573E+05
 cg2d: Sum(rhs),rhsMax =  -7.76542611627415E+01  1.99931170372417E+00
(PID.TID 0000.0001)  ploadbar=  1.01136962477028E+05
 cg2d: Sum(rhs),rhsMax =  -7.89362421394607E+01  1.96707641735041E+00
(PID.TID 0000.0001)  ploadbar=  1.01136227999483E+05
 cg2d: Sum(rhs),rhsMax =  -8.03045700425310E+01  1.93379305058375E+00
(PID.TID 0000.0001)  ploadbar=  1.01136213456646E+05
 cg2d: Sum(rhs),rhsMax =  -8.17004380452705E+01  1.90098314553644E+00
(PID.TID 0000.0001)  ploadbar=  1.01136198913809E+05
 cg2d: Sum(rhs),rhsMax =  -8.30702994575231E+01  1.86985479865902E+00
(PID.TID 0000.0001)  ploadbar=  1.01136184370972E+05
 cg2d: Sum(rhs),rhsMax =  -8.44128685204340E+01  1.84032060413458E+00
(PID.TID 0000.0001)  ploadbar=  1.01136169828136E+05
 cg2d: Sum(rhs),rhsMax =  -8.56934621250614E+01  1.81300702660861E+00
(PID.TID 0000.0001)  ploadbar=  1.01136155285299E+05
 cg2d: Sum(rhs),rhsMax =  -8.69680446845048E+01  1.78660701486792E+00
(PID.TID 0000.0001)  ploadbar=  1.01136140742462E+05
 cg2d: Sum(rhs),rhsMax =  -8.81806136504389E+01  1.76219097763487E+00
(PID.TID 0000.0001)  ploadbar=  1.01133373279269E+05
 cg2d: Sum(rhs),rhsMax =  -8.93997888740338E+01  1.73828278135239E+00
(PID.TID 0000.0001)  ploadbar=  1.01130605816076E+05
 cg2d: Sum(rhs),rhsMax =  -9.06004709115893E+01  1.71533677434904E+00
(PID.TID 0000.0001)  ploadbar=  1.01127838352883E+05
 cg2d: Sum(rhs),rhsMax =  -9.17560528272588E+01  1.69378741796073E+00
(PID.TID 0000.0001)  ploadbar=  1.01125070889690E+05
 cg2d: Sum(rhs),rhsMax =  -9.28301927748799E+01  1.67420065979881E+00
(PID.TID 0000.0001)  ploadbar=  1.01122303426497E+05
 cg2d: Sum(rhs),rhsMax =  -9.37903518615820E+01  1.65702905412838E+00
(PID.TID 0000.0001)  ploadbar=  1.01119535963304E+05
 cg2d: Sum(rhs),rhsMax =  -9.46552123836555E+01  1.64184761048734E+00
(PID.TID 0000.0001)  ploadbar=  1.01119047836168E+05
 cg2d: Sum(rhs),rhsMax =  -9.54656113518694E+01  1.62785859648136E+00
(PID.TID 0000.0001)  ploadbar=  1.01118559709032E+05
 cg2d: Sum(rhs),rhsMax =  -9.62919491671217E+01  1.61382298969561E+00
(PID.TID 0000.0001)  ploadbar=  1.01118071581896E+05
 cg2d: Sum(rhs),rhsMax =  -9.72042866755039E+01  1.59858742209316E+00
(PID.TID 0000.0001)  ploadbar=  1.01117583454761E+05
 cg2d: Sum(rhs),rhsMax =  -9.82865292720126E+01  1.58086643492033E+00
(PID.TID 0000.0001)  ploadbar=  1.01117095327625E+05
 cg2d: Sum(rhs),rhsMax =  -9.96129913643825E+01  1.55966418875875E+00
(PID.TID 0000.0001)  ploadbar=  1.01116607200489E+05
 cg2d: Sum(rhs),rhsMax =  -1.01223203123402E+02  1.53472534649593E+00
(PID.TID 0000.0001)  ploadbar=  1.01116563310833E+05
 cg2d: Sum(rhs),rhsMax =  -1.02958945530622E+02  1.50874465319205E+00
(PID.TID 0000.0001)  ploadbar=  1.01116519421178E+05
 cg2d: Sum(rhs),rhsMax =  -1.02280628886402E+02  1.51865852238677E+00
(PID.TID 0000.0001)  ploadbar=  1.01116475531522E+05
 cg2d: Sum(rhs),rhsMax =  -1.01245298109740E+02  1.53410831736100E+00
(PID.TID 0000.0001)  ploadbar=  1.01116431641866E+05
 cg2d: Sum(rhs),rhsMax =  -1.00175394236063E+02  1.55042007627155E+00
(PID.TID 0000.0001)  ploadbar=  1.01116387752210E+05
 cg2d: Sum(rhs),rhsMax =  -9.90385325691263E+01  1.56814685704407E+00
(PID.TID 0000.0001)  ploadbar=  1.01116343862555E+05
 cg2d: Sum(rhs),rhsMax =  -9.80028048884078E+01  1.58466045767837E+00
(PID.TID 0000.0001)  ploadbar=  1.01115528977040E+05
 cg2d: Sum(rhs),rhsMax =  -9.72427073910645E+01  1.59699689680885E+00
(PID.TID 0000.0001)  ploadbar=  1.01114714091525E+05
 cg2d: Sum(rhs),rhsMax =  -9.67271893719115E+01  1.60546351503618E+00
(PID.TID 0000.0001)  ploadbar=  1.01113899206010E+05
 cg2d: Sum(rhs),rhsMax =  -9.63804326367293E+01  1.61119651960389E+00
(PID.TID 0000.0001)  ploadbar=  1.01113084320495E+05
 cg2d: Sum(rhs),rhsMax =  -9.61192336680368E+01  1.61552855383344E+00
(PID.TID 0000.0001)  ploadbar=  1.01112269434980E+05
 cg2d: Sum(rhs),rhsMax =  -9.58832148408954E+01  1.61945300624696E+00
(PID.TID 0000.0001)  ploadbar=  1.01111454549465E+05
 cg2d: Sum(rhs),rhsMax =  -9.56278827917601E+01  1.62372562728716E+00
(PID.TID 0000.0001)  ploadbar=  1.01109355735158E+05
 cg2d: Sum(rhs),rhsMax =  -9.54157286617080E+01  1.62728297095129E+00
(PID.TID 0000.0001)  ploadbar=  1.01107256920851E+05
 cg2d: Sum(rhs),rhsMax =  -9.53328924309003E+01  1.62864073738447E+00
(PID.TID 0000.0001)  ploadbar=  1.01105158106545E+05
 cg2d: Sum(rhs),rhsMax =  -9.54533034077853E+01  1.62652091518880E+00
(PID.TID 0000.0001)  ploadbar=  1.01103059292238E+05
 cg2d: Sum(rhs),rhsMax =  -9.57794209427246E+01  1.62090283878120E+00
(PID.TID 0000.0001)  ploadbar=  1.01100960477932E+05
 cg2d: Sum(rhs),rhsMax =  -9.62681771210474E+01  1.61257360060724E+00
(PID.TID 0000.0001)  ploadbar=  1.01098861663625E+05
 cg2d: Sum(rhs),rhsMax =  -9.68022582039173E+01  1.60355999462474E+00
(PID.TID 0000.0001)  ploadbar=  1.01097105164350E+05
 cg2d: Sum(rhs),rhsMax =  -9.73404454502773E+01  1.59455827300109E+00
(PID.TID 0000.0001)  ploadbar=  1.01095348665074E+05
 cg2d: Sum(rhs),rhsMax =  -9.78638581964060E+01  1.58587276559681E+00
(PID.TID 0000.0001)  ploadbar=  1.01093592165798E+05
 cg2d: Sum(rhs),rhsMax =  -9.83966301465258E+01  1.57710747592483E+00
(PID.TID 0000.0001)  ploadbar=  1.01091835666523E+05
 cg2d: Sum(rhs),rhsMax =  -9.89788474489197E+01  1.56762715842558E+00
(PID.TID 0000.0001)  ploadbar=  1.01090079167247E+05
 cg2d: Sum(rhs),rhsMax =  -9.96117215632562E+01  1.55743595464253E+00
(PID.TID 0000.0001)  ploadbar=  1.01088322667972E+05
 cg2d: Sum(rhs),rhsMax =  -1.00286919008976E+02  1.54674246322226E+00
(PID.TID 0000.0001)  ploadbar=  1.01086709248592E+05
 cg2d: Sum(rhs),rhsMax =  -1.01022254741661E+02  1.53529830080677E+00
(PID.TID 0000.0001)  ploadbar=  1.01085095829212E+05
 cg2d: Sum(rhs),rhsMax =  -1.01815739580700E+02  1.52316817369078E+00
(PID.TID 0000.0001)  ploadbar=  1.01083482409832E+05
 cg2d: Sum(rhs),rhsMax =  -1.02656187702483E+02  1.51054836699328E+00
(PID.TID 0000.0001)  ploadbar=  1.01081868990452E+05
 cg2d: Sum(rhs),rhsMax =  -1.03529843570472E+02  1.49766210061672E+00
(PID.TID 0000.0001)  ploadbar=  1.01080255571072E+05
 cg2d: Sum(rhs),rhsMax =  -1.04418553061900E+02  1.48478408442667E+00
(PID.TID 0000.0001)  ploadbar=  1.01078642151692E+05
 cg2d: Sum(rhs),rhsMax =  -1.05289382755547E+02  1.47238233322775E+00
(PID.TID 0000.0001)  ploadbar=  1.01078170061840E+05
 cg2d: Sum(rhs),rhsMax =  -1.06130959922247E+02  1.46059163115522E+00
(PID.TID 0000.0001)  ploadbar=  1.01077697971988E+05
 cg2d: Sum(rhs),rhsMax =  -1.07005664779837E+02  1.44853883967079E+00
(PID.TID 0000.0001)  ploadbar=  1.01077225882135E+05
 cg2d: Sum(rhs),rhsMax =  -1.07999452130808E+02  1.43509523495272E+00
(PID.TID 0000.0001)  ploadbar=  1.01076753792283E+05
 cg2d: Sum(rhs),rhsMax =  -1.09175518742749E+02  1.41951539350161E+00
(PID.TID 0000.0001)  ploadbar=  1.01076281702431E+05
 cg2d: Sum(rhs),rhsMax =  -1.10546721754257E+02  1.40177692646308E+00
(PID.TID 0000.0001)  ploadbar=  1.01075809612579E+05
 cg2d: Sum(rhs),rhsMax =  -1.12101705629402E+02  1.38221888748853E+00
(PID.TID 0000.0001)  ploadbar=  1.01075149106479E+05
 cg2d: Sum(rhs),rhsMax =  -1.12081815078046E+02  1.38236302883756E+00
(PID.TID 0000.0001)  ploadbar=  1.01074488600378E+05
 cg2d: Sum(rhs),rhsMax =  -1.10461898245734E+02  1.40254183586445E+00
(PID.TID 0000.0001)  ploadbar=  1.01073828094277E+05
 cg2d: Sum(rhs),rhsMax =  -1.09182997618856E+02  1.41888159388697E+00
(PID.TID 0000.0001)  ploadbar=  1.01073167588176E+05
 cg2d: Sum(rhs),rhsMax =  -1.08312042232023E+02  1.43020491137183E+00
(PID.TID 0000.0001)  ploadbar=  1.01072507082075E+05
 cg2d: Sum(rhs),rhsMax =  -1.07965859534971E+02  1.43470373181080E+00
(PID.TID 0000.0001)  ploadbar=  1.01071846575975E+05
 cg2d: Sum(rhs),rhsMax =  -1.08212244842187E+02  1.43132773314583E+00
(PID.TID 0000.0001)  ploadbar=  1.01072390244075E+05
 cg2d: Sum(rhs),rhsMax =  -1.08467559636004E+02  1.42782698757415E+00
(PID.TID 0000.0001)  ploadbar=  1.01072933912175E+05
 cg2d: Sum(rhs),rhsMax =  -1.08735866944187E+02  1.42415126422511E+00
(PID.TID 0000.0001)  ploadbar=  1.01073477580275E+05
 cg2d: Sum(rhs),rhsMax =  -1.09003151713066E+02  1.42048353331566E+00
(PID.TID 0000.0001)  ploadbar=  1.01074021248376E+05
 cg2d: Sum(rhs),rhsMax =  -1.09262656131807E+02  1.41690821515070E+00
(PID.TID 0000.0001)  ploadbar=  1.01074564916476E+05
 cg2d: Sum(rhs),rhsMax =  -1.09506853096104E+02  1.41351927679333E+00
(PID.TID 0000.0001)  ploadbar=  1.01075108584576E+05
 cg2d: Sum(rhs),rhsMax =  -1.09666339865383E+02  1.41127032391788E+00
(PID.TID 0000.0001)  ploadbar=  1.01075899665052E+05
 cg2d: Sum(rhs),rhsMax =  -1.09806639309647E+02  1.40930725552973E+00
(PID.TID 0000.0001)  ploadbar=  1.01076690745529E+05
 cg2d: Sum(rhs),rhsMax =  -1.09937525537979E+02  1.40750062411264E+00
(PID.TID 0000.0001)  ploadbar=  1.01077481826005E+05
 cg2d: Sum(rhs),rhsMax =  -1.10071306464236E+02  1.40568954914755E+00
(PID.TID 0000.0001)  ploadbar=  1.01078272906482E+05
 cg2d: Sum(rhs),rhsMax =  -1.10224008570996E+02  1.40366916970123E+00
(PID.TID 0000.0001)  ploadbar=  1.01079063986958E+05
 cg2d: Sum(rhs),rhsMax =  -1.10415061617773E+02  1.40119058973951E+00
(PID.TID 0000.0001)  ploadbar=  1.01079855067435E+05
 cg2d: Sum(rhs),rhsMax =  -1.10594298628208E+02  1.39886348136370E+00
(PID.TID 0000.0001)  ploadbar=  1.01081114073955E+05
 cg2d: Sum(rhs),rhsMax =  -1.10804845745171E+02  1.39614398712307E+00
(PID.TID 0000.0001)  ploadbar=  1.01082373080476E+05
 cg2d: Sum(rhs),rhsMax =  -1.11051840397099E+02  1.39297010217703E+00
(PID.TID 0000.0001)  ploadbar=  1.01083632086997E+05
 cg2d: Sum(rhs),rhsMax =  -1.10917948187431E+02  1.39457357653304E+00
(PID.TID 0000.0001)  ploadbar=  1.01084891093517E+05
 cg2d: Sum(rhs),rhsMax =  -1.09173344777717E+02  1.41676829863762E+00
(PID.TID 0000.0001)  ploadbar=  1.01086150100038E+05
 cg2d: Sum(rhs),rhsMax =  -1.07072453531855E+02  1.44446105884801E+00
(PID.TID 0000.0001)  ploadbar=  1.01087409106559E+05
 cg2d: Sum(rhs),rhsMax =  -1.03726832028690E+02  1.49094577829611E+00
(PID.TID 0000.0001)  ploadbar=  1.01088909182810E+05
 cg2d: Sum(rhs),rhsMax =  -1.00515000872810E+02  1.53848020004696E+00
(PID.TID 0000.0001)  ploadbar=  1.01090409259061E+05
 cg2d: Sum(rhs),rhsMax =  -9.74778124584414E+01  1.58630380040909E+00
(PID.TID 0000.0001)  ploadbar=  1.01091909335312E+05
 cg2d: Sum(rhs),rhsMax =  -9.48466906042594E+01  1.63018984518399E+00
(PID.TID 0000.0001)  ploadbar=  1.01093409411563E+05
 cg2d: Sum(rhs),rhsMax =  -9.28156661128751E+01  1.66573152938270E+00
(PID.TID 0000.0001)  ploadbar=  1.01094909487814E+05
 cg2d: Sum(rhs),rhsMax =  -9.14034342877982E+01  1.69132287297945E+00
(PID.TID 0000.0001)  ploadbar=  1.01096409564065E+05
 cg2d: Sum(rhs),rhsMax =  -9.06536565630776E+01  1.70516712192179E+00
(PID.TID 0000.0001)  ploadbar=  1.01096510419475E+05
 cg2d: Sum(rhs),rhsMax =  -9.05389044860969E+01  1.70718357774009E+00
(PID.TID 0000.0001)  ploadbar=  1.01096611274885E+05
 cg2d: Sum(rhs),rhsMax =  -9.07089799421544E+01  1.70383398159347E+00
(PID.TID 0000.0001)  ploadbar=  1.01096712130295E+05
 cg2d: Sum(rhs),rhsMax =  -9.08944671136410E+01  1.70020230322777E+00
(PID.TID 0000.0001)  ploadbar=  1.01096812985705E+05
 cg2d: Sum(rhs),rhsMax =  -9.12622125756441E+01  1.69318766157295E+00
(PID.TID 0000.0001)  ploadbar=  1.01096913841115E+05
 cg2d: Sum(rhs),rhsMax =  -9.16706802553073E+01  1.68546867512079E+00
(PID.TID 0000.0001)  ploadbar=  1.01097014696525E+05
 cg2d: Sum(rhs),rhsMax =  -9.20416960230811E+01  1.67853933926994E+00
(PID.TID 0000.0001)  ploadbar=  1.01096653501868E+05
 cg2d: Sum(rhs),rhsMax =  -9.23369169711052E+01  1.67307486374871E+00
(PID.TID 0000.0001)  ploadbar=  1.01096292307212E+05
 cg2d: Sum(rhs),rhsMax =  -9.25656327443256E+01  1.66887521312546E+00
(PID.TID 0000.0001)  ploadbar=  1.01095931112556E+05
 cg2d: Sum(rhs),rhsMax =  -9.28319929647390E+01  1.66405048789919E+00
(PID.TID 0000.0001)  ploadbar=  1.01095569917900E+05
 cg2d: Sum(rhs),rhsMax =  -9.31989236543796E+01  1.65748900523802E+00
(PID.TID 0000.0001)  ploadbar=  1.01095208723243E+05
 cg2d: Sum(rhs),rhsMax =  -9.36943597075802E+01  1.64873490287339E+00
(PID.TID 0000.0001)  ploadbar=  1.01094847528587E+05
 cg2d: Sum(rhs),rhsMax =  -9.42197775219579E+01  1.63956193671585E+00
(PID.TID 0000.0001)  ploadbar=  1.01095354837519E+05
 cg2d: Sum(rhs),rhsMax =  -9.47324147026053E+01  1.63071929397774E+00
(PID.TID 0000.0001)  ploadbar=  1.01095862146451E+05
 cg2d: Sum(rhs),rhsMax =  -9.51980769483508E+01  1.62277824179484E+00
(PID.TID 0000.0001)  ploadbar=  1.01096369455383E+05
 cg2d: Sum(rhs),rhsMax =  -9.55726178714260E+01  1.61645879987015E+00
(PID.TID 0000.0001)  ploadbar=  1.01096876764316E+05
 cg2d: Sum(rhs),rhsMax =  -9.58019034741359E+01  1.61263098835370E+00
(PID.TID 0000.0001)  ploadbar=  1.01097384073248E+05
 cg2d: Sum(rhs),rhsMax =  -9.58239816277370E+01  1.61229763523323E+00
(PID.TID 0000.0001)  ploadbar=  1.01097891382180E+05
 cg2d: Sum(rhs),rhsMax =  -9.56606338691176E+01  1.61508851870929E+00
(PID.TID 0000.0001)  ploadbar=  1.01098282041831E+05
 cg2d: Sum(rhs),rhsMax =  -9.53349241742922E+01  1.62063903751027E+00
(PID.TID 0000.0001)  ploadbar=  1.01098672701481E+05
 cg2d: Sum(rhs),rhsMax =  -9.49101582049149E+01  1.62791597097526E+00
(PID.TID 0000.0001)  ploadbar=  1.01099063361132E+05
 cg2d: Sum(rhs),rhsMax =  -9.44736878822734E+01  1.63544905185778E+00
(PID.TID 0000.0001)  ploadbar=  1.01099454020782E+05
 cg2d: Sum(rhs),rhsMax =  -9.40974468891145E+01  1.64198472788906E+00
(PID.TID 0000.0001)  ploadbar=  1.01099844680433E+05
 cg2d: Sum(rhs),rhsMax =  -9.38077451830301E+01  1.64703150095741E+00
(PID.TID 0000.0001)  ploadbar=  1.01100235340084E+05
 cg2d: Sum(rhs),rhsMax =  -9.36405492754291E+01  1.64994745735280E+00
(PID.TID 0000.0001)  ploadbar=  1.01100460565464E+05
 cg2d: Sum(rhs),rhsMax =  -9.35427783068098E+01  1.65164571501571E+00
(PID.TID 0000.0001)  ploadbar=  1.01100685790844E+05
 cg2d: Sum(rhs),rhsMax =  -9.34630758322622E+01  1.65302381302388E+00
(PID.TID 0000.0001)  ploadbar=  1.01100911016225E+05
 cg2d: Sum(rhs),rhsMax =  -9.33546220007264E+01  1.65490665795799E+00
(PID.TID 0000.0001)  ploadbar=  1.01101136241605E+05
 cg2d: Sum(rhs),rhsMax =  -9.30620742110014E+01  1.66006103210825E+00
(PID.TID 0000.0001)  ploadbar=  1.01101361466985E+05
 cg2d: Sum(rhs),rhsMax =  -9.26724852331469E+01  1.66697846171334E+00
(PID.TID 0000.0001)  ploadbar=  1.01101586692366E+05
 cg2d: Sum(rhs),rhsMax =  -9.22730818673999E+01  1.67417529191685E+00
(PID.TID 0000.0001)  ploadbar=  1.01101489157571E+05
 cg2d: Sum(rhs),rhsMax =  -9.18859749757166E+01  1.68125070731837E+00
(PID.TID 0000.0001)  ploadbar=  1.01101391622776E+05
 cg2d: Sum(rhs),rhsMax =  -9.14948256774761E+01  1.68849908387272E+00
(PID.TID 0000.0001)  ploadbar=  1.01101294087982E+05
 cg2d: Sum(rhs),rhsMax =  -9.11283018465888E+01  1.69538802269167E+00
(PID.TID 0000.0001)  ploadbar=  1.01101196553187E+05
 cg2d: Sum(rhs),rhsMax =  -9.08776873551903E+01  1.70019485269043E+00
(PID.TID 0000.0001)  ploadbar=  1.01101099018392E+05
 cg2d: Sum(rhs),rhsMax =  -9.07926490449234E+01  1.70194994345103E+00
(PID.TID 0000.0001)  ploadbar=  1.01101001483598E+05
 cg2d: Sum(rhs),rhsMax =  -9.08269308590268E+01  1.70147014886715E+00
(PID.TID 0000.0001)  ploadbar=  1.01100909485033E+05
 cg2d: Sum(rhs),rhsMax =  -9.08091275751581E+01  1.70196284800003E+00
(PID.TID 0000.0001)  ploadbar=  1.01100817486468E+05
 cg2d: Sum(rhs),rhsMax =  -9.08079023617951E+01  1.70213829248897E+00
(PID.TID 0000.0001)  ploadbar=  1.01100725487904E+05
 cg2d: Sum(rhs),rhsMax =  -9.08032363207315E+01  1.70237081636550E+00
(PID.TID 0000.0001)  ploadbar=  1.01100633489339E+05
 cg2d: Sum(rhs),rhsMax =  -9.07490496236596E+01  1.70352054314403E+00
(PID.TID 0000.0001)  ploadbar=  1.01100541490775E+05
 cg2d: Sum(rhs),rhsMax =  -9.06951888482744E+01  1.70465163375922E+00
(PID.TID 0000.0001)  ploadbar=  1.01100449492210E+05
 cg2d: Sum(rhs),rhsMax =  -9.02273133078725E+01  1.71361132904423E+00
(PID.TID 0000.0001)  ploadbar=  1.01099182721959E+05
 cg2d: Sum(rhs),rhsMax =  -8.95954775018873E+01  1.72581349650718E+00
(PID.TID 0000.0001)  ploadbar=  1.01097915951709E+05
 cg2d: Sum(rhs),rhsMax =  -8.90272336399461E+01  1.73694084766705E+00
(PID.TID 0000.0001)  ploadbar=  1.01096649181458E+05
 cg2d: Sum(rhs),rhsMax =  -8.85082470556030E+01  1.74722702590517E+00
(PID.TID 0000.0001)  ploadbar=  1.01095382411208E+05
 cg2d: Sum(rhs),rhsMax =  -8.80086236219251E+01  1.75723055741433E+00
(PID.TID 0000.0001)  ploadbar=  1.01094115640957E+05
 cg2d: Sum(rhs),rhsMax =  -8.74936934646631E+01  1.76763497697220E+00
(PID.TID 0000.0001)  ploadbar=  1.01092848870707E+05
 cg2d: Sum(rhs),rhsMax =  -8.69685606506319E+01  1.77836245890360E+00
(PID.TID 0000.0001)  ploadbar=  1.01093164881845E+05
 cg2d: Sum(rhs),rhsMax =  -8.64651786865192E+01  1.78875752886900E+00
(PID.TID 0000.0001)  ploadbar=  1.01093480892983E+05
 cg2d: Sum(rhs),rhsMax =  -8.59955294145769E+01  1.79855431841884E+00
(PID.TID 0000.0001)  ploadbar=  1.01093796904121E+05
 cg2d: Sum(rhs),rhsMax =  -8.55601532371921E+01  1.80771701243046E+00
(PID.TID 0000.0001)  ploadbar=  1.01094112915259E+05
 cg2d: Sum(rhs),rhsMax =  -8.51600328315289E+01  1.81620138375758E+00
(PID.TID 0000.0001)  ploadbar=  1.01094428926398E+05
 cg2d: Sum(rhs),rhsMax =  -8.47987648057440E+01  1.82390687512088E+00
(PID.TID 0000.0001)  ploadbar=  1.01094744937536E+05
 cg2d: Sum(rhs),rhsMax =  -8.44831793855133E+01  1.83073144548038E+00
(PID.TID 0000.0001)  ploadbar=  1.01095236471893E+05
 cg2d: Sum(rhs),rhsMax =  -8.41991927275834E+01  1.83695929263850E+00
(PID.TID 0000.0001)  ploadbar=  1.01095728006250E+05
 cg2d: Sum(rhs),rhsMax =  -8.39446577864734E+01  1.84262228916303E+00
(PID.TID 0000.0001)  ploadbar=  1.01096219540608E+05
 cg2d: Sum(rhs),rhsMax =  -8.36999050470981E+01  1.84813794677979E+00
(PID.TID 0000.0001)  ploadbar=  1.01096711074965E+05
 cg2d: Sum(rhs),rhsMax =  -8.34580480009126E+01  1.85365191600670E+00
(PID.TID 0000.0001)  ploadbar=  1.01097202609322E+05
 cg2d: Sum(rhs),rhsMax =  -8.32481568245429E+01  1.85851261792214E+00
(PID.TID 0000.0001)  ploadbar=  1.01097694143680E+05
 cg2d: Sum(rhs),rhsMax =  -8.31074052558889E+01  1.86183899782758E+00
(PID.TID 0000.0001)  ploadbar=  1.01097644218405E+05
 cg2d: Sum(rhs),rhsMax =  -8.30586790155512E+01  1.86309961067308E+00
(PID.TID 0000.0001)  ploadbar=  1.01097594293130E+05
 cg2d: Sum(rhs),rhsMax =  -8.30846033425050E+01  1.86267210861425E+00
(PID.TID 0000.0001)  ploadbar=  1.01097544367855E+05
 cg2d: Sum(rhs),rhsMax =  -8.31308824364051E+01  1.86177139937179E+00
(PID.TID 0000.0001)  ploadbar=  1.01097494442579E+05
 cg2d: Sum(rhs),rhsMax =  -8.31789316187475E+01  1.86081105865674E+00
(PID.TID 0000.0001)  ploadbar=  1.01097444517304E+05
 cg2d: Sum(rhs),rhsMax =  -8.32070425750070E+01  1.86027059165784E+00
(PID.TID 0000.0001)  ploadbar=  1.01097394592029E+05
 cg2d: Sum(rhs),rhsMax =  -8.32253857024619E+01  1.85995620690912E+00
(PID.TID 0000.0001)  ploadbar=  1.01097645548669E+05
 cg2d: Sum(rhs),rhsMax =  -8.32163190172113E+01  1.86025974326784E+00
(PID.TID 0000.0001)  ploadbar=  1.01097896505308E+05
 cg2d: Sum(rhs),rhsMax =  -8.31808663722172E+01  1.86115594980211E+00
(PID.TID 0000.0001)  ploadbar=  1.01098147461947E+05
 cg2d: Sum(rhs),rhsMax =  -8.31264169673763E+01  1.86247826326563E+00
(PID.TID 0000.0001)  ploadbar=  1.01098398418586E+05
 cg2d: Sum(rhs),rhsMax =  -8.30545058337039E+01  1.86418837088378E+00
(PID.TID 0000.0001)  ploadbar=  1.01098649375225E+05
 cg2d: Sum(rhs),rhsMax =  -8.29673626948233E+01  1.86623138002239E+00
(PID.TID 0000.0001)  ploadbar=  1.01098900331865E+05
 cg2d: Sum(rhs),rhsMax =  -8.28838317876883E+01  1.86817722867415E+00
(PID.TID 0000.0001)  ploadbar=  1.01100089074953E+05
 cg2d: Sum(rhs),rhsMax =  -8.28316227933232E+01  1.86939734947458E+00
(PID.TID 0000.0001)  ploadbar=  1.01101277818041E+05
 cg2d: Sum(rhs),rhsMax =  -8.28137211857721E+01  1.86981750396421E+00
(PID.TID 0000.0001)  ploadbar=  1.01102466561129E+05
 cg2d: Sum(rhs),rhsMax =  -8.28198453582531E+01  1.86966628682161E+00
(PID.TID 0000.0001)  ploadbar=  1.01103655304217E+05
 cg2d: Sum(rhs),rhsMax =  -8.28352689810665E+01  1.86927306143349E+00
(PID.TID 0000.0001)  ploadbar=  1.01104844047305E+05
 cg2d: Sum(rhs),rhsMax =  -8.28517419020639E+01  1.86881894670379E+00
(PID.TID 0000.0001)  ploadbar=  1.01106032790393E+05
 cg2d: Sum(rhs),rhsMax =  -8.28698329172822E+01  1.86836402625951E+00
(PID.TID 0000.0001)  ploadbar=  1.01107494665371E+05
 cg2d: Sum(rhs),rhsMax =  -8.28796155806571E+01  1.86813042863865E+00
(PID.TID 0000.0001)  ploadbar=  1.01108956540348E+05
 cg2d: Sum(rhs),rhsMax =  -8.28733027947621E+01  1.86829104906580E+00
(PID.TID 0000.0001)  ploadbar=  1.01110418415326E+05
 cg2d: Sum(rhs),rhsMax =  -8.28396153367093E+01  1.86909635210844E+00
(PID.TID 0000.0001)  ploadbar=  1.01111880290304E+05
 cg2d: Sum(rhs),rhsMax =  -8.27733392631536E+01  1.87066183450267E+00
(PID.TID 0000.0001)  ploadbar=  1.01113342165282E+05
 cg2d: Sum(rhs),rhsMax =  -8.26772201612403E+01  1.87292617886430E+00
(PID.TID 0000.0001)  ploadbar=  1.01114804040260E+05
 cg2d: Sum(rhs),rhsMax =  -8.25735063771246E+01  1.87534380898164E+00
(PID.TID 0000.0001)  ploadbar=  1.01115772848129E+05
 cg2d: Sum(rhs),rhsMax =  -8.24658857985475E+01  1.87783056693908E+00
(PID.TID 0000.0001)  ploadbar=  1.01116741655998E+05
 cg2d: Sum(rhs),rhsMax =  -8.23673650738418E+01  1.88008322694695E+00
(PID.TID 0000.0001)  ploadbar=  1.01117710463866E+05
 cg2d: Sum(rhs),rhsMax =  -8.22892344277102E+01  1.88183671107095E+00
(PID.TID 0000.0001)  ploadbar=  1.01118679271735E+05
 cg2d: Sum(rhs),rhsMax =  -8.22363517627225E+01  1.88297637846518E+00
(PID.TID 0000.0001)  ploadbar=  1.01119648079604E+05
 cg2d: Sum(rhs),rhsMax =  -8.22044340024428E+01  1.88359459177429E+00
(PID.TID 0000.0001)  ploadbar=  1.01120616887473E+05
 cg2d: Sum(rhs),rhsMax =  -8.21994938334938E+01  1.88361487546430E+00
(PID.TID 0000.0001)  ploadbar=  1.01122098466434E+05
 cg2d: Sum(rhs),rhsMax =  -8.21950986440301E+01  1.88363790645445E+00
(PID.TID 0000.0001)  ploadbar=  1.01123580045396E+05
 cg2d: Sum(rhs),rhsMax =  -8.21755377973243E+01  1.88401945014513E+00
(PID.TID 0000.0001)  ploadbar=  1.01125061624357E+05
 cg2d: Sum(rhs),rhsMax =  -8.21268700360831E+01  1.88507592742076E+00
(PID.TID 0000.0001)  ploadbar=  1.01126543203319E+05
 cg2d: Sum(rhs),rhsMax =  -8.20437291422697E+01  1.88692784078844E+00
(PID.TID 0000.0001)  ploadbar=  1.01128024782280E+05
 cg2d: Sum(rhs),rhsMax =  -8.19366973274112E+01  1.88932995318112E+00
(PID.TID 0000.0001)  ploadbar=  1.01129506361241E+05
 cg2d: Sum(rhs),rhsMax =  -8.18227609555346E+01  1.89189875067470E+00
(PID.TID 0000.0001)  ploadbar=  1.01130531132215E+05
 cg2d: Sum(rhs),rhsMax =  -8.17291885894945E+01  1.89399971939514E+00
(PID.TID 0000.0001)  ploadbar=  1.01131555903189E+05
 cg2d: Sum(rhs),rhsMax =  -8.16555200737169E+01  1.89563579814022E+00
(PID.TID 0000.0001)  ploadbar=  1.01132580674162E+05
 cg2d: Sum(rhs),rhsMax =  -8.16123646144416E+01  1.89655442795643E+00
(PID.TID 0000.0001)  ploadbar=  1.01133605445136E+05
 cg2d: Sum(rhs),rhsMax =  -8.16169713153222E+01  1.89634559235572E+00
(PID.TID 0000.0001)  ploadbar=  1.01134630216109E+05
 cg2d: Sum(rhs),rhsMax =  -8.16953446457089E+01  1.89439985155514E+00
(PID.TID 0000.0001)  ploadbar=  1.01135654987083E+05
 cg2d: Sum(rhs),rhsMax =  -8.19148796252805E+01  1.88923342734593E+00
(PID.TID 0000.0001)  ploadbar=  1.01136191457675E+05
 cg2d: Sum(rhs),rhsMax =  -8.23746068564136E+01  1.87863486167133E+00
(PID.TID 0000.0001)  ploadbar=  1.01136727928268E+05
 cg2d: Sum(rhs),rhsMax =  -8.30039186186128E+01  1.86436869907287E+00
(PID.TID 0000.0001)  ploadbar=  1.01137264398860E+05
 cg2d: Sum(rhs),rhsMax =  -8.36568227067700E+01  1.84982750645762E+00
(PID.TID 0000.0001)  ploadbar=  1.01137800869453E+05
 cg2d: Sum(rhs),rhsMax =  -8.42916017188606E+01  1.83593577380100E+00
(PID.TID 0000.0001)  ploadbar=  1.01138337340045E+05
 cg2d: Sum(rhs),rhsMax =  -8.48542011332621E+01  1.82382595519058E+00
(PID.TID 0000.0001)  ploadbar=  1.01138873810638E+05
 cg2d: Sum(rhs),rhsMax =  -8.53047445653742E+01  1.81424440810808E+00
(PID.TID 0000.0001)  ploadbar=  1.01139421878085E+05
 cg2d: Sum(rhs),rhsMax =  -8.57528844188087E+01  1.80480162036805E+00
(PID.TID 0000.0001)  ploadbar=  1.01139969945532E+05
 cg2d: Sum(rhs),rhsMax =  -8.62103147503647E+01  1.79524975275341E+00
(PID.TID 0000.0001)  ploadbar=  1.01140518012980E+05
 cg2d: Sum(rhs),rhsMax =  -8.67183930990518E+01  1.78473911659237E+00
(PID.TID 0000.0001)  ploadbar=  1.01141066080427E+05
 cg2d: Sum(rhs),rhsMax =  -8.73541346603050E+01  1.77173877285330E+00
(PID.TID 0000.0001)  ploadbar=  1.01141614147874E+05
 cg2d: Sum(rhs),rhsMax =  -8.80825507882053E+01  1.75705201246006E+00
(PID.TID 0000.0001)  ploadbar=  1.01142162215322E+05
 cg2d: Sum(rhs),rhsMax =  -8.86870284203393E+01  1.74505992252342E+00
(PID.TID 0000.0001)  ploadbar=  1.01142196199026E+05
 cg2d: Sum(rhs),rhsMax =  -8.88715396679129E+01  1.74143596949750E+00
(PID.TID 0000.0001)  ploadbar=  1.01142230182731E+05
 cg2d: Sum(rhs),rhsMax =  -8.85351410484619E+01  1.74806443042188E+00
(PID.TID 0000.0001)  ploadbar=  1.01142264166436E+05
 cg2d: Sum(rhs),rhsMax =  -8.77707624831308E+01  1.76331237681307E+00
(PID.TID 0000.0001)  ploadbar=  1.01142298150141E+05
 cg2d: Sum(rhs),rhsMax =  -8.67708969650067E+01  1.78366549538818E+00
(PID.TID 0000.0001)  ploadbar=  1.01142332133846E+05
 cg2d: Sum(rhs),rhsMax =  -8.56927552021499E+01  1.80614615243896E+00
(PID.TID 0000.0001)  ploadbar=  1.01142366117551E+05
 cg2d: Sum(rhs),rhsMax =  -8.47304732563145E+01  1.82668839793727E+00
(PID.TID 0000.0001)  ploadbar=  1.01141658589231E+05
 cg2d: Sum(rhs),rhsMax =  -8.39536506502556E+01  1.84360961436712E+00
(PID.TID 0000.0001)  ploadbar=  1.01140951060910E+05
 cg2d: Sum(rhs),rhsMax =  -8.33949104989767E+01  1.85596592318711E+00
(PID.TID 0000.0001)  ploadbar=  1.01140243532590E+05
 cg2d: Sum(rhs),rhsMax =  -8.30627560783861E+01  1.86337566518984E+00
(PID.TID 0000.0001)  ploadbar=  1.01139536004269E+05
 cg2d: Sum(rhs),rhsMax =  -8.29360105400918E+01  1.86619113930321E+00
(PID.TID 0000.0001)  ploadbar=  1.01138828475949E+05
 cg2d: Sum(rhs),rhsMax =  -8.29294535856580E+01  1.86628293430431E+00
(PID.TID 0000.0001)  ploadbar=  1.01138120947628E+05
 cg2d: Sum(rhs),rhsMax =  -8.29517723108388E+01  1.86576682702938E+00
(PID.TID 0000.0001)  ploadbar=  1.01137826229348E+05
 cg2d: Sum(rhs),rhsMax =  -8.30509957980844E+01  1.86356496639994E+00
(PID.TID 0000.0001)  ploadbar=  1.01137531511067E+05
 cg2d: Sum(rhs),rhsMax =  -8.32836023461769E+01  1.85842536631201E+00
(PID.TID 0000.0001)  ploadbar=  1.01137236792786E+05
 cg2d: Sum(rhs),rhsMax =  -8.36595236268410E+01  1.85017317762896E+00
(PID.TID 0000.0001)  ploadbar=  1.01136942074505E+05
 cg2d: Sum(rhs),rhsMax =  -8.41641318891519E+01  1.83920854687700E+00
(PID.TID 0000.0001)  ploadbar=  1.01136647356224E+05
 cg2d: Sum(rhs),rhsMax =  -8.47599430402623E+01  1.82643463058580E+00
(PID.TID 0000.0001)  ploadbar=  1.01136352637943E+05
 cg2d: Sum(rhs),rhsMax =  -8.53501673863993E+01  1.81395916430061E+00
(PID.TID 0000.0001)  ploadbar=  1.01135267393502E+05
 cg2d: Sum(rhs),rhsMax =  -8.58627487112948E+01  1.80328272451442E+00
(PID.TID 0000.0001)  ploadbar=  1.01134182149061E+05
 cg2d: Sum(rhs),rhsMax =  -8.62707860736012E+01  1.79490054725520E+00
(PID.TID 0000.0001)  ploadbar=  1.01133096904619E+05
 cg2d: Sum(rhs),rhsMax =  -8.65671267044338E+01  1.78889807428100E+00
(PID.TID 0000.0001)  ploadbar=  1.01132011660178E+05
 cg2d: Sum(rhs),rhsMax =  -8.67802527768481E+01  1.78463904884382E+00
(PID.TID 0000.0001)  ploadbar=  1.01130926415737E+05
 cg2d: Sum(rhs),rhsMax =  -8.69426806399162E+01  1.78143044587450E+00
(PID.TID 0000.0001)  ploadbar=  1.01129841171295E+05
 cg2d: Sum(rhs),rhsMax =  -8.70726759553761E+01  1.77889673526339E+00
(PID.TID 0000.0001)  ploadbar=  1.01128855471939E+05
 cg2d: Sum(rhs),rhsMax =  -8.71919201223903E+01  1.77658837896645E+00
(PID.TID 0000.0001)  ploadbar=  1.01127869772582E+05
 cg2d: Sum(rhs),rhsMax =  -8.73119357229135E+01  1.77426829187645E+00
(PID.TID 0000.0001)  ploadbar=  1.01126884073225E+05
 cg2d: Sum(rhs),rhsMax =  -8.74265378157162E+01  1.77205751756167E+00
(PID.TID 0000.0001)  ploadbar=  1.01125898373869E+05
 cg2d: Sum(rhs),rhsMax =  -8.75397230446826E+01  1.76987234599743E+00
(PID.TID 0000.0001)  ploadbar=  1.01124912674512E+05
 cg2d: Sum(rhs),rhsMax =  -8.76334046006825E+01  1.76807243128669E+00
(PID.TID 0000.0001)  ploadbar=  1.01123926975155E+05
 cg2d: Sum(rhs),rhsMax =  -8.76549844104167E+01  1.76771027293931E+00
(PID.TID 0000.0001)  ploadbar=  1.01122239417931E+05
 cg2d: Sum(rhs),rhsMax =  -8.76103630164595E+01  1.76866433516779E+00
(PID.TID 0000.0001)  ploadbar=  1.01120551860707E+05
 cg2d: Sum(rhs),rhsMax =  -8.74886438931059E+01  1.77115743232561E+00
(PID.TID 0000.0001)  ploadbar=  1.01118864303483E+05
 cg2d: Sum(rhs),rhsMax =  -8.73085600889033E+01  1.77481883920960E+00
(PID.TID 0000.0001)  ploadbar=  1.01117176746259E+05
 cg2d: Sum(rhs),rhsMax =  -8.70943160771745E+01  1.77916617808892E+00
(PID.TID 0000.0001)  ploadbar=  1.01115489189035E+05
 cg2d: Sum(rhs),rhsMax =  -8.68679555450172E+01  1.78375382154777E+00
(PID.TID 0000.0001)  ploadbar=  1.01113801631811E+05
 cg2d: Sum(rhs),rhsMax =  -8.66223845073700E+01  1.78880031104961E+00
(PID.TID 0000.0001)  ploadbar=  1.01112924634693E+05
 cg2d: Sum(rhs),rhsMax =  -8.63640376769945E+01  1.79417978486382E+00
(PID.TID 0000.0001)  ploadbar=  1.01112047637575E+05
 cg2d: Sum(rhs),rhsMax =  -8.61420285062038E+01  1.79886749666748E+00
(PID.TID 0000.0001)  ploadbar=  1.01111170640457E+05
 cg2d: Sum(rhs),rhsMax =  -8.59975748873811E+01  1.80198370535337E+00
(PID.TID 0000.0001)  ploadbar=  1.01110293643339E+05
 cg2d: Sum(rhs),rhsMax =  -8.58466495809545E+01  1.80527416378250E+00
(PID.TID 0000.0001)  ploadbar=  1.01109416646221E+05
 cg2d: Sum(rhs),rhsMax =  -8.56305424949762E+01  1.80997210403833E+00
(PID.TID 0000.0001)  ploadbar=  1.01108539649103E+05
 cg2d: Sum(rhs),rhsMax =  -8.54493619026977E+01  1.81395804349405E+00
(PID.TID 0000.0001)  ploadbar=  1.01107580109288E+05
 cg2d: Sum(rhs),rhsMax =  -8.53192790852714E+01  1.81687417660350E+00
(PID.TID 0000.0001)  ploadbar=  1.01106620569474E+05
 cg2d: Sum(rhs),rhsMax =  -8.52180211499579E+01  1.81918324963635E+00
(PID.TID 0000.0001)  ploadbar=  1.01105661029659E+05
 cg2d: Sum(rhs),rhsMax =  -8.49422292539471E+01  1.82523497553146E+00
(PID.TID 0000.0001)  ploadbar=  1.01104701489845E+05
 cg2d: Sum(rhs),rhsMax =  -8.45833497688726E+01  1.83311367094187E+00
(PID.TID 0000.0001)  ploadbar=  1.01103741950030E+05
 cg2d: Sum(rhs),rhsMax =  -8.42076554987332E+01  1.84141165275732E+00
(PID.TID 0000.0001)  ploadbar=  1.01102782410216E+05
 cg2d: Sum(rhs),rhsMax =  -8.38190735947413E+01  1.85007736727074E+00
(PID.TID 0000.0001)  ploadbar=  1.01102659078988E+05
 cg2d: Sum(rhs),rhsMax =  -8.34723417178917E+01  1.85789786461668E+00
(PID.TID 0000.0001)  ploadbar=  1.01102535747760E+05
 cg2d: Sum(rhs),rhsMax =  -8.32019619648459E+01  1.86407615092705E+00
(PID.TID 0000.0001)  ploadbar=  1.01102412416532E+05
 cg2d: Sum(rhs),rhsMax =  -8.30261997668976E+01  1.86816323201817E+00
(PID.TID 0000.0001)  ploadbar=  1.01102289085304E+05
 cg2d: Sum(rhs),rhsMax =  -8.29472579285712E+01  1.87007959193618E+00
(PID.TID 0000.0001)  ploadbar=  1.01102165754076E+05
 cg2d: Sum(rhs),rhsMax =  -8.29556252955232E+01  1.87002107800858E+00
(PID.TID 0000.0001)  ploadbar=  1.01102042422848E+05
 cg2d: Sum(rhs),rhsMax =  -8.30177705245786E+01  1.86873490927304E+00
(PID.TID 0000.0001)  ploadbar=  1.01102374661914E+05
 cg2d: Sum(rhs),rhsMax =  -8.30858401741772E+01  1.86729919034977E+00
(PID.TID 0000.0001)  ploadbar=  1.01102706900981E+05
 cg2d: Sum(rhs),rhsMax =  -8.31491879379666E+01  1.86595021227199E+00
(PID.TID 0000.0001)  ploadbar=  1.01103039140047E+05
 cg2d: Sum(rhs),rhsMax =  -8.29223342246155E+01  1.87110239611713E+00
(PID.TID 0000.0001)  ploadbar=  1.01103371379113E+05
 cg2d: Sum(rhs),rhsMax =  -8.26266339249891E+01  1.87781463901794E+00
(PID.TID 0000.0001)  ploadbar=  1.01103703618179E+05
 cg2d: Sum(rhs),rhsMax =  -8.23850866633229E+01  1.88329744808270E+00
(PID.TID 0000.0001)  ploadbar=  1.01104035857246E+05
 cg2d: Sum(rhs),rhsMax =  -8.22045308710108E+01  1.88744950970009E+00
(PID.TID 0000.0001)  ploadbar=  1.01104386685685E+05
 cg2d: Sum(rhs),rhsMax =  -8.20562404511817E+01  1.89091098693335E+00
(PID.TID 0000.0001)  ploadbar=  1.01104737514123E+05
 cg2d: Sum(rhs),rhsMax =  -8.19251753292711E+01  1.89401627690698E+00
(PID.TID 0000.0001)  ploadbar=  1.01105088342562E+05
 cg2d: Sum(rhs),rhsMax =  -8.17924427570513E+01  1.89719176641638E+00
(PID.TID 0000.0001)  ploadbar=  1.01105439171001E+05
 cg2d: Sum(rhs),rhsMax =  -8.16483901855179E+01  1.90065997557122E+00
(PID.TID 0000.0001)  ploadbar=  1.01105789999440E+05
 cg2d: Sum(rhs),rhsMax =  -8.14895300170604E+01  1.90450102693104E+00
(PID.TID 0000.0001)  ploadbar=  1.01106140827879E+05
 cg2d: Sum(rhs),rhsMax =  -8.13121488407347E+01  1.90880663167601E+00
(PID.TID 0000.0001)  ploadbar=  1.01107159383190E+05
 cg2d: Sum(rhs),rhsMax =  -8.11132304535053E+01  1.91364829035487E+00
(PID.TID 0000.0001)  ploadbar=  1.01108177938501E+05
 cg2d: Sum(rhs),rhsMax =  -8.09028130497324E+01  1.91878933355643E+00
(PID.TID 0000.0001)  ploadbar=  1.01109196493812E+05
 cg2d: Sum(rhs),rhsMax =  -8.06999309001399E+01  1.92377836431987E+00
(PID.TID 0000.0001)  ploadbar=  1.01110215049123E+05
 cg2d: Sum(rhs),rhsMax =  -8.05189283770616E+01  1.92826875837071E+00
(PID.TID 0000.0001)  ploadbar=  1.01111233604434E+05
 cg2d: Sum(rhs),rhsMax =  -8.03714802767292E+01  1.93196949953634E+00
(PID.TID 0000.0001)  ploadbar=  1.01112252159745E+05
 cg2d: Sum(rhs),rhsMax =  -8.02741928693524E+01  1.93448191068393E+00
(PID.TID 0000.0001)  ploadbar=  1.01113756856212E+05
 cg2d: Sum(rhs),rhsMax =  -8.02189350818365E+01  1.93598899365136E+00
(PID.TID 0000.0001)  ploadbar=  1.01115261552679E+05
 cg2d: Sum(rhs),rhsMax =  -8.01938455046989E+01  1.93676767309744E+00
(PID.TID 0000.0001)  ploadbar=  1.01116766249146E+05
 cg2d: Sum(rhs),rhsMax =  -8.01895994310789E+01  1.93703702017824E+00
(PID.TID 0000.0001)  ploadbar=  1.01118270945613E+05
 cg2d: Sum(rhs),rhsMax =  -8.01966157111631E+01  1.93702463379025E+00
(PID.TID 0000.0001)  ploadbar=  1.01119775642081E+05
 cg2d: Sum(rhs),rhsMax =  -8.02095240086262E+01  1.93685546136114E+00
(PID.TID 0000.0001)  ploadbar=  1.01121280338548E+05
 cg2d: Sum(rhs),rhsMax =  -8.02164624457682E+01  1.93679526558930E+00
(PID.TID 0000.0001)  ploadbar=  1.01122866766253E+05
 cg2d: Sum(rhs),rhsMax =  -8.02233164651216E+01  1.93670108457531E+00
(PID.TID 0000.0001)  ploadbar=  1.01124453193958E+05
 cg2d: Sum(rhs),rhsMax =  -8.02324694508378E+01  1.93651258465031E+00
(PID.TID 0000.0001)  ploadbar=  1.01126039621663E+05
 cg2d: Sum(rhs),rhsMax =  -8.02535179361040E+01  1.93599260028939E+00
(PID.TID 0000.0001)  ploadbar=  1.01127626049368E+05
 cg2d: Sum(rhs),rhsMax =  -8.02959444134401E+01  1.93490947309129E+00
(PID.TID 0000.0001)  ploadbar=  1.01129212477073E+05
 cg2d: Sum(rhs),rhsMax =  -8.03717183725338E+01  1.93297197596117E+00
(PID.TID 0000.0001)  ploadbar=  1.01130798904779E+05
 cg2d: Sum(rhs),rhsMax =  -8.05018819431698E+01  1.92976003022178E+00
(PID.TID 0000.0001)  ploadbar=  1.01132346184771E+05
 cg2d: Sum(rhs),rhsMax =  -8.07010049047784E+01  1.92493630579910E+00
(PID.TID 0000.0001)  ploadbar=  1.01133893464763E+05
 cg2d: Sum(rhs),rhsMax =  -8.09848622481098E+01  1.91815057209553E+00
(PID.TID 0000.0001)  ploadbar=  1.01135440744755E+05
 cg2d: Sum(rhs),rhsMax =  -8.13645483477038E+01  1.90918140742097E+00
(PID.TID 0000.0001)  ploadbar=  1.01136988024747E+05
 cg2d: Sum(rhs),rhsMax =  -8.18443840292717E+01  1.89798817243875E+00
(PID.TID 0000.0001)  ploadbar=  1.01138535304740E+05
 cg2d: Sum(rhs),rhsMax =  -8.24144553334352E+01  1.88487434369635E+00
(PID.TID 0000.0001)  ploadbar=  1.01140082584732E+05
 cg2d: Sum(rhs),rhsMax =  -8.30162178526658E+01  1.87122725233062E+00
(PID.TID 0000.0001)  ploadbar=  1.01140379818495E+05
 cg2d: Sum(rhs),rhsMax =  -8.35927052137851E+01  1.85833642396778E+00
(PID.TID 0000.0001)  ploadbar=  1.01140677052258E+05
 cg2d: Sum(rhs),rhsMax =  -8.41028648954651E+01  1.84707433783203E+00
(PID.TID 0000.0001)  ploadbar=  1.01140974286021E+05
 cg2d: Sum(rhs),rhsMax =  -8.45453792315890E+01  1.83740933673420E+00
(PID.TID 0000.0001)  ploadbar=  1.01141271519783E+05
 cg2d: Sum(rhs),rhsMax =  -8.49335292178583E+01  1.82900370584794E+00
(PID.TID 0000.0001)  ploadbar=  1.01141568753546E+05
 cg2d: Sum(rhs),rhsMax =  -8.52785629487601E+01  1.82157844927166E+00
(PID.TID 0000.0001)  ploadbar=  1.01141865987309E+05
 cg2d: Sum(rhs),rhsMax =  -8.56039567607101E+01  1.81462834392406E+00
(PID.TID 0000.0001)  ploadbar=  1.01141480746920E+05
 cg2d: Sum(rhs),rhsMax =  -8.59291116108346E+01  1.80773076441937E+00
(PID.TID 0000.0001)  ploadbar=  1.01141095506530E+05
 cg2d: Sum(rhs),rhsMax =  -8.62578891263314E+01  1.80080254407601E+00
(PID.TID 0000.0001)  ploadbar=  1.01140710266141E+05
 cg2d: Sum(rhs),rhsMax =  -8.65916692989792E+01  1.79381281146400E+00
(PID.TID 0000.0001)  ploadbar=  1.01140325025752E+05
 cg2d: Sum(rhs),rhsMax =  -8.68366568258944E+01  1.78868656962573E+00
(PID.TID 0000.0001)  ploadbar=  1.01139939785363E+05
 cg2d: Sum(rhs),rhsMax =  -8.67706023585390E+01  1.78995933587065E+00
(PID.TID 0000.0001)  ploadbar=  1.01139554544973E+05
 cg2d: Sum(rhs),rhsMax =  -8.67394120046593E+01  1.79051538401300E+00
(PID.TID 0000.0001)  ploadbar=  1.01139264226588E+05
 cg2d: Sum(rhs),rhsMax =  -8.67460713487558E+01  1.79029030682367E+00
(PID.TID 0000.0001)  ploadbar=  1.01138973908202E+05
 cg2d: Sum(rhs),rhsMax =  -8.67938349394577E+01  1.78921339506568E+00
(PID.TID 0000.0001)  ploadbar=  1.01138683589817E+05
 cg2d: Sum(rhs),rhsMax =  -8.68820110043896E+01  1.78729547086423E+00
(PID.TID 0000.0001)  ploadbar=  1.01138393271431E+05
 cg2d: Sum(rhs),rhsMax =  -8.70140415556279E+01  1.78446683527772E+00
(PID.TID 0000.0001)  ploadbar=  1.01138102953046E+05
 cg2d: Sum(rhs),rhsMax =  -8.71920133080587E+01  1.78069055342298E+00
(PID.TID 0000.0001)  ploadbar=  1.01137812634660E+05
 cg2d: Sum(rhs),rhsMax =  -8.74070610157199E+01  1.77621213098950E+00
(PID.TID 0000.0001)  ploadbar=  1.01137570665798E+05
 cg2d: Sum(rhs),rhsMax =  -8.76484354220717E+01  1.77125546004364E+00
(PID.TID 0000.0001)  ploadbar=  1.01137328696936E+05
 cg2d: Sum(rhs),rhsMax =  -8.79138128284028E+01  1.76587123603394E+00
(PID.TID 0000.0001)  ploadbar=  1.01137086728074E+05
 cg2d: Sum(rhs),rhsMax =  -8.77029055939050E+01  1.77010380280232E+00
(PID.TID 0000.0001)  ploadbar=  1.01136844759211E+05
 cg2d: Sum(rhs),rhsMax =  -8.73559352984398E+01  1.77713940647543E+00
(PID.TID 0000.0001)  ploadbar=  1.01136602790349E+05
 cg2d: Sum(rhs),rhsMax =  -8.69602559897293E+01  1.78524703718688E+00
(PID.TID 0000.0001)  ploadbar=  1.01136360821487E+05
 cg2d: Sum(rhs),rhsMax =  -8.65342059424107E+01  1.79406979961979E+00
(PID.TID 0000.0001)  ploadbar=  1.01135925177494E+05
 cg2d: Sum(rhs),rhsMax =  -8.61241479009440E+01  1.80265103562256E+00
(PID.TID 0000.0001)  ploadbar=  1.01135489533500E+05
 cg2d: Sum(rhs),rhsMax =  -8.57370615697025E+01  1.81082833571018E+00
(PID.TID 0000.0001)  ploadbar=  1.01135053889507E+05
 cg2d: Sum(rhs),rhsMax =  -8.53716358882533E+01  1.81861379901892E+00
(PID.TID 0000.0001)  ploadbar=  1.01134618245514E+05
 cg2d: Sum(rhs),rhsMax =  -8.50226588083432E+01  1.82610232804595E+00
(PID.TID 0000.0001)  ploadbar=  1.01134182601520E+05
 cg2d: Sum(rhs),rhsMax =  -8.46791108831843E+01  1.83352090866764E+00
(PID.TID 0000.0001)  ploadbar=  1.01133746957527E+05
 cg2d: Sum(rhs),rhsMax =  -8.43255117189809E+01  1.84123830345288E+00
(PID.TID 0000.0001)  ploadbar=  1.01132466444807E+05
 cg2d: Sum(rhs),rhsMax =  -8.39702054310418E+01  1.84907061689119E+00
(PID.TID 0000.0001)  ploadbar=  1.01131185932088E+05
 cg2d: Sum(rhs),rhsMax =  -8.36143742382694E+01  1.85699319785599E+00
(PID.TID 0000.0001)  ploadbar=  1.01129905419368E+05
 cg2d: Sum(rhs),rhsMax =  -8.32606403816109E+01  1.86494442347653E+00
(PID.TID 0000.0001)  ploadbar=  1.01128624906648E+05
 cg2d: Sum(rhs),rhsMax =  -8.29143209861609E+01  1.87279694634427E+00
(PID.TID 0000.0001)  ploadbar=  1.01127344393928E+05
 cg2d: Sum(rhs),rhsMax =  -8.25824582430206E+01  1.88038131388299E+00
(PID.TID 0000.0001)  ploadbar=  1.01126063881209E+05
 cg2d: Sum(rhs),rhsMax =  -8.22821744625377E+01  1.88728542258742E+00
(PID.TID 0000.0001)  ploadbar=  1.01126127400098E+05
 cg2d: Sum(rhs),rhsMax =  -8.20178824955676E+01  1.89339058933621E+00
(PID.TID 0000.0001)  ploadbar=  1.01126190918988E+05
 cg2d: Sum(rhs),rhsMax =  -8.17873004509733E+01  1.89873194458625E+00
(PID.TID 0000.0001)  ploadbar=  1.01126254437878E+05
 cg2d: Sum(rhs),rhsMax =  -8.15836954959777E+01  1.90344615520903E+00
(PID.TID 0000.0001)  ploadbar=  1.01126317956767E+05
 cg2d: Sum(rhs),rhsMax =  -8.14027509028192E+01  1.90761769892697E+00
(PID.TID 0000.0001)  ploadbar=  1.01126381475657E+05
 cg2d: Sum(rhs),rhsMax =  -8.12365660905637E+01  1.91142037553312E+00
(PID.TID 0000.0001)  ploadbar=  1.01126444994547E+05
 cg2d: Sum(rhs),rhsMax =  -8.11006369444712E+01  1.91456432759846E+00
(PID.TID 0000.0001)  ploadbar=  1.01125709719917E+05
 cg2d: Sum(rhs),rhsMax =  -8.09634374738457E+01  1.91778312551288E+00
(PID.TID 0000.0001)  ploadbar=  1.01124974445288E+05
 cg2d: Sum(rhs),rhsMax =  -8.08369200625236E+01  1.92078245319699E+00
(PID.TID 0000.0001)  ploadbar=  1.01124239170659E+05
 cg2d: Sum(rhs),rhsMax =  -8.07369490165939E+01  1.92317181365176E+00
(PID.TID 0000.0001)  ploadbar=  1.01123503896029E+05
 cg2d: Sum(rhs),rhsMax =  -8.06775459568886E+01  1.92460600107769E+00
(PID.TID 0000.0001)  ploadbar=  1.01122768621400E+05
 cg2d: Sum(rhs),rhsMax =  -8.06646600026229E+01  1.92493148145666E+00
(PID.TID 0000.0001)  ploadbar=  1.01122033346771E+05
 cg2d: Sum(rhs),rhsMax =  -8.07143128597435E+01  1.92378161118518E+00
(PID.TID 0000.0001)  ploadbar=  1.01120472338313E+05
 cg2d: Sum(rhs),rhsMax =  -8.08269834916483E+01  1.92114720783418E+00
(PID.TID 0000.0001)  ploadbar=  1.01118911329854E+05
 cg2d: Sum(rhs),rhsMax =  -8.10124794395992E+01  1.91680483299852E+00
(PID.TID 0000.0001)  ploadbar=  1.01117350321396E+05
 cg2d: Sum(rhs),rhsMax =  -8.12881434697534E+01  1.91036638785154E+00
(PID.TID 0000.0001)  ploadbar=  1.01115789312938E+05
 cg2d: Sum(rhs),rhsMax =  -8.16569754995743E+01  1.90180004924817E+00
(PID.TID 0000.0001)  ploadbar=  1.01114228304479E+05
 cg2d: Sum(rhs),rhsMax =  -8.21162781096566E+01  1.89122060406273E+00
(PID.TID 0000.0001)  ploadbar=  1.01112667296021E+05
 cg2d: Sum(rhs),rhsMax =  -8.26882211733043E+01  1.87820575968912E+00
(PID.TID 0000.0001)  ploadbar=  1.01111649680713E+05
 cg2d: Sum(rhs),rhsMax =  -8.33554726701774E+01  1.86324179481860E+00
(PID.TID 0000.0001)  ploadbar=  1.01110632065404E+05
 cg2d: Sum(rhs),rhsMax =  -8.40632614270463E+01  1.84762534939941E+00
(PID.TID 0000.0001)  ploadbar=  1.01109614450096E+05
 cg2d: Sum(rhs),rhsMax =  -8.47359476413777E+01  1.83302674691817E+00
(PID.TID 0000.0001)  ploadbar=  1.01108596834788E+05
 cg2d: Sum(rhs),rhsMax =  -8.53119130782780E+01  1.82071117716947E+00
(PID.TID 0000.0001)  ploadbar=  1.01107579219480E+05
 cg2d: Sum(rhs),rhsMax =  -8.57743219552694E+01  1.81093884097742E+00
(PID.TID 0000.0001)  ploadbar=  1.01106561604171E+05
 cg2d: Sum(rhs),rhsMax =  -8.61413471043363E+01  1.80324099697217E+00
(PID.TID 0000.0001)  ploadbar=  1.01106183224004E+05
 cg2d: Sum(rhs),rhsMax =  -8.63921364022837E+01  1.79799669260445E+00
(PID.TID 0000.0001)  ploadbar=  1.01105804843837E+05
 cg2d: Sum(rhs),rhsMax =  -8.64842214595463E+01  1.79604101237558E+00
(PID.TID 0000.0001)  ploadbar=  1.01105426463669E+05
 cg2d: Sum(rhs),rhsMax =  -8.65231404032055E+01  1.79515446816337E+00
(PID.TID 0000.0001)  ploadbar=  1.01105048083502E+05
 cg2d: Sum(rhs),rhsMax =  -8.66598303329163E+01  1.79220536904721E+00
(PID.TID 0000.0001)  ploadbar=  1.01104669703335E+05
 cg2d: Sum(rhs),rhsMax =  -8.69461908231343E+01  1.78614160377950E+00
(PID.TID 0000.0001)  ploadbar=  1.01104291323168E+05
 cg2d: Sum(rhs),rhsMax =  -8.71793697144032E+01  1.78122901562636E+00
(PID.TID 0000.0001)  ploadbar=  1.01103957587280E+05
 cg2d: Sum(rhs),rhsMax =  -8.74579119128442E+01  1.77544193814929E+00
(PID.TID 0000.0001)  ploadbar=  1.01103623851393E+05
 cg2d: Sum(rhs),rhsMax =  -8.77409566737906E+01  1.76961937985304E+00
(PID.TID 0000.0001)  ploadbar=  1.01103290115506E+05
 cg2d: Sum(rhs),rhsMax =  -8.79814823125635E+01  1.76470257917375E+00
(PID.TID 0000.0001)  ploadbar=  1.01102956379618E+05
 cg2d: Sum(rhs),rhsMax =  -8.81747187755918E+01  1.76077033570341E+00
(PID.TID 0000.0001)  ploadbar=  1.01102622643731E+05
 cg2d: Sum(rhs),rhsMax =  -8.83467795468375E+01  1.75728658157416E+00
(PID.TID 0000.0001)  ploadbar=  1.01102288907844E+05
 cg2d: Sum(rhs),rhsMax =  -8.85438725476629E+01  1.75331453725521E+00
(PID.TID 0000.0001)  ploadbar=  1.01101898568096E+05
 cg2d: Sum(rhs),rhsMax =  -8.85067238520627E+01  1.75398214132516E+00
(PID.TID 0000.0001)  ploadbar=  1.01101508228348E+05
 cg2d: Sum(rhs),rhsMax =  -8.82214170409991E+01  1.75957258093959E+00
(PID.TID 0000.0001)  ploadbar=  1.01101117888599E+05
 cg2d: Sum(rhs),rhsMax =  -8.77609870924720E+01  1.76870630773189E+00
(PID.TID 0000.0001)  ploadbar=  1.01100727548851E+05
 cg2d: Sum(rhs),rhsMax =  -8.72431693681199E+01  1.77908764104012E+00
(PID.TID 0000.0001)  ploadbar=  1.01100337209103E+05
 cg2d: Sum(rhs),rhsMax =  -8.67284889393100E+01  1.78950492299635E+00
(PID.TID 0000.0001)  ploadbar=  1.01099946869355E+05
 cg2d: Sum(rhs),rhsMax =  -8.61992675565377E+01  1.80034880828337E+00
(PID.TID 0000.0001)  ploadbar=  1.01099321508883E+05
 cg2d: Sum(rhs),rhsMax =  -8.56708860952070E+01  1.81130374888675E+00
(PID.TID 0000.0001)  ploadbar=  1.01098696148411E+05
 cg2d: Sum(rhs),rhsMax =  -8.50622038640968E+01  1.82410618766674E+00
(PID.TID 0000.0001)  ploadbar=  1.01098070787938E+05
 cg2d: Sum(rhs),rhsMax =  -8.43089746587433E+01  1.84022954752971E+00
(PID.TID 0000.0001)  ploadbar=  1.01097445427466E+05
 cg2d: Sum(rhs),rhsMax =  -8.34146435693012E+01  1.85976765734977E+00
(PID.TID 0000.0001)  ploadbar=  1.01096820066994E+05
 cg2d: Sum(rhs),rhsMax =  -8.24061220853464E+01  1.88231192897764E+00
(PID.TID 0000.0001)  ploadbar=  1.01096194706521E+05
 cg2d: Sum(rhs),rhsMax =  -8.13434389902355E+01  1.90666805901590E+00
(PID.TID 0000.0001)  ploadbar=  1.01095769431838E+05
 cg2d: Sum(rhs),rhsMax =  -8.02818680212033E+01  1.93162392644227E+00
(PID.TID 0000.0001)  ploadbar=  1.01095344157155E+05
 cg2d: Sum(rhs),rhsMax =  -7.92850569815068E+01  1.95562753278121E+00
(PID.TID 0000.0001)  ploadbar=  1.01094918882472E+05
 cg2d: Sum(rhs),rhsMax =  -7.84066698349751E+01  1.97722475674277E+00
(PID.TID 0000.0001)  ploadbar=  1.01094493607789E+05
 cg2d: Sum(rhs),rhsMax =  -7.76865181039322E+01  1.99521011998358E+00
(PID.TID 0000.0001)  ploadbar=  1.01094068333106E+05
 cg2d: Sum(rhs),rhsMax =  -7.71589103960750E+01  2.00847286242011E+00
(PID.TID 0000.0001)  ploadbar=  1.01093643058423E+05
 cg2d: Sum(rhs),rhsMax =  -7.67992250800030E+01  2.01756177817243E+00
(PID.TID 0000.0001)  ploadbar=  1.01092902975532E+05
 cg2d: Sum(rhs),rhsMax =  -7.66139317914449E+01  2.02218226033937E+00
(PID.TID 0000.0001)  ploadbar=  1.01092162892641E+05
 cg2d: Sum(rhs),rhsMax =  -7.66017284200094E+01  2.02230372246215E+00
(PID.TID 0000.0001)  ploadbar=  1.01091422809750E+05
 cg2d: Sum(rhs),rhsMax =  -7.68009992831675E+01  2.01691057439759E+00
(PID.TID 0000.0001)  ploadbar=  1.01090682726860E+05
 cg2d: Sum(rhs),rhsMax =  -7.72362181070010E+01  2.00545277041000E+00
(PID.TID 0000.0001)  ploadbar=  1.01089942643969E+05
 cg2d: Sum(rhs),rhsMax =  -7.79274612970916E+01  1.98761876274576E+00
(PID.TID 0000.0001)  ploadbar=  1.01089202561078E+05
 cg2d: Sum(rhs),rhsMax =  -7.88645484129050E+01  1.96394346204817E+00
(PID.TID 0000.0001)  ploadbar=  1.01088497319894E+05
 cg2d: Sum(rhs),rhsMax =  -8.00564005050421E+01  1.93462980899997E+00
(PID.TID 0000.0001)  ploadbar=  1.01087792078710E+05
 cg2d: Sum(rhs),rhsMax =  -8.14882949724424E+01  1.90053911759129E+00
(PID.TID 0000.0001)  ploadbar=  1.01087086837526E+05
 cg2d: Sum(rhs),rhsMax =  -8.30838002227875E+01  1.86392279066360E+00
(PID.TID 0000.0001)  ploadbar=  1.01086381596342E+05
 cg2d: Sum(rhs),rhsMax =  -8.45185366693357E+01  1.83213739580245E+00
(PID.TID 0000.0001)  ploadbar=  1.01085676355158E+05
 cg2d: Sum(rhs),rhsMax =  -8.58192591750511E+01  1.80419860404114E+00
(PID.TID 0000.0001)  ploadbar=  1.01084971113975E+05
 cg2d: Sum(rhs),rhsMax =  -8.70656479792302E+01  1.77821513528912E+00
(PID.TID 0000.0001)  ploadbar=  1.01084179331509E+05
 cg2d: Sum(rhs),rhsMax =  -8.83308714777986E+01  1.75259826402300E+00
(PID.TID 0000.0001)  ploadbar=  1.01083387549044E+05
 cg2d: Sum(rhs),rhsMax =  -8.95588787474036E+01  1.72842639310205E+00
(PID.TID 0000.0001)  ploadbar=  1.01082595766579E+05
 cg2d: Sum(rhs),rhsMax =  -9.07428102741411E+01  1.70573513865937E+00
(PID.TID 0000.0001)  ploadbar=  1.01081803984114E+05
 cg2d: Sum(rhs),rhsMax =  -9.19588825192229E+01  1.68303631703058E+00
(PID.TID 0000.0001)  ploadbar=  1.01081012201649E+05
 cg2d: Sum(rhs),rhsMax =  -9.36006202718618E+01  1.65336948098281E+00
(PID.TID 0000.0001)  ploadbar=  1.01080220419184E+05
 cg2d: Sum(rhs),rhsMax =  -9.57681415218762E+01  1.61580783637921E+00
(PID.TID 0000.0001)  ploadbar=  1.01078893475254E+05
 cg2d: Sum(rhs),rhsMax =  -9.83919256716154E+01  1.57258466469692E+00
(PID.TID 0000.0001)  ploadbar=  1.01077566531324E+05
 cg2d: Sum(rhs),rhsMax =  -1.00851760054135E+02  1.53409594207244E+00
(PID.TID 0000.0001)  ploadbar=  1.01076239587394E+05
 cg2d: Sum(rhs),rhsMax =  -1.02332467712552E+02  1.51176568310600E+00
(PID.TID 0000.0001)  ploadbar=  1.01074912643464E+05
 cg2d: Sum(rhs),rhsMax =  -1.02562147590315E+02  1.50824212178945E+00
(PID.TID 0000.0001)  ploadbar=  1.01073585699534E+05
 cg2d: Sum(rhs),rhsMax =  -1.02084802863864E+02  1.51514918715791E+00
(PID.TID 0000.0001)  ploadbar=  1.01072258755604E+05
 cg2d: Sum(rhs),rhsMax =  -1.01758089321667E+02  1.51989542855847E+00
(PID.TID 0000.0001)  ploadbar=  1.01071251530683E+05
 cg2d: Sum(rhs),rhsMax =  -1.01678305348936E+02  1.52099477893299E+00
(PID.TID 0000.0001)  ploadbar=  1.01070244305762E+05
 cg2d: Sum(rhs),rhsMax =  -1.01802517636926E+02  1.51906921677208E+00
(PID.TID 0000.0001)  ploadbar=  1.01069237080841E+05
 cg2d: Sum(rhs),rhsMax =  -1.02002802913973E+02  1.51603272021956E+00
(PID.TID 0000.0001)  ploadbar=  1.01068229855920E+05
 cg2d: Sum(rhs),rhsMax =  -1.02145350473139E+02  1.51387838932240E+00
(PID.TID 0000.0001)  ploadbar=  1.01067222630999E+05
 cg2d: Sum(rhs),rhsMax =  -1.02141990867984E+02  1.51390570303279E+00
(PID.TID 0000.0001)  ploadbar=  1.01066215406077E+05
 cg2d: Sum(rhs),rhsMax =  -1.01999408107963E+02  1.51596185901835E+00
(PID.TID 0000.0001)  ploadbar=  1.01064839522011E+05
 cg2d: Sum(rhs),rhsMax =  -1.01759496744985E+02  1.51943469948330E+00
(PID.TID 0000.0001)  ploadbar=  1.01063463637945E+05
 cg2d: Sum(rhs),rhsMax =  -1.01474015728216E+02  1.52356359698360E+00
(PID.TID 0000.0001)  ploadbar=  1.01062087753879E+05
 cg2d: Sum(rhs),rhsMax =  -1.01228958026464E+02  1.52705770675034E+00
(PID.TID 0000.0001)  ploadbar=  1.01060711869813E+05
 cg2d: Sum(rhs),rhsMax =  -1.01105269401705E+02  1.52867839665799E+00
(PID.TID 0000.0001)  ploadbar=  1.01059335985746E+05
 cg2d: Sum(rhs),rhsMax =  -9.82810711770333E+01  1.57229399536470E+00
(PID.TID 0000.0001)  ploadbar=  1.01057960101680E+05
 cg2d: Sum(rhs),rhsMax =  -9.57340093346398E+01  1.61383277889494E+00
(PID.TID 0000.0001)  ploadbar=  1.01057083543256E+05
 cg2d: Sum(rhs),rhsMax =  -9.36449773633396E+01  1.64955886974032E+00
(PID.TID 0000.0001)  ploadbar=  1.01056206984832E+05
 cg2d: Sum(rhs),rhsMax =  -9.19681664693418E+01  1.67937439133064E+00
(PID.TID 0000.0001)  ploadbar=  1.01055330426408E+05
 cg2d: Sum(rhs),rhsMax =  -9.06953907632282E+01  1.70269384543919E+00
(PID.TID 0000.0001)  ploadbar=  1.01054453867984E+05
 cg2d: Sum(rhs),rhsMax =  -8.97708266303022E+01  1.71999134661422E+00
(PID.TID 0000.0001)  ploadbar=  1.01053577309560E+05
 cg2d: Sum(rhs),rhsMax =  -8.91326521113278E+01  1.73207175393921E+00
(PID.TID 0000.0001)  ploadbar=  1.01052700751136E+05
 cg2d: Sum(rhs),rhsMax =  -8.88252018263790E+01  1.73784117998348E+00
(PID.TID 0000.0001)  ploadbar=  1.01053137811518E+05
 cg2d: Sum(rhs),rhsMax =  -8.87018099630659E+01  1.74003828141927E+00
(PID.TID 0000.0001)  ploadbar=  1.01053574871899E+05
 cg2d: Sum(rhs),rhsMax =  -8.86712903883553E+01  1.74042186804090E+00
(PID.TID 0000.0001)  ploadbar=  1.01054011932280E+05
 cg2d: Sum(rhs),rhsMax =  -8.87506706250932E+01  1.73864900896188E+00
(PID.TID 0000.0001)  ploadbar=  1.01054448992661E+05
 cg2d: Sum(rhs),rhsMax =  -8.89696493929112E+01  1.73415025684381E+00
(PID.TID 0000.0001)  ploadbar=  1.01054886053042E+05
 cg2d: Sum(rhs),rhsMax =  -8.93288184076118E+01  1.72695457981795E+00
(PID.TID 0000.0001)  ploadbar=  1.01055323113424E+05
 cg2d: Sum(rhs),rhsMax =  -8.97898686071897E+01  1.71790992232532E+00
(PID.TID 0000.0001)  ploadbar=  1.01055728141227E+05
 cg2d: Sum(rhs),rhsMax =  -9.03550266726649E+01  1.70702825092564E+00
(PID.TID 0000.0001)  ploadbar=  1.01056133169030E+05
 cg2d: Sum(rhs),rhsMax =  -9.09596230931755E+01  1.69558337204059E+00
(PID.TID 0000.0001)  ploadbar=  1.01056538196833E+05
 cg2d: Sum(rhs),rhsMax =  -9.16017758991210E+01  1.68363197981196E+00
(PID.TID 0000.0001)  ploadbar=  1.01056943224636E+05
 cg2d: Sum(rhs),rhsMax =  -9.22823719683019E+01  1.67118175661205E+00
(PID.TID 0000.0001)  ploadbar=  1.01057348252439E+05
 cg2d: Sum(rhs),rhsMax =  -9.29850266877585E+01  1.65854691278326E+00
(PID.TID 0000.0001)  ploadbar=  1.01057753280242E+05
 cg2d: Sum(rhs),rhsMax =  -9.37087068761929E+01  1.64572956960372E+00
(PID.TID 0000.0001)  ploadbar=  1.01058589965601E+05
 cg2d: Sum(rhs),rhsMax =  -9.45786586745211E+01  1.63057836931661E+00
(PID.TID 0000.0001)  ploadbar=  1.01059426650959E+05
 cg2d: Sum(rhs),rhsMax =  -9.57185311549861E+01  1.61113797375621E+00
(PID.TID 0000.0001)  ploadbar=  1.01060263336318E+05
 cg2d: Sum(rhs),rhsMax =  -9.68289355182571E+01  1.59262837700645E+00
(PID.TID 0000.0001)  ploadbar=  1.01061100021676E+05
 cg2d: Sum(rhs),rhsMax =  -9.78932847893739E+01  1.57526452540753E+00
(PID.TID 0000.0001)  ploadbar=  1.01061936707034E+05
 cg2d: Sum(rhs),rhsMax =  -9.88390748300195E+01  1.56012606519382E+00
(PID.TID 0000.0001)  ploadbar=  1.01062773392393E+05
 cg2d: Sum(rhs),rhsMax =  -9.97147474173928E+01  1.54638536235648E+00
(PID.TID 0000.0001)  ploadbar=  1.01063575913474E+05
 cg2d: Sum(rhs),rhsMax =  -1.00494092690712E+02  1.53437028461993E+00
(PID.TID 0000.0001)  ploadbar=  1.01064378434556E+05
 cg2d: Sum(rhs),rhsMax =  -1.01159765688758E+02  1.52426238739305E+00
(PID.TID 0000.0001)  ploadbar=  1.01065180955637E+05
 cg2d: Sum(rhs),rhsMax =  -1.01700060107287E+02  1.51615983391435E+00
(PID.TID 0000.0001)  ploadbar=  1.01065983476719E+05
 cg2d: Sum(rhs),rhsMax =  -1.02193500654331E+02  1.50883746764720E+00
(PID.TID 0000.0001)  ploadbar=  1.01066785997800E+05
 cg2d: Sum(rhs),rhsMax =  -1.02765466517673E+02  1.50043858850692E+00
(PID.TID 0000.0001)  ploadbar=  1.01067588518882E+05
 cg2d: Sum(rhs),rhsMax =  -1.03463369529648E+02  1.49032685493222E+00
(PID.TID 0000.0001)  ploadbar=  1.01069771228039E+05
 cg2d: Sum(rhs),rhsMax =  -1.04284012941004E+02  1.47861447654303E+00
(PID.TID 0000.0001)  ploadbar=  1.01071953937195E+05
 cg2d: Sum(rhs),rhsMax =  -1.05205924465987E+02  1.46567588154954E+00
(PID.TID 0000.0001)  ploadbar=  1.01074136646352E+05
 cg2d: Sum(rhs),rhsMax =  -1.06244156553715E+02  1.45136947845836E+00
(PID.TID 0000.0001)  ploadbar=  1.01076319355508E+05
 cg2d: Sum(rhs),rhsMax =  -1.07611376025102E+02  1.43294013954515E+00
(PID.TID 0000.0001)  ploadbar=  1.01078502064665E+05
 cg2d: Sum(rhs),rhsMax =  -1.09350699141504E+02  1.41014967804410E+00
(PID.TID 0000.0001)  ploadbar=  1.01080684773822E+05
 cg2d: Sum(rhs),rhsMax =  -1.11359905449723E+02  1.38474735142923E+00
(PID.TID 0000.0001)  ploadbar=  1.01082665736174E+05
 cg2d: Sum(rhs),rhsMax =  -1.13905938566600E+02  1.35387008562234E+00
(PID.TID 0000.0001)  ploadbar=  1.01084646698526E+05
 cg2d: Sum(rhs),rhsMax =  -1.16957741929631E+02  1.31864530691879E+00
(PID.TID 0000.0001)  ploadbar=  1.01086627660879E+05
 cg2d: Sum(rhs),rhsMax =  -1.20433080031229E+02  1.28071782501642E+00
(PID.TID 0000.0001)  ploadbar=  1.01088608623231E+05
 cg2d: Sum(rhs),rhsMax =  -1.20040245714698E+02  1.28505608350487E+00
(PID.TID 0000.0001)  ploadbar=  1.01090589585583E+05
 cg2d: Sum(rhs),rhsMax =  -1.18955354740853E+02  1.29694186744846E+00
(PID.TID 0000.0001)  ploadbar=  1.01092570547935E+05
 cg2d: Sum(rhs),rhsMax =  -1.18146952940800E+02  1.30597865436225E+00
(PID.TID 0000.0001)  ploadbar=  1.01094953647880E+05
 cg2d: Sum(rhs),rhsMax =  -1.17697871932708E+02  1.31111890497488E+00
(PID.TID 0000.0001)  ploadbar=  1.01097336747825E+05
 cg2d: Sum(rhs),rhsMax =  -1.17530582970344E+02  1.31313234975110E+00
(PID.TID 0000.0001)  ploadbar=  1.01099719847770E+05
 cg2d: Sum(rhs),rhsMax =  -1.17506802202968E+02  1.31353217566338E+00
(PID.TID 0000.0001)  ploadbar=  1.01102102947715E+05
 cg2d: Sum(rhs),rhsMax =  -1.16422408220336E+02  1.32588669630831E+00
(PID.TID 0000.0001)  ploadbar=  1.01104486047660E+05
 cg2d: Sum(rhs),rhsMax =  -1.14853559926099E+02  1.34409842067777E+00
(PID.TID 0000.0001)  ploadbar=  1.01106869147605E+05
 cg2d: Sum(rhs),rhsMax =  -1.13207785588110E+02  1.36376088508844E+00
(PID.TID 0000.0001)  ploadbar=  1.01107096269921E+05
 cg2d: Sum(rhs),rhsMax =  -1.11535668502716E+02  1.38434596246427E+00
(PID.TID 0000.0001)  ploadbar=  1.01107323392237E+05
 cg2d: Sum(rhs),rhsMax =  -1.09861020738412E+02  1.40560280483878E+00
(PID.TID 0000.0001)  ploadbar=  1.01107550514553E+05
 cg2d: Sum(rhs),rhsMax =  -1.08208798395844E+02  1.42723059808357E+00
(PID.TID 0000.0001)  ploadbar=  1.01107777636869E+05
 cg2d: Sum(rhs),rhsMax =  -1.06615879000376E+02  1.44872514200405E+00
(PID.TID 0000.0001)  ploadbar=  1.01108004759185E+05
 cg2d: Sum(rhs),rhsMax =  -1.05122938245738E+02  1.46947015203117E+00
(PID.TID 0000.0001)  ploadbar=  1.01108231881501E+05
 cg2d: Sum(rhs),rhsMax =  -1.03662737674633E+02  1.49033597792902E+00
(PID.TID 0000.0001)  ploadbar=  1.01107473926622E+05
 cg2d: Sum(rhs),rhsMax =  -1.02179388559809E+02  1.51213032914206E+00
(PID.TID 0000.0001)  ploadbar=  1.01106715971743E+05
 cg2d: Sum(rhs),rhsMax =  -1.00672062213855E+02  1.53491946493760E+00
(PID.TID 0000.0001)  ploadbar=  1.01105958016864E+05
 cg2d: Sum(rhs),rhsMax =  -9.91666696441398E+01  1.55835292950615E+00
(PID.TID 0000.0001)  ploadbar=  1.01105200061985E+05
 cg2d: Sum(rhs),rhsMax =  -9.76843761812711E+01  1.58211198941970E+00
(PID.TID 0000.0001)  ploadbar=  1.01104442107107E+05
 cg2d: Sum(rhs),rhsMax =  -9.62425601619532E+01  1.60589937409131E+00
(PID.TID 0000.0001)  ploadbar=  1.01103684152228E+05
 cg2d: Sum(rhs),rhsMax =  -9.48374280301816E+01  1.62982242278529E+00
(PID.TID 0000.0001)  ploadbar=  1.01103293558000E+05
 cg2d: Sum(rhs),rhsMax =  -9.34853580043099E+01  1.65356705681866E+00
(PID.TID 0000.0001)  ploadbar=  1.01102902963771E+05
 cg2d: Sum(rhs),rhsMax =  -9.22344077798849E+01  1.67620568018750E+00
(PID.TID 0000.0001)  ploadbar=  1.01102512369543E+05
 cg2d: Sum(rhs),rhsMax =  -9.11625186569447E+01  1.69616201351143E+00
(PID.TID 0000.0001)  ploadbar=  1.01102121775315E+05
 cg2d: Sum(rhs),rhsMax =  -9.03637529839627E+01  1.71143477067063E+00
(PID.TID 0000.0001)  ploadbar=  1.01101731181087E+05
 cg2d: Sum(rhs),rhsMax =  -8.99146001993662E+01  1.72029072120103E+00
(PID.TID 0000.0001)  ploadbar=  1.01101340586859E+05
 cg2d: Sum(rhs),rhsMax =  -8.99357884920031E+01  1.72017340555191E+00
(PID.TID 0000.0001)  ploadbar=  1.01100324242943E+05
 cg2d: Sum(rhs),rhsMax =  -9.03904910557054E+01  1.71178502080819E+00
(PID.TID 0000.0001)  ploadbar=  1.01099307899027E+05
 cg2d: Sum(rhs),rhsMax =  -9.10619395317330E+01  1.69939425712074E+00
(PID.TID 0000.0001)  ploadbar=  1.01098291555112E+05
 cg2d: Sum(rhs),rhsMax =  -9.17043484107201E+01  1.68767623597750E+00
(PID.TID 0000.0001)  ploadbar=  1.01097275211196E+05
 cg2d: Sum(rhs),rhsMax =  -9.23074153922612E+01  1.67678629626257E+00
(PID.TID 0000.0001)  ploadbar=  1.01096258867280E+05
 cg2d: Sum(rhs),rhsMax =  -9.29046607459646E+01  1.66608572235084E+00
(PID.TID 0000.0001)  ploadbar=  1.01095242523364E+05
 cg2d: Sum(rhs),rhsMax =  -9.34971870521805E+01  1.65562740954908E+00
(PID.TID 0000.0001)  ploadbar=  1.01094228134144E+05
 cg2d: Sum(rhs),rhsMax =  -9.40781638983551E+01  1.64551919519428E+00
(PID.TID 0000.0001)  ploadbar=  1.01093213744924E+05
 cg2d: Sum(rhs),rhsMax =  -9.43578233158223E+01  1.64076533409519E+00
(PID.TID 0000.0001)  ploadbar=  1.01092199355704E+05
 cg2d: Sum(rhs),rhsMax =  -9.30624185736660E+01  1.66372996767298E+00
(PID.TID 0000.0001)  ploadbar=  1.01091184966483E+05
 cg2d: Sum(rhs),rhsMax =  -9.19112200138298E+01  1.68468890905795E+00
(PID.TID 0000.0001)  ploadbar=  1.01090170577263E+05
 cg2d: Sum(rhs),rhsMax =  -9.09673380201882E+01  1.70227681313583E+00
(PID.TID 0000.0001)  ploadbar=  1.01089156188043E+05
 cg2d: Sum(rhs),rhsMax =  -9.01943650810208E+01  1.71694828327938E+00
(PID.TID 0000.0001)  ploadbar=  1.01087888161960E+05
 cg2d: Sum(rhs),rhsMax =  -8.95603702133778E+01  1.72915894641264E+00
(PID.TID 0000.0001)  ploadbar=  1.01086620135877E+05
 cg2d: Sum(rhs),rhsMax =  -8.90435952670834E+01  1.73921898196535E+00
(PID.TID 0000.0001)  ploadbar=  1.01085352109794E+05
 cg2d: Sum(rhs),rhsMax =  -8.86211469326837E+01  1.74749867647304E+00
(PID.TID 0000.0001)  ploadbar=  1.01084084083711E+05
 cg2d: Sum(rhs),rhsMax =  -8.82706490330025E+01  1.75438908405866E+00
(PID.TID 0000.0001)  ploadbar=  1.01082816057628E+05
 cg2d: Sum(rhs),rhsMax =  -8.79713843947536E+01  1.76026981437497E+00
(PID.TID 0000.0001)  ploadbar=  1.01081548031545E+05
 cg2d: Sum(rhs),rhsMax =  -8.77161618558379E+01  1.76535368284034E+00
(PID.TID 0000.0001)  ploadbar=  1.01081315833012E+05
 cg2d: Sum(rhs),rhsMax =  -8.74888037546491E+01  1.76994953289878E+00
(PID.TID 0000.0001)  ploadbar=  1.01081083634479E+05
 cg2d: Sum(rhs),rhsMax =  -8.72859656761242E+01  1.77411414565210E+00
(PID.TID 0000.0001)  ploadbar=  1.01080851435946E+05
 cg2d: Sum(rhs),rhsMax =  -8.71213827807372E+01  1.77755266744758E+00
(PID.TID 0000.0001)  ploadbar=  1.01080619237413E+05
 cg2d: Sum(rhs),rhsMax =  -8.70098909051555E+01  1.77994874452466E+00
(PID.TID 0000.0001)  ploadbar=  1.01080387038880E+05
 cg2d: Sum(rhs),rhsMax =  -8.69712111978981E+01  1.78088242188889E+00
(PID.TID 0000.0001)  ploadbar=  1.01080154840347E+05
 cg2d: Sum(rhs),rhsMax =  -8.70307803136882E+01  1.77980737519560E+00
(PID.TID 0000.0001)  ploadbar=  1.01079870038218E+05
 cg2d: Sum(rhs),rhsMax =  -8.72217373014776E+01  1.77605287941035E+00
(PID.TID 0000.0001)  ploadbar=  1.01079585236089E+05
 cg2d: Sum(rhs),rhsMax =  -8.75363665158786E+01  1.76980509598762E+00
(PID.TID 0000.0001)  ploadbar=  1.01079300433960E+05
 cg2d: Sum(rhs),rhsMax =  -8.79489722723234E+01  1.76162682413537E+00
(PID.TID 0000.0001)  ploadbar=  1.01079015631832E+05
 cg2d: Sum(rhs),rhsMax =  -8.84379892532568E+01  1.75199495191026E+00
(PID.TID 0000.0001)  ploadbar=  1.01078730829703E+05
 cg2d: Sum(rhs),rhsMax =  -8.79140323750552E+01  1.76252607861301E+00
(PID.TID 0000.0001)  ploadbar=  1.01078446027574E+05
 cg2d: Sum(rhs),rhsMax =  -8.75663898724412E+01  1.76962972204433E+00
(PID.TID 0000.0001)  ploadbar=  1.01077352045043E+05
 cg2d: Sum(rhs),rhsMax =  -8.73158346884019E+01  1.77482782304627E+00
(PID.TID 0000.0001)  ploadbar=  1.01076258062513E+05
 cg2d: Sum(rhs),rhsMax =  -8.70766588966156E+01  1.77983182940147E+00
(PID.TID 0000.0001)  ploadbar=  1.01075164079982E+05
 cg2d: Sum(rhs),rhsMax =  -8.67080419889556E+01  1.78753065460137E+00
(PID.TID 0000.0001)  ploadbar=  1.01074070097451E+05
 cg2d: Sum(rhs),rhsMax =  -8.65576171379047E+01  1.79076733163444E+00
(PID.TID 0000.0001)  ploadbar=  1.01072976114921E+05
 cg2d: Sum(rhs),rhsMax =  -8.68574109715491E+01  1.78470718193030E+00
(PID.TID 0000.0001)  ploadbar=  1.01071882132390E+05
 cg2d: Sum(rhs),rhsMax =  -8.69977922932457E+01  1.78190084794931E+00
(PID.TID 0000.0001)  ploadbar=  1.01071417516979E+05
 cg2d: Sum(rhs),rhsMax =  -8.71134800435569E+01  1.77955929685091E+00
(PID.TID 0000.0001)  ploadbar=  1.01070952901568E+05
 cg2d: Sum(rhs),rhsMax =  -8.72071380831534E+01  1.77762241210194E+00
(PID.TID 0000.0001)  ploadbar=  1.01070488286158E+05
 cg2d: Sum(rhs),rhsMax =  -8.72940241289324E+01  1.77577441238012E+00
(PID.TID 0000.0001)  ploadbar=  1.01070023670747E+05
 cg2d: Sum(rhs),rhsMax =  -8.73926262516997E+01  1.77363843267587E+00
(PID.TID 0000.0001)  ploadbar=  1.01069559055336E+05
 cg2d: Sum(rhs),rhsMax =  -8.74881443113856E+01  1.77151439722071E+00
(PID.TID 0000.0001)  ploadbar=  1.01069094439925E+05
 cg2d: Sum(rhs),rhsMax =  -8.76055073195265E+01  1.76901311153434E+00
(PID.TID 0000.0001)  ploadbar=  1.01068007170967E+05
 cg2d: Sum(rhs),rhsMax =  -8.78013389178266E+01  1.76499466301656E+00
(PID.TID 0000.0001)  ploadbar=  1.01066919902008E+05
 cg2d: Sum(rhs),rhsMax =  -8.80494898596877E+01  1.75999817934678E+00
(PID.TID 0000.0001)  ploadbar=  1.01065832633050E+05
 cg2d: Sum(rhs),rhsMax =  -8.83474196898762E+01  1.75408573341900E+00
(PID.TID 0000.0001)  ploadbar=  1.01064745364091E+05
 cg2d: Sum(rhs),rhsMax =  -8.87085060940702E+01  1.74700867496856E+00
(PID.TID 0000.0001)  ploadbar=  1.01063658095133E+05
 cg2d: Sum(rhs),rhsMax =  -8.91039678236628E+01  1.73935436793924E+00
(PID.TID 0000.0001)  ploadbar=  1.01062570826175E+05
 cg2d: Sum(rhs),rhsMax =  -8.93391582410260E+01  1.73489069501976E+00
(PID.TID 0000.0001)  ploadbar=  1.01061999676642E+05
 cg2d: Sum(rhs),rhsMax =  -8.94667572304686E+01  1.73254367232737E+00
(PID.TID 0000.0001)  ploadbar=  1.01061428527109E+05
 cg2d: Sum(rhs),rhsMax =  -8.95353412277297E+01  1.73134852576794E+00
(PID.TID 0000.0001)  ploadbar=  1.01060857377576E+05
 cg2d: Sum(rhs),rhsMax =  -8.95870223825790E+01  1.73048120998716E+00
(PID.TID 0000.0001)  ploadbar=  1.01060286228043E+05
 cg2d: Sum(rhs),rhsMax =  -8.96256952466508E+01  1.72986008474933E+00
(PID.TID 0000.0001)  ploadbar=  1.01059715078510E+05
 cg2d: Sum(rhs),rhsMax =  -8.96526375877850E+01  1.72945665379906E+00
(PID.TID 0000.0001)  ploadbar=  1.01059143928976E+05
 cg2d: Sum(rhs),rhsMax =  -8.97161383528650E+01  1.72832633334695E+00
(PID.TID 0000.0001)  ploadbar=  1.01058081444773E+05
 cg2d: Sum(rhs),rhsMax =  -8.97687917387110E+01  1.72738036029364E+00
(PID.TID 0000.0001)  ploadbar=  1.01057018960570E+05
 cg2d: Sum(rhs),rhsMax =  -8.98226184248997E+01  1.72638289505716E+00
(PID.TID 0000.0001)  ploadbar=  1.01055956476367E+05
 cg2d: Sum(rhs),rhsMax =  -8.98883252654134E+01  1.72512300517058E+00
(PID.TID 0000.0001)  ploadbar=  1.01054893992164E+05
 cg2d: Sum(rhs),rhsMax =  -8.99679638469377E+01  1.72355784064919E+00
(PID.TID 0000.0001)  ploadbar=  1.01053831507961E+05
 cg2d: Sum(rhs),rhsMax =  -9.00604523637854E+01  1.72170434379691E+00
(PID.TID 0000.0001)  ploadbar=  1.01052769023758E+05
 cg2d: Sum(rhs),rhsMax =  -9.02003239865218E+01  1.71894312837278E+00
(PID.TID 0000.0001)  ploadbar=  1.01052717604141E+05
 cg2d: Sum(rhs),rhsMax =  -9.03459425307222E+01  1.71607069696623E+00
(PID.TID 0000.0001)  ploadbar=  1.01052666184525E+05
 cg2d: Sum(rhs),rhsMax =  -9.04955934002852E+01  1.71311998515035E+00
(PID.TID 0000.0001)  ploadbar=  1.01052614764909E+05
 cg2d: Sum(rhs),rhsMax =  -9.06481253660016E+01  1.71011034623996E+00
(PID.TID 0000.0001)  ploadbar=  1.01052563345292E+05
 cg2d: Sum(rhs),rhsMax =  -9.08050815655616E+01  1.70700909632665E+00
(PID.TID 0000.0001)  ploadbar=  1.01052511925676E+05
 cg2d: Sum(rhs),rhsMax =  -9.09482047449169E+01  1.70415579718485E+00
(PID.TID 0000.0001)  ploadbar=  1.01052460506060E+05
 cg2d: Sum(rhs),rhsMax =  -9.10819742511420E+01  1.70154549056518E+00
(PID.TID 0000.0001)  ploadbar=  1.01054453376066E+05
 cg2d: Sum(rhs),rhsMax =  -9.12039149374521E+01  1.69921633663506E+00
(PID.TID 0000.0001)  ploadbar=  1.01056446246072E+05
 cg2d: Sum(rhs),rhsMax =  -9.12901623701846E+01  1.69760404693340E+00
(PID.TID 0000.0001)  ploadbar=  1.01058439116078E+05
 cg2d: Sum(rhs),rhsMax =  -9.13407183604592E+01  1.69669528076738E+00
(PID.TID 0000.0001)  ploadbar=  1.01060431986084E+05
 cg2d: Sum(rhs),rhsMax =  -9.13658825167140E+01  1.69628767160539E+00
(PID.TID 0000.0001)  ploadbar=  1.01062424856091E+05
 cg2d: Sum(rhs),rhsMax =  -9.13719530959447E+01  1.69625707088627E+00
(PID.TID 0000.0001)  ploadbar=  1.01064417726097E+05
 cg2d: Sum(rhs),rhsMax =  -9.13320180796177E+01  1.69708829656413E+00
(PID.TID 0000.0001)  ploadbar=  1.01065280003619E+05
 cg2d: Sum(rhs),rhsMax =  -9.12844949852274E+01  1.69806457908327E+00
(PID.TID 0000.0001)  ploadbar=  1.01066142281142E+05
 cg2d: Sum(rhs),rhsMax =  -9.12617851605466E+01  1.69857897666424E+00
(PID.TID 0000.0001)  ploadbar=  1.01067004558664E+05
 cg2d: Sum(rhs),rhsMax =  -9.12604063259721E+01  1.69868976626868E+00
(PID.TID 0000.0001)  ploadbar=  1.01067866836187E+05
 cg2d: Sum(rhs),rhsMax =  -9.12792276865646E+01  1.69841418597361E+00
(PID.TID 0000.0001)  ploadbar=  1.01068729113709E+05
 cg2d: Sum(rhs),rhsMax =  -9.13228917946876E+01  1.69766289719430E+00
(PID.TID 0000.0001)  ploadbar=  1.01069591391231E+05
 cg2d: Sum(rhs),rhsMax =  -9.13686414829519E+01  1.69688146870408E+00
(PID.TID 0000.0001)  ploadbar=  1.01070256067290E+05
 cg2d: Sum(rhs),rhsMax =  -9.14360237877473E+01  1.69570371952065E+00
(PID.TID 0000.0001)  ploadbar=  1.01070920743348E+05
 cg2d: Sum(rhs),rhsMax =  -9.15177073258663E+01  1.69426384471735E+00
(PID.TID 0000.0001)  ploadbar=  1.01071585419406E+05
 cg2d: Sum(rhs),rhsMax =  -9.16122376497753E+01  1.69258489611156E+00
(PID.TID 0000.0001)  ploadbar=  1.01072250095464E+05
 cg2d: Sum(rhs),rhsMax =  -9.17156057343857E+01  1.69073838961531E+00
(PID.TID 0000.0001)  ploadbar=  1.01072914771522E+05
 cg2d: Sum(rhs),rhsMax =  -9.18267451882513E+01  1.68873985707752E+00
(PID.TID 0000.0001)  ploadbar=  1.01073579447580E+05
 cg2d: Sum(rhs),rhsMax =  -9.19222054026705E+01  1.68701237981105E+00
(PID.TID 0000.0001)  ploadbar=  1.01073995447196E+05
 cg2d: Sum(rhs),rhsMax =  -9.20286770572996E+01  1.68506341348190E+00
(PID.TID 0000.0001)  ploadbar=  1.01074411446812E+05
 cg2d: Sum(rhs),rhsMax =  -9.21383811806003E+01  1.68303393536719E+00
(PID.TID 0000.0001)  ploadbar=  1.01074827446428E+05
 cg2d: Sum(rhs),rhsMax =  -9.22499423911460E+01  1.68094754160184E+00
(PID.TID 0000.0001)  ploadbar=  1.01075243446045E+05
 cg2d: Sum(rhs),rhsMax =  -9.23639532793797E+01  1.67879218323970E+00
(PID.TID 0000.0001)  ploadbar=  1.01075659445661E+05
 cg2d: Sum(rhs),rhsMax =  -9.24802923456884E+01  1.67656955047127E+00
(PID.TID 0000.0001)  ploadbar=  1.01076075445277E+05
 cg2d: Sum(rhs),rhsMax =  -9.25634196298484E+01  1.67499356085099E+00
(PID.TID 0000.0001)  ploadbar=  1.01076238289868E+05
 cg2d: Sum(rhs),rhsMax =  -9.26483054090838E+01  1.67342567205228E+00
(PID.TID 0000.0001)  ploadbar=  1.01076401134460E+05
 cg2d: Sum(rhs),rhsMax =  -9.27392038881876E+01  1.67178358856853E+00
(PID.TID 0000.0001)  ploadbar=  1.01076563979051E+05
 cg2d: Sum(rhs),rhsMax =  -9.28329835648877E+01  1.67011289125435E+00
(PID.TID 0000.0001)  ploadbar=  1.01076726823643E+05
 cg2d: Sum(rhs),rhsMax =  -9.29350612750007E+01  1.66830917938223E+00
(PID.TID 0000.0001)  ploadbar=  1.01076889668234E+05
 cg2d: Sum(rhs),rhsMax =  -9.30525676992639E+01  1.66624031344585E+00
(PID.TID 0000.0001)  ploadbar=  1.01077052512826E+05
 cg2d: Sum(rhs),rhsMax =  -9.31866645056222E+01  1.66385913583426E+00
(PID.TID 0000.0001)  ploadbar=  1.01077283145712E+05
 cg2d: Sum(rhs),rhsMax =  -9.33788917466738E+01  1.66042223558321E+00
(PID.TID 0000.0001)  ploadbar=  1.01077513778599E+05
 cg2d: Sum(rhs),rhsMax =  -9.35960334839664E+01  1.65652481227559E+00
(PID.TID 0000.0001)  ploadbar=  1.01077744411486E+05
 cg2d: Sum(rhs),rhsMax =  -9.38883555848840E+01  1.65128598003770E+00
(PID.TID 0000.0001)  ploadbar=  1.01077975044373E+05
 cg2d: Sum(rhs),rhsMax =  -9.42532248942892E+01  1.64477185186017E+00
(PID.TID 0000.0001)  ploadbar=  1.01078205677260E+05
 cg2d: Sum(rhs),rhsMax =  -9.46810588214911E+01  1.63717438286805E+00
(PID.TID 0000.0001)  ploadbar=  1.01078436310146E+05
 cg2d: Sum(rhs),rhsMax =  -9.51599669567336E+01  1.62878156122913E+00
(PID.TID 0000.0001)  ploadbar=  1.01078920437520E+05
 cg2d: Sum(rhs),rhsMax =  -9.56691408889250E+01  1.61996764209504E+00
(PID.TID 0000.0001)  ploadbar=  1.01079404564894E+05
 cg2d: Sum(rhs),rhsMax =  -9.61947156704361E+01  1.61097561644555E+00
(PID.TID 0000.0001)  ploadbar=  1.01079888692268E+05
 cg2d: Sum(rhs),rhsMax =  -9.67364086777144E+01  1.60181457016101E+00
(PID.TID 0000.0001)  ploadbar=  1.01080372819642E+05
 cg2d: Sum(rhs),rhsMax =  -9.72713820648758E+01  1.59285941484666E+00
(PID.TID 0000.0001)  ploadbar=  1.01080856947016E+05
 cg2d: Sum(rhs),rhsMax =  -9.77778422355576E+01  1.58445167373484E+00
(PID.TID 0000.0001)  ploadbar=  1.01081341074390E+05
 cg2d: Sum(rhs),rhsMax =  -9.82397246253173E+01  1.57681461910021E+00
(PID.TID 0000.0001)  ploadbar=  1.01081870710104E+05
 cg2d: Sum(rhs),rhsMax =  -9.86561355865745E+01  1.56993782657095E+00
(PID.TID 0000.0001)  ploadbar=  1.01082400345818E+05
 cg2d: Sum(rhs),rhsMax =  -9.89834884167146E+01  1.56448796528205E+00
(PID.TID 0000.0001)  ploadbar=  1.01082929981531E+05
 cg2d: Sum(rhs),rhsMax =  -9.92220262288068E+01  1.56042916338706E+00
(PID.TID 0000.0001)  ploadbar=  1.01083459617245E+05
 cg2d: Sum(rhs),rhsMax =  -9.93682780700376E+01  1.55779172644469E+00
(PID.TID 0000.0001)  ploadbar=  1.01083989252959E+05
 cg2d: Sum(rhs),rhsMax =  -9.94305743621402E+01  1.55643000593800E+00
(PID.TID 0000.0001)  ploadbar=  1.01084518888672E+05
 cg2d: Sum(rhs),rhsMax =  -9.94921608418414E+01  1.55511910709619E+00
(PID.TID 0000.0001)  ploadbar=  1.01085528399222E+05
 cg2d: Sum(rhs),rhsMax =  -9.95216607202202E+01  1.55434546485800E+00
(PID.TID 0000.0001)  ploadbar=  1.01086537909772E+05
 cg2d: Sum(rhs),rhsMax =  -9.95525768496537E+01  1.55357945375579E+00
(PID.TID 0000.0001)  ploadbar=  1.01087547420322E+05
 cg2d: Sum(rhs),rhsMax =  -9.96161994786879E+01  1.55232262316497E+00
(PID.TID 0000.0001)  ploadbar=  1.01088556930871E+05
 cg2d: Sum(rhs),rhsMax =  -9.97523893749208E+01  1.54994927907822E+00
(PID.TID 0000.0001)  ploadbar=  1.01089566441421E+05
 cg2d: Sum(rhs),rhsMax =  -9.95711980429742E+01  1.55252289905754E+00
(PID.TID 0000.0001)  ploadbar=  1.01090575951971E+05
 cg2d: Sum(rhs),rhsMax =  -9.95343946511422E+01  1.55285768925940E+00
(PID.TID 0000.0001)  ploadbar=  1.01089720497563E+05
 cg2d: Sum(rhs),rhsMax =  -9.96814063307081E+01  1.55033351016905E+00
(PID.TID 0000.0001)  ploadbar=  1.01088865043155E+05
 cg2d: Sum(rhs),rhsMax =  -9.97972713355765E+01  1.54829900347071E+00
(PID.TID 0000.0001)  ploadbar=  1.01088009588747E+05
 cg2d: Sum(rhs),rhsMax =  -9.99401226349948E+01  1.54584802212202E+00
(PID.TID 0000.0001)  ploadbar=  1.01087154134339E+05
 cg2d: Sum(rhs),rhsMax =  -1.00090202846903E+02  1.54328544727403E+00
(PID.TID 0000.0001)  ploadbar=  1.01086298679931E+05
 cg2d: Sum(rhs),rhsMax =  -1.00231404799877E+02  1.54085400007732E+00
(PID.TID 0000.0001)  ploadbar=  1.01085443225522E+05
 cg2d: Sum(rhs),rhsMax =  -1.00424914745857E+02  1.53763478877460E+00
(PID.TID 0000.0001)  ploadbar=  1.01085818707880E+05
 cg2d: Sum(rhs),rhsMax =  -1.00630250730291E+02  1.53425057053601E+00
(PID.TID 0000.0001)  ploadbar=  1.01086194190238E+05
 cg2d: Sum(rhs),rhsMax =  -1.00856714028022E+02  1.53055872842841E+00
(PID.TID 0000.0001)  ploadbar=  1.01086569672595E+05
 cg2d: Sum(rhs),rhsMax =  -1.01118919506788E+02  1.52633785585726E+00
(PID.TID 0000.0001)  ploadbar=  1.01086945154953E+05
 cg2d: Sum(rhs),rhsMax =  -1.01424163056193E+02  1.52148348063931E+00
(PID.TID 0000.0001)  ploadbar=  1.01087320637311E+05
 cg2d: Sum(rhs),rhsMax =  -1.01770106233123E+02  1.51603730697560E+00
(PID.TID 0000.0001)  ploadbar=  1.01087696119668E+05
 cg2d: Sum(rhs),rhsMax =  -1.02196377840044E+02  1.50942540866021E+00
(PID.TID 0000.0001)  ploadbar=  1.01088959518954E+05
 cg2d: Sum(rhs),rhsMax =  -1.02659484948108E+02  1.50231135430085E+00
(PID.TID 0000.0001)  ploadbar=  1.01090222918240E+05
 cg2d: Sum(rhs),rhsMax =  -1.03128819591788E+02  1.49515051408976E+00
(PID.TID 0000.0001)  ploadbar=  1.01091486317526E+05
 cg2d: Sum(rhs),rhsMax =  -1.03581429913299E+02  1.48827217808134E+00
(PID.TID 0000.0001)  ploadbar=  1.01092749716812E+05
 cg2d: Sum(rhs),rhsMax =  -1.04000524025331E+02  1.48190622722002E+00
(PID.TID 0000.0001)  ploadbar=  1.01094013116098E+05
 cg2d: Sum(rhs),rhsMax =  -1.04374594683353E+02  1.47620015914717E+00
(PID.TID 0000.0001)  ploadbar=  1.01095276515384E+05
 cg2d: Sum(rhs),rhsMax =  -1.04735137075438E+02  1.47077163490115E+00
(PID.TID 0000.0001)  ploadbar=  1.01095807395800E+05
 cg2d: Sum(rhs),rhsMax =  -1.05045095174323E+02  1.46612833677640E+00
(PID.TID 0000.0001)  ploadbar=  1.01096338276217E+05
 cg2d: Sum(rhs),rhsMax =  -1.05311162868235E+02  1.46215925074430E+00
(PID.TID 0000.0001)  ploadbar=  1.01096869156634E+05
 cg2d: Sum(rhs),rhsMax =  -1.05534140517933E+02  1.45883859033174E+00
(PID.TID 0000.0001)  ploadbar=  1.01097400037050E+05
 cg2d: Sum(rhs),rhsMax =  -1.05724197543774E+02  1.45601651100611E+00
(PID.TID 0000.0001)  ploadbar=  1.01097930917467E+05
 cg2d: Sum(rhs),rhsMax =  -1.05897188938135E+02  1.45346477623350E+00
(PID.TID 0000.0001)  ploadbar=  1.01098461797884E+05
 cg2d: Sum(rhs),rhsMax =  -1.06130611437580E+02  1.45010820915610E+00
(PID.TID 0000.0001)  ploadbar=  1.01098579509595E+05
 cg2d: Sum(rhs),rhsMax =  -1.06419704741262E+02  1.44601897110200E+00
(PID.TID 0000.0001)  ploadbar=  1.01098697221307E+05
 cg2d: Sum(rhs),rhsMax =  -1.06804959066401E+02  1.44065805882816E+00
(PID.TID 0000.0001)  ploadbar=  1.01098814933018E+05
 cg2d: Sum(rhs),rhsMax =  -1.07299268633403E+02  1.43387752856787E+00
(PID.TID 0000.0001)  ploadbar=  1.01098932644730E+05
 cg2d: Sum(rhs),rhsMax =  -1.07898489385338E+02  1.42576949519372E+00
(PID.TID 0000.0001)  ploadbar=  1.01099050356441E+05
 cg2d: Sum(rhs),rhsMax =  -1.08663490904450E+02  1.41558083251974E+00
(PID.TID 0000.0001)  ploadbar=  1.01099168068153E+05
 cg2d: Sum(rhs),rhsMax =  -1.09612383949682E+02  1.40316894525005E+00
(PID.TID 0000.0001)  ploadbar=  1.01099116729285E+05
 cg2d: Sum(rhs),rhsMax =  -1.10810228564932E+02  1.38783465076162E+00
(PID.TID 0000.0001)  ploadbar=  1.01099065390417E+05
 cg2d: Sum(rhs),rhsMax =  -1.12202601799324E+02  1.37043505365065E+00
(PID.TID 0000.0001)  ploadbar=  1.01099014051548E+05
 cg2d: Sum(rhs),rhsMax =  -1.13790638339680E+02  1.35111723366177E+00
(PID.TID 0000.0001)  ploadbar=  1.01098962712680E+05
 cg2d: Sum(rhs),rhsMax =  -1.15570035469059E+02  1.33010372203140E+00
(PID.TID 0000.0001)  ploadbar=  1.01098911373812E+05
 cg2d: Sum(rhs),rhsMax =  -1.17515913729945E+02  1.30784690442985E+00
(PID.TID 0000.0001)  ploadbar=  1.01098860034944E+05
 cg2d: Sum(rhs),rhsMax =  -1.19474144763764E+02  1.28616872704915E+00
(PID.TID 0000.0001)  ploadbar=  1.01098438579943E+05
 cg2d: Sum(rhs),rhsMax =  -1.21525455821678E+02  1.26420621211212E+00
(PID.TID 0000.0001)  ploadbar=  1.01098017124942E+05
 cg2d: Sum(rhs),rhsMax =  -1.23625074245196E+02  1.24247077940008E+00
(PID.TID 0000.0001)  ploadbar=  1.01097595669941E+05
 cg2d: Sum(rhs),rhsMax =  -1.25773224540944E+02  1.22097131160757E+00
(PID.TID 0000.0001)  ploadbar=  1.01097174214940E+05
 cg2d: Sum(rhs),rhsMax =  -1.27965857267803E+02  1.19975566189520E+00
(PID.TID 0000.0001)  ploadbar=  1.01096752759939E+05
 cg2d: Sum(rhs),rhsMax =  -1.30162962508045E+02  1.17919109386020E+00
(PID.TID 0000.0001)  ploadbar=  1.01096331304938E+05
 cg2d: Sum(rhs),rhsMax =  -1.32188850490114E+02  1.16084632357734E+00
(PID.TID 0000.0001)  ploadbar=  1.01096592513568E+05
 cg2d: Sum(rhs),rhsMax =  -1.33986355453095E+02  1.14503480418313E+00
(PID.TID 0000.0001)  ploadbar=  1.01096853722198E+05
 cg2d: Sum(rhs),rhsMax =  -1.35455479456175E+02  1.13241100235311E+00
(PID.TID 0000.0001)  ploadbar=  1.01097114930828E+05
 cg2d: Sum(rhs),rhsMax =  -1.36554865399784E+02  1.12311849358210E+00
(PID.TID 0000.0001)  ploadbar=  1.01097376139458E+05
 cg2d: Sum(rhs),rhsMax =  -1.37255705316116E+02  1.11723074184904E+00
(PID.TID 0000.0001)  ploadbar=  1.01097637348087E+05
 cg2d: Sum(rhs),rhsMax =  -1.37541482888033E+02  1.11477656414871E+00
(PID.TID 0000.0001)  ploadbar=  1.01097898556717E+05
 cg2d: Sum(rhs),rhsMax =  -1.36687310342439E+02  1.12159859837846E+00
(PID.TID 0000.0001)  ploadbar=  1.01097745152400E+05
 cg2d: Sum(rhs),rhsMax =  -1.35968363512843E+02  1.12737016491145E+00
(PID.TID 0000.0001)  ploadbar=  1.01097591748082E+05
 cg2d: Sum(rhs),rhsMax =  -1.35923318722507E+02  1.12756813366612E+00
(PID.TID 0000.0001)  ploadbar=  1.01097438343765E+05
 cg2d: Sum(rhs),rhsMax =  -1.36147701996191E+02  1.12551640416364E+00
(PID.TID 0000.0001)  ploadbar=  1.01097284939448E+05
 cg2d: Sum(rhs),rhsMax =  -1.36024623514983E+02  1.12632050672669E+00
(PID.TID 0000.0001)  ploadbar=  1.01097131535130E+05
 cg2d: Sum(rhs),rhsMax =  -1.35753883514156E+02  1.12832733806471E+00
(PID.TID 0000.0001)  ploadbar=  1.01096978130813E+05
 cg2d: Sum(rhs),rhsMax =  -1.33222676306494E+02  1.14952881419196E+00
(PID.TID 0000.0001)  ploadbar=  1.01097030764183E+05
 cg2d: Sum(rhs),rhsMax =  -1.29884707605878E+02  1.17883301466036E+00
(PID.TID 0000.0001)  ploadbar=  1.01097083397553E+05
 cg2d: Sum(rhs),rhsMax =  -1.26596444050760E+02  1.20920995597050E+00
(PID.TID 0000.0001)  ploadbar=  1.01097136030923E+05
 cg2d: Sum(rhs),rhsMax =  -1.23535513765668E+02  1.23892098669501E+00
(PID.TID 0000.0001)  ploadbar=  1.01097188664293E+05
 cg2d: Sum(rhs),rhsMax =  -1.20991553476133E+02  1.26470941605020E+00
(PID.TID 0000.0001)  ploadbar=  1.01097241297663E+05
 cg2d: Sum(rhs),rhsMax =  -1.18723817568793E+02  1.28859054177918E+00
(PID.TID 0000.0001)  ploadbar=  1.01097293931033E+05
 cg2d: Sum(rhs),rhsMax =  -1.16913887918884E+02  1.30825572834486E+00
(PID.TID 0000.0001)  ploadbar=  1.01097405293372E+05
 cg2d: Sum(rhs),rhsMax =  -1.15009383106495E+02  1.32962680546390E+00
(PID.TID 0000.0001)  ploadbar=  1.01097516655711E+05
 cg2d: Sum(rhs),rhsMax =  -1.13140805594368E+02  1.35128151419638E+00
(PID.TID 0000.0001)  ploadbar=  1.01097628018049E+05
 cg2d: Sum(rhs),rhsMax =  -1.11362024899304E+02  1.37254710629071E+00
(PID.TID 0000.0001)  ploadbar=  1.01097739380388E+05
 cg2d: Sum(rhs),rhsMax =  -1.09682232083139E+02  1.39323272149858E+00
(PID.TID 0000.0001)  ploadbar=  1.01097850742727E+05
 cg2d: Sum(rhs),rhsMax =  -1.08099027573476E+02  1.41328032253371E+00
(PID.TID 0000.0001)  ploadbar=  1.01097962105066E+05
 cg2d: Sum(rhs),rhsMax =  -1.06397632187629E+02  1.43557185040066E+00
(PID.TID 0000.0001)  ploadbar=  1.01098225304882E+05
 cg2d: Sum(rhs),rhsMax =  -1.04699197693064E+02  1.45859860432218E+00
(PID.TID 0000.0001)  ploadbar=  1.01098488504698E+05
 cg2d: Sum(rhs),rhsMax =  -1.03043651980394E+02  1.48181241640176E+00
(PID.TID 0000.0001)  ploadbar=  1.01098751704514E+05
 cg2d: Sum(rhs),rhsMax =  -1.01431894268594E+02  1.50517269888030E+00
(PID.TID 0000.0001)  ploadbar=  1.01099014904330E+05
 cg2d: Sum(rhs),rhsMax =  -9.98495646168999E+01  1.52887003267222E+00
(PID.TID 0000.0001)  ploadbar=  1.01099278104146E+05
 cg2d: Sum(rhs),rhsMax =  -9.83068716492677E+01  1.55273220286489E+00
(PID.TID 0000.0001)  ploadbar=  1.01099541303961E+05
 cg2d: Sum(rhs),rhsMax =  -9.68876046037523E+01  1.57534386736785E+00
(PID.TID 0000.0001)  ploadbar=  1.01100018911369E+05
 cg2d: Sum(rhs),rhsMax =  -9.56628049674664E+01  1.59537673205540E+00
(PID.TID 0000.0001)  ploadbar=  1.01100496518776E+05
 cg2d: Sum(rhs),rhsMax =  -9.46549593374810E+01  1.61222290258034E+00
(PID.TID 0000.0001)  ploadbar=  1.01100974126184E+05
 cg2d: Sum(rhs),rhsMax =  -9.38361759733689E+01  1.62614448119633E+00
(PID.TID 0000.0001)  ploadbar=  1.01101451733591E+05
 cg2d: Sum(rhs),rhsMax =  -9.31944025265508E+01  1.63718677616057E+00
(PID.TID 0000.0001)  ploadbar=  1.01101929340998E+05
 cg2d: Sum(rhs),rhsMax =  -9.27185097988196E+01  1.64541726698890E+00
(PID.TID 0000.0001)  ploadbar=  1.01102406948406E+05
 cg2d: Sum(rhs),rhsMax =  -9.26523765724923E+01  1.64641106428685E+00
(PID.TID 0000.0001)  ploadbar=  1.01103175578019E+05
 cg2d: Sum(rhs),rhsMax =  -9.27023682538599E+01  1.64532942198150E+00
(PID.TID 0000.0001)  ploadbar=  1.01103944207633E+05
 cg2d: Sum(rhs),rhsMax =  -9.28378511776442E+01  1.64271932744225E+00
(PID.TID 0000.0001)  ploadbar=  1.01104712837247E+05
 cg2d: Sum(rhs),rhsMax =  -9.30547027969406E+01  1.63866436272127E+00
(PID.TID 0000.0001)  ploadbar=  1.01105481466860E+05
 cg2d: Sum(rhs),rhsMax =  -9.33336518222348E+01  1.63352037891093E+00
(PID.TID 0000.0001)  ploadbar=  1.01106250096474E+05
 cg2d: Sum(rhs),rhsMax =  -9.36517586160114E+01  1.62770367936813E+00
(PID.TID 0000.0001)  ploadbar=  1.01107018726088E+05
 cg2d: Sum(rhs),rhsMax =  -9.39691751119741E+01  1.62193896883356E+00
(PID.TID 0000.0001)  ploadbar=  1.01107965561296E+05
 cg2d: Sum(rhs),rhsMax =  -9.42969990601878E+01  1.61603176478330E+00
(PID.TID 0000.0001)  ploadbar=  1.01108912396504E+05
 cg2d: Sum(rhs),rhsMax =  -9.45759531373237E+01  1.61099075867557E+00
(PID.TID 0000.0001)  ploadbar=  1.01109859231712E+05
 cg2d: Sum(rhs),rhsMax =  -9.48233428537559E+01  1.60650282849112E+00
(PID.TID 0000.0001)  ploadbar=  1.01110806066920E+05
 cg2d: Sum(rhs),rhsMax =  -9.50485629768194E+01  1.60239549393652E+00
(PID.TID 0000.0001)  ploadbar=  1.01111752902128E+05
 cg2d: Sum(rhs),rhsMax =  -9.52415941171538E+01  1.59882682634513E+00
(PID.TID 0000.0001)  ploadbar=  1.01112699737336E+05
 cg2d: Sum(rhs),rhsMax =  -9.54137793839371E+01  1.59570077656062E+00
(PID.TID 0000.0001)  ploadbar=  1.01113436719646E+05
 cg2d: Sum(rhs),rhsMax =  -9.55631422191529E+01  1.59303965247924E+00
(PID.TID 0000.0001)  ploadbar=  1.01114173701956E+05
 cg2d: Sum(rhs),rhsMax =  -9.56780530309410E+01  1.59102682088105E+00
(PID.TID 0000.0001)  ploadbar=  1.01114910684265E+05
 cg2d: Sum(rhs),rhsMax =  -9.57234834627129E+01  1.59023064697777E+00
(PID.TID 0000.0001)  ploadbar=  1.01115647666575E+05
 cg2d: Sum(rhs),rhsMax =  -9.57547279889010E+01  1.58972259698813E+00
(PID.TID 0000.0001)  ploadbar=  1.01116384648885E+05
 cg2d: Sum(rhs),rhsMax =  -9.61473077879734E+01  1.58328662554757E+00
(PID.TID 0000.0001)  ploadbar=  1.01117121631194E+05
 cg2d: Sum(rhs),rhsMax =  -9.63344793811558E+01  1.58027767696836E+00
(PID.TID 0000.0001)  ploadbar=  1.01117122963279E+05
 cg2d: Sum(rhs),rhsMax =  -9.64358831554826E+01  1.57869328720659E+00
(PID.TID 0000.0001)  ploadbar=  1.01117124295363E+05
 cg2d: Sum(rhs),rhsMax =  -9.64132323274437E+01  1.57914683079483E+00
(PID.TID 0000.0001)  ploadbar=  1.01117125627448E+05
 cg2d: Sum(rhs),rhsMax =  -9.62557619765880E+01  1.58181588873721E+00
(PID.TID 0000.0001)  ploadbar=  1.01117126959532E+05
 cg2d: Sum(rhs),rhsMax =  -9.59748530488347E+01  1.58652731979944E+00
(PID.TID 0000.0001)  ploadbar=  1.01117128291616E+05
 cg2d: Sum(rhs),rhsMax =  -9.56738667118979E+01  1.59158986901059E+00
(PID.TID 0000.0001)  ploadbar=  1.01117129623701E+05
 cg2d: Sum(rhs),rhsMax =  -9.54697717920821E+01  1.59508073164356E+00
(PID.TID 0000.0001)  ploadbar=  1.01116641950636E+05
 cg2d: Sum(rhs),rhsMax =  -9.53400026903144E+01  1.59735150487491E+00
(PID.TID 0000.0001)  ploadbar=  1.01116154277571E+05
 cg2d: Sum(rhs),rhsMax =  -9.52639906155342E+01  1.59873512115811E+00
(PID.TID 0000.0001)  ploadbar=  1.01115666604507E+05
 cg2d: Sum(rhs),rhsMax =  -9.52611233754959E+01  1.59889751325772E+00
(PID.TID 0000.0001)  ploadbar=  1.01115178931442E+05
 cg2d: Sum(rhs),rhsMax =  -9.53383715004980E+01  1.59771776190935E+00
(PID.TID 0000.0001)  ploadbar=  1.01114691258377E+05
 cg2d: Sum(rhs),rhsMax =  -9.55007917063169E+01  1.59511090320394E+00
(PID.TID 0000.0001)  ploadbar=  1.01114203585312E+05
 cg2d: Sum(rhs),rhsMax =  -9.57218985486183E+01  1.59152076933541E+00
(PID.TID 0000.0001)  ploadbar=  1.01114232531144E+05
 cg2d: Sum(rhs),rhsMax =  -9.59884843920636E+01  1.58717659264109E+00
(PID.TID 0000.0001)  ploadbar=  1.01114261476976E+05
 cg2d: Sum(rhs),rhsMax =  -9.63213031320341E+01  1.58174599326871E+00
(PID.TID 0000.0001)  ploadbar=  1.01114290422808E+05
 cg2d: Sum(rhs),rhsMax =  -9.67231861588033E+01  1.57520073101138E+00
(PID.TID 0000.0001)  ploadbar=  1.01114319368640E+05
 cg2d: Sum(rhs),rhsMax =  -9.71912150815601E+01  1.56761308493324E+00
(PID.TID 0000.0001)  ploadbar=  1.01114348314472E+05
 cg2d: Sum(rhs),rhsMax =  -9.76983848829578E+01  1.55943793706087E+00
(PID.TID 0000.0001)  ploadbar=  1.01114377260304E+05
 cg2d: Sum(rhs),rhsMax =  -9.82305933501872E+01  1.55096982151583E+00
(PID.TID 0000.0001)  ploadbar=  1.01113985553737E+05
 cg2d: Sum(rhs),rhsMax =  -9.87680187094381E+01  1.54252152078647E+00
(PID.TID 0000.0001)  ploadbar=  1.01113593847171E+05
 cg2d: Sum(rhs),rhsMax =  -9.92800787187568E+01  1.53456227193066E+00
(PID.TID 0000.0001)  ploadbar=  1.01113202140605E+05
 cg2d: Sum(rhs),rhsMax =  -9.97559529964801E+01  1.52723758400898E+00
(PID.TID 0000.0001)  ploadbar=  1.01112810434038E+05
 cg2d: Sum(rhs),rhsMax =  -1.00192878617692E+02  1.52056755884319E+00
(PID.TID 0000.0001)  ploadbar=  1.01112418727472E+05
 cg2d: Sum(rhs),rhsMax =  -1.00586622752348E+02  1.51459784721601E+00
(PID.TID 0000.0001)  ploadbar=  1.01112027020905E+05
 cg2d: Sum(rhs),rhsMax =  -1.00938350454227E+02  1.50931144875459E+00
(PID.TID 0000.0001)  ploadbar=  1.01111889678910E+05
 cg2d: Sum(rhs),rhsMax =  -1.01284882255376E+02  1.50414351836895E+00
(PID.TID 0000.0001)  ploadbar=  1.01111752336914E+05
 cg2d: Sum(rhs),rhsMax =  -1.01667812235168E+02  1.49847262411196E+00
(PID.TID 0000.0001)  ploadbar=  1.01111614994918E+05
 cg2d: Sum(rhs),rhsMax =  -1.02104241445408E+02  1.49205448080430E+00
(PID.TID 0000.0001)  ploadbar=  1.01111477652923E+05
 cg2d: Sum(rhs),rhsMax =  -1.02639405434285E+02  1.48424989344882E+00
(PID.TID 0000.0001)  ploadbar=  1.01111340310927E+05
 cg2d: Sum(rhs),rhsMax =  -1.03245221329480E+02  1.47549856932041E+00
(PID.TID 0000.0001)  ploadbar=  1.01111202968931E+05
 cg2d: Sum(rhs),rhsMax =  -1.03902538885889E+02  1.46613377763318E+00
(PID.TID 0000.0001)  ploadbar=  1.01111482667599E+05
 cg2d: Sum(rhs),rhsMax =  -1.04569403747276E+02  1.45676297775279E+00
(PID.TID 0000.0001)  ploadbar=  1.01111762366267E+05
 cg2d: Sum(rhs),rhsMax =  -1.05229617540724E+02  1.44760986224666E+00
(PID.TID 0000.0001)  ploadbar=  1.01112042064935E+05
 cg2d: Sum(rhs),rhsMax =  -1.05849609686560E+02  1.43912002088054E+00
(PID.TID 0000.0001)  ploadbar=  1.01112321763603E+05
 cg2d: Sum(rhs),rhsMax =  -1.06405844676948E+02  1.43158115846333E+00
(PID.TID 0000.0001)  ploadbar=  1.01112601462271E+05
 cg2d: Sum(rhs),rhsMax =  -1.06894267576589E+02  1.42501329717977E+00
(PID.TID 0000.0001)  ploadbar=  1.01112881160939E+05
 cg2d: Sum(rhs),rhsMax =  -1.07285993251107E+02  1.41977380674756E+00
(PID.TID 0000.0001)  ploadbar=  1.01112951091744E+05
 cg2d: Sum(rhs),rhsMax =  -1.07642295410314E+02  1.41502393383760E+00
(PID.TID 0000.0001)  ploadbar=  1.01113021022550E+05
 cg2d: Sum(rhs),rhsMax =  -1.07985093864855E+02  1.41046210750670E+00
(PID.TID 0000.0001)  ploadbar=  1.01113090953355E+05
 cg2d: Sum(rhs),rhsMax =  -1.08320863338866E+02  1.40599608913421E+00
(PID.TID 0000.0001)  ploadbar=  1.01113160884161E+05
 cg2d: Sum(rhs),rhsMax =  -1.08655349367613E+02  1.40154756047249E+00
(PID.TID 0000.0001)  ploadbar=  1.01113230814966E+05
 cg2d: Sum(rhs),rhsMax =  -1.08992161757028E+02  1.39706685723441E+00
(PID.TID 0000.0001)  ploadbar=  1.01113300745772E+05
 cg2d: Sum(rhs),rhsMax =  -1.09314472607786E+02  1.39281952303938E+00
(PID.TID 0000.0001)  ploadbar=  1.01113844686936E+05
 cg2d: Sum(rhs),rhsMax =  -1.09614746916739E+02  1.38889088432755E+00
(PID.TID 0000.0001)  ploadbar=  1.01114388628100E+05
 cg2d: Sum(rhs),rhsMax =  -1.09895726198694E+02  1.38523608081038E+00
(PID.TID 0000.0001)  ploadbar=  1.01114932569264E+05
 cg2d: Sum(rhs),rhsMax =  -1.09350672336229E+02  1.39204192330812E+00
(PID.TID 0000.0001)  ploadbar=  1.01115476510427E+05
 cg2d: Sum(rhs),rhsMax =  -1.08727914754814E+02  1.39991782464203E+00
(PID.TID 0000.0001)  ploadbar=  1.01116020451591E+05
 cg2d: Sum(rhs),rhsMax =  -1.08191284125268E+02  1.40676277953487E+00
(PID.TID 0000.0001)  ploadbar=  1.01116564392755E+05
 cg2d: Sum(rhs),rhsMax =  -1.07839257742260E+02  1.41126823994180E+00
(PID.TID 0000.0001)  ploadbar=  1.01116804288715E+05
 cg2d: Sum(rhs),rhsMax =  -1.07583932626155E+02  1.41453755718533E+00
(PID.TID 0000.0001)  ploadbar=  1.01117044184675E+05
 cg2d: Sum(rhs),rhsMax =  -1.07384349721332E+02  1.41708767169151E+00
(PID.TID 0000.0001)  ploadbar=  1.01117284080635E+05
 cg2d: Sum(rhs),rhsMax =  -1.07171031968131E+02  1.41982366760613E+00
(PID.TID 0000.0001)  ploadbar=  1.01117523976594E+05
 cg2d: Sum(rhs),rhsMax =  -1.06862467518042E+02  1.42382883807748E+00
(PID.TID 0000.0001)  ploadbar=  1.01117763872554E+05
 cg2d: Sum(rhs),rhsMax =  -1.06383590562567E+02  1.43012910756816E+00
(PID.TID 0000.0001)  ploadbar=  1.01118003768514E+05
 cg2d: Sum(rhs),rhsMax =  -1.05746464717627E+02  1.43863517081145E+00
(PID.TID 0000.0001)  ploadbar=  1.01118866881881E+05
 cg2d: Sum(rhs),rhsMax =  -1.04986559314563E+02  1.44893052835555E+00
(PID.TID 0000.0001)  ploadbar=  1.01119729995247E+05
 cg2d: Sum(rhs),rhsMax =  -1.04162621704073E+02  1.46025940483775E+00
(PID.TID 0000.0001)  ploadbar=  1.01120593108614E+05
 cg2d: Sum(rhs),rhsMax =  -1.03347009960649E+02  1.47162790116818E+00
(PID.TID 0000.0001)  ploadbar=  1.01121456221980E+05
 cg2d: Sum(rhs),rhsMax =  -1.02618014211290E+02  1.48189515890041E+00
(PID.TID 0000.0001)  ploadbar=  1.01122319335347E+05
 cg2d: Sum(rhs),rhsMax =  -1.02032443000881E+02  1.49017589431709E+00
(PID.TID 0000.0001)  ploadbar=  1.01123182448713E+05
 cg2d: Sum(rhs),rhsMax =  -1.01654454770013E+02  1.49546388396034E+00
(PID.TID 0000.0001)  ploadbar=  1.01123688246129E+05
 cg2d: Sum(rhs),rhsMax =  -1.01434254124274E+02  1.49842669335813E+00
(PID.TID 0000.0001)  ploadbar=  1.01124194043545E+05
 cg2d: Sum(rhs),rhsMax =  -1.01307834198827E+02  1.49997894303009E+00
(PID.TID 0000.0001)  ploadbar=  1.01124699840961E+05
 cg2d: Sum(rhs),rhsMax =  -1.01206072871744E+02  1.50112956645442E+00
(PID.TID 0000.0001)  ploadbar=  1.01125205638377E+05
 cg2d: Sum(rhs),rhsMax =  -1.01063190520894E+02  1.50285005258965E+00
(PID.TID 0000.0001)  ploadbar=  1.01125711435793E+05
 cg2d: Sum(rhs),rhsMax =  -1.00835793966659E+02  1.50578950075774E+00
(PID.TID 0000.0001)  ploadbar=  1.01126217233209E+05
 cg2d: Sum(rhs),rhsMax =  -1.00519036766036E+02  1.51012777363856E+00
(PID.TID 0000.0001)  ploadbar=  1.01126736120477E+05
 cg2d: Sum(rhs),rhsMax =  -1.00112987405714E+02  1.51588510853987E+00
(PID.TID 0000.0001)  ploadbar=  1.01127255007745E+05
 cg2d: Sum(rhs),rhsMax =  -9.96343249992852E+01  1.52283335400969E+00
(PID.TID 0000.0001)  ploadbar=  1.01127773895013E+05
 cg2d: Sum(rhs),rhsMax =  -9.91186104166887E+01  1.53045010527182E+00
(PID.TID 0000.0001)  ploadbar=  1.01128292782282E+05
 cg2d: Sum(rhs),rhsMax =  -9.86046400486782E+01  1.53814473033535E+00
(PID.TID 0000.0001)  ploadbar=  1.01128811669550E+05
 cg2d: Sum(rhs),rhsMax =  -9.81232844118967E+01  1.54542676712886E+00
(PID.TID 0000.0001)  ploadbar=  1.01129330556818E+05
 cg2d: Sum(rhs),rhsMax =  -9.76206165385426E+01  1.55313561897599E+00
(PID.TID 0000.0001)  ploadbar=  1.01127643803819E+05
 cg2d: Sum(rhs),rhsMax =  -9.71319285749518E+01  1.56071073754666E+00
(PID.TID 0000.0001)  ploadbar=  1.01125957050819E+05
 cg2d: Sum(rhs),rhsMax =  -9.66721522589238E+01  1.56789838160060E+00
(PID.TID 0000.0001)  ploadbar=  1.01124270297820E+05
 cg2d: Sum(rhs),rhsMax =  -9.62227750746129E+01  1.57498119763656E+00
(PID.TID 0000.0001)  ploadbar=  1.01122583544820E+05
 cg2d: Sum(rhs),rhsMax =  -9.57730317818714E+01  1.58212881517898E+00
(PID.TID 0000.0001)  ploadbar=  1.01120896791821E+05
 cg2d: Sum(rhs),rhsMax =  -9.52892610806770E+01  1.58989940921839E+00
(PID.TID 0000.0001)  ploadbar=  1.01119210038821E+05
 cg2d: Sum(rhs),rhsMax =  -9.49239975872295E+01  1.59578212106943E+00
(PID.TID 0000.0001)  ploadbar=  1.01117820385160E+05
 cg2d: Sum(rhs),rhsMax =  -9.46366154387988E+01  1.60041239457666E+00
(PID.TID 0000.0001)  ploadbar=  1.01116430731498E+05
 cg2d: Sum(rhs),rhsMax =  -9.44623119764478E+01  1.60316443152316E+00
(PID.TID 0000.0001)  ploadbar=  1.01115041077836E+05
 cg2d: Sum(rhs),rhsMax =  -9.44111008623866E+01  1.60384117837202E+00
(PID.TID 0000.0001)  ploadbar=  1.01113651424175E+05
 cg2d: Sum(rhs),rhsMax =  -9.45002480862733E+01  1.60214044990559E+00
(PID.TID 0000.0001)  ploadbar=  1.01112261770513E+05
 cg2d: Sum(rhs),rhsMax =  -9.47430184128338E+01  1.59784690450809E+00
(PID.TID 0000.0001)  ploadbar=  1.01110872116852E+05
 cg2d: Sum(rhs),rhsMax =  -9.52986674674654E+01  1.58832745893334E+00
(PID.TID 0000.0001)  ploadbar=  1.01110421094752E+05
 cg2d: Sum(rhs),rhsMax =  -9.61108658290831E+01  1.57468415047756E+00
(PID.TID 0000.0001)  ploadbar=  1.01109970072652E+05
 cg2d: Sum(rhs),rhsMax =  -9.71312084129185E+01  1.55790092857504E+00
(PID.TID 0000.0001)  ploadbar=  1.01109519050552E+05
 cg2d: Sum(rhs),rhsMax =  -9.82810757793714E+01  1.53940670857802E+00
(PID.TID 0000.0001)  ploadbar=  1.01109068028452E+05
 cg2d: Sum(rhs),rhsMax =  -9.94857216877413E+01  1.52046739072652E+00
(PID.TID 0000.0001)  ploadbar=  1.01108617006353E+05
 cg2d: Sum(rhs),rhsMax =  -1.00684246573598E+02  1.50203255707296E+00
(PID.TID 0000.0001)  ploadbar=  1.01108165984253E+05
 cg2d: Sum(rhs),rhsMax =  -1.01848091010650E+02  1.48459016308430E+00
(PID.TID 0000.0001)  ploadbar=  1.01109369959376E+05
 cg2d: Sum(rhs),rhsMax =  -1.02779672158851E+02  1.47090915695390E+00
(PID.TID 0000.0001)  ploadbar=  1.01110573934499E+05
 cg2d: Sum(rhs),rhsMax =  -1.03609223245955E+02  1.45895587519848E+00
(PID.TID 0000.0001)  ploadbar=  1.01111777909621E+05
 cg2d: Sum(rhs),rhsMax =  -1.04489831615240E+02  1.44652787214368E+00
(PID.TID 0000.0001)  ploadbar=  1.01112981884744E+05
 cg2d: Sum(rhs),rhsMax =  -1.05408841828903E+02  1.43382533446735E+00
(PID.TID 0000.0001)  ploadbar=  1.01114185859867E+05
 cg2d: Sum(rhs),rhsMax =  -1.06486971188174E+02  1.41925597097020E+00
(PID.TID 0000.0001)  ploadbar=  1.01115389834990E+05
 cg2d: Sum(rhs),rhsMax =  -1.07762801514835E+02  1.40240522405559E+00
(PID.TID 0000.0001)  ploadbar=  1.01116607071682E+05
 cg2d: Sum(rhs),rhsMax =  -1.09395788315066E+02  1.38142361754222E+00
(PID.TID 0000.0001)  ploadbar=  1.01117824308375E+05
 cg2d: Sum(rhs),rhsMax =  -1.11409334699756E+02  1.35640229623464E+00
(PID.TID 0000.0001)  ploadbar=  1.01119041545067E+05
 cg2d: Sum(rhs),rhsMax =  -1.13780528322782E+02  1.32806796219117E+00
(PID.TID 0000.0001)  ploadbar=  1.01120258781760E+05
 cg2d: Sum(rhs),rhsMax =  -1.16462551141755E+02  1.29739778368516E+00
(PID.TID 0000.0001)  ploadbar=  1.01121476018453E+05
 cg2d: Sum(rhs),rhsMax =  -1.19316731595637E+02  1.26625098358479E+00
(PID.TID 0000.0001)  ploadbar=  1.01122693255145E+05
 cg2d: Sum(rhs),rhsMax =  -1.22199386737482E+02  1.23627730444476E+00
(PID.TID 0000.0001)  ploadbar=  1.01124205023710E+05
 cg2d: Sum(rhs),rhsMax =  -1.25146654299050E+02  1.20706567819505E+00
(PID.TID 0000.0001)  ploadbar=  1.01125716792276E+05
 cg2d: Sum(rhs),rhsMax =  -1.25756602314298E+02  1.20111386578558E+00
(PID.TID 0000.0001)  ploadbar=  1.01127228560841E+05
 cg2d: Sum(rhs),rhsMax =  -1.26069413669898E+02  1.19802880910588E+00
(PID.TID 0000.0001)  ploadbar=  1.01128740329406E+05
 cg2d: Sum(rhs),rhsMax =  -1.26351767911315E+02  1.19523452967486E+00
(PID.TID 0000.0001)  ploadbar=  1.01130252097971E+05
 cg2d: Sum(rhs),rhsMax =  -1.26593732044082E+02  1.19281430144892E+00
(PID.TID 0000.0001)  ploadbar=  1.01131763866536E+05
 cg2d: Sum(rhs),rhsMax =  -1.26720737756326E+02  1.19146587145152E+00
(PID.TID 0000.0001)  ploadbar=  1.01132431349178E+05
 cg2d: Sum(rhs),rhsMax =  -1.26790665004212E+02  1.19063739004832E+00
(PID.TID 0000.0001)  ploadbar=  1.01133098831820E+05
 cg2d: Sum(rhs),rhsMax =  -1.26826912258923E+02  1.19010514141931E+00
(PID.TID 0000.0001)  ploadbar=  1.01133766314462E+05
 cg2d: Sum(rhs),rhsMax =  -1.26814918424184E+02  1.19000412813073E+00
(PID.TID 0000.0001)  ploadbar=  1.01134433797104E+05
 cg2d: Sum(rhs),rhsMax =  -1.26752061595107E+02  1.19035781597904E+00
(PID.TID 0000.0001)  ploadbar=  1.01135101279746E+05
 cg2d: Sum(rhs),rhsMax =  -1.26642525492018E+02  1.19112389983042E+00
(PID.TID 0000.0001)  ploadbar=  1.01135768762388E+05
 cg2d: Sum(rhs),rhsMax =  -1.26451503523739E+02  1.19269496966108E+00
(PID.TID 0000.0001)  ploadbar=  1.01135309461310E+05
 cg2d: Sum(rhs),rhsMax =  -1.26238854482992E+02  1.19450965821507E+00
(PID.TID 0000.0001)  ploadbar=  1.01134850160231E+05
 cg2d: Sum(rhs),rhsMax =  -1.26032159641272E+02  1.19630598613889E+00
(PID.TID 0000.0001)  ploadbar=  1.01134390859152E+05
 cg2d: Sum(rhs),rhsMax =  -1.25830348065968E+02  1.19808929338676E+00
(PID.TID 0000.0001)  ploadbar=  1.01133931558074E+05
 cg2d: Sum(rhs),rhsMax =  -1.25656310144506E+02  1.19963736443075E+00
(PID.TID 0000.0001)  ploadbar=  1.01133472256995E+05
 cg2d: Sum(rhs),rhsMax =  -1.25526004579132E+02  1.20079223087336E+00
(PID.TID 0000.0001)  ploadbar=  1.01133012955917E+05
 cg2d: Sum(rhs),rhsMax =  -1.25373962465619E+02  1.20214992089873E+00
(PID.TID 0000.0001)  ploadbar=  1.01131937957440E+05
 cg2d: Sum(rhs),rhsMax =  -1.25227474161399E+02  1.20344512256923E+00
(PID.TID 0000.0001)  ploadbar=  1.01130862958963E+05
 cg2d: Sum(rhs),rhsMax =  -1.25085847251373E+02  1.20468056396056E+00
(PID.TID 0000.0001)  ploadbar=  1.01129787960486E+05
 cg2d: Sum(rhs),rhsMax =  -1.24945257306611E+02  1.20588874488766E+00
(PID.TID 0000.0001)  ploadbar=  1.01128712962009E+05
 cg2d: Sum(rhs),rhsMax =  -1.24799733064488E+02  1.20712349599990E+00
(PID.TID 0000.0001)  ploadbar=  1.01127637963532E+05
 cg2d: Sum(rhs),rhsMax =  -1.24646694139654E+02  1.20840615694169E+00
(PID.TID 0000.0001)  ploadbar=  1.01126562965055E+05
 cg2d: Sum(rhs),rhsMax =  -1.24537054216292E+02  1.20930672023271E+00
(PID.TID 0000.0001)  ploadbar=  1.01124650919129E+05
 cg2d: Sum(rhs),rhsMax =  -1.24404442378558E+02  1.21046455214855E+00
(PID.TID 0000.0001)  ploadbar=  1.01122738873203E+05
 cg2d: Sum(rhs),rhsMax =  -1.24253855821805E+02  1.21182570300341E+00
(PID.TID 0000.0001)  ploadbar=  1.01120826827276E+05
 cg2d: Sum(rhs),rhsMax =  -1.24114766033503E+02  1.21309412236362E+00
(PID.TID 0000.0001)  ploadbar=  1.01118914781350E+05
 cg2d: Sum(rhs),rhsMax =  -1.23998881320200E+02  1.21414643733500E+00
(PID.TID 0000.0001)  ploadbar=  1.01117002735424E+05
 cg2d: Sum(rhs),rhsMax =  -1.23912170505014E+02  1.21491293020212E+00
(PID.TID 0000.0001)  ploadbar=  1.01115090689497E+05
 cg2d: Sum(rhs),rhsMax =  -1.23835360783744E+02  1.21556693325004E+00
(PID.TID 0000.0001)  ploadbar=  1.01113674013446E+05
 cg2d: Sum(rhs),rhsMax =  -1.23761741937394E+02  1.21616881953962E+00
(PID.TID 0000.0001)  ploadbar=  1.01112257337395E+05
 cg2d: Sum(rhs),rhsMax =  -1.23693142628563E+02  1.21669598889792E+00
(PID.TID 0000.0001)  ploadbar=  1.01110840661343E+05
 cg2d: Sum(rhs),rhsMax =  -1.23636433388800E+02  1.21707772509319E+00
(PID.TID 0000.0001)  ploadbar=  1.01109423985292E+05
 cg2d: Sum(rhs),rhsMax =  -1.23585295828325E+02  1.21737167410141E+00
(PID.TID 0000.0001)  ploadbar=  1.01108007309241E+05
 cg2d: Sum(rhs),rhsMax =  -1.23537039243849E+02  1.21759889428388E+00
(PID.TID 0000.0001)  ploadbar=  1.01106590633189E+05
 cg2d: Sum(rhs),rhsMax =  -1.23500048161728E+02  1.21775174122236E+00
(PID.TID 0000.0001)  ploadbar=  1.01106153493470E+05
 cg2d: Sum(rhs),rhsMax =  -1.23452726421720E+02  1.21803838758663E+00
(PID.TID 0000.0001)  ploadbar=  1.01105716353751E+05
 cg2d: Sum(rhs),rhsMax =  -1.23388218677905E+02  1.21852052921379E+00
(PID.TID 0000.0001)  ploadbar=  1.01105279214032E+05
 cg2d: Sum(rhs),rhsMax =  -1.23321952626058E+02  1.21904073773845E+00
(PID.TID 0000.0001)  ploadbar=  1.01104842074312E+05
 cg2d: Sum(rhs),rhsMax =  -1.23263236447649E+02  1.21950075442081E+00
(PID.TID 0000.0001)  ploadbar=  1.01104404934593E+05
 cg2d: Sum(rhs),rhsMax =  -1.23215438692137E+02  1.21985867560303E+00
(PID.TID 0000.0001)  ploadbar=  1.01103967794874E+05
 cg2d: Sum(rhs),rhsMax =  -1.23334270265073E+02  1.21855438108278E+00
(PID.TID 0000.0001)  ploadbar=  1.01103561342816E+05
 cg2d: Sum(rhs),rhsMax =  -1.23508335880627E+02  1.21668855348616E+00
(PID.TID 0000.0001)  ploadbar=  1.01103154890759E+05
 cg2d: Sum(rhs),rhsMax =  -1.23698131700887E+02  1.21464608793671E+00
(PID.TID 0000.0001)  ploadbar=  1.01102748438702E+05
 cg2d: Sum(rhs),rhsMax =  -1.23921035134463E+02  1.21225375531164E+00
(PID.TID 0000.0001)  ploadbar=  1.01102341986644E+05
 cg2d: Sum(rhs),rhsMax =  -1.24191860514701E+02  1.20936531631909E+00
(PID.TID 0000.0001)  ploadbar=  1.01101935534587E+05
 cg2d: Sum(rhs),rhsMax =  -1.24510626928180E+02  1.20598143661316E+00
(PID.TID 0000.0001)  ploadbar=  1.01101529082529E+05
 cg2d: Sum(rhs),rhsMax =  -1.24841289402156E+02  1.20253153744769E+00
(PID.TID 0000.0001)  ploadbar=  1.01101083824302E+05
 cg2d: Sum(rhs),rhsMax =  -1.25276044168854E+02  1.19813019757415E+00
(PID.TID 0000.0001)  ploadbar=  1.01100638566074E+05
 cg2d: Sum(rhs),rhsMax =  -1.25749096648468E+02  1.19341806605415E+00
(PID.TID 0000.0001)  ploadbar=  1.01100193307846E+05
 cg2d: Sum(rhs),rhsMax =  -1.26233292863122E+02  1.18865414680401E+00
(PID.TID 0000.0001)  ploadbar=  1.01099748049618E+05
 cg2d: Sum(rhs),rhsMax =  -1.26729860403008E+02  1.18382246355306E+00
(PID.TID 0000.0001)  ploadbar=  1.01099302791391E+05
 cg2d: Sum(rhs),rhsMax =  -1.27242539234158E+02  1.17888291317849E+00
(PID.TID 0000.0001)  ploadbar=  1.01098857533163E+05
 cg2d: Sum(rhs),rhsMax =  -1.27739807854455E+02  1.17412190318579E+00
(PID.TID 0000.0001)  ploadbar=  1.01099175154004E+05
 cg2d: Sum(rhs),rhsMax =  -1.28226896089441E+02  1.16948418864831E+00
(PID.TID 0000.0001)  ploadbar=  1.01099492774846E+05
 cg2d: Sum(rhs),rhsMax =  -1.28675547188245E+02  1.16521986416578E+00
(PID.TID 0000.0001)  ploadbar=  1.01099810395688E+05
 cg2d: Sum(rhs),rhsMax =  -1.29074554710000E+02  1.16141646382520E+00
(PID.TID 0000.0001)  ploadbar=  1.01100128016529E+05
 cg2d: Sum(rhs),rhsMax =  -1.29422271902535E+02  1.15807419590567E+00
(PID.TID 0000.0001)  ploadbar=  1.01100445637371E+05
 cg2d: Sum(rhs),rhsMax =  -1.29725515589354E+02  1.15511932085425E+00
(PID.TID 0000.0001)  ploadbar=  1.01100763258212E+05
 cg2d: Sum(rhs),rhsMax =  -1.29981214160498E+02  1.15264755050814E+00
(PID.TID 0000.0001)  ploadbar=  1.01102158389042E+05
 cg2d: Sum(rhs),rhsMax =  -1.30262732619614E+02  1.15000406141177E+00
(PID.TID 0000.0001)  ploadbar=  1.01103553519871E+05
 cg2d: Sum(rhs),rhsMax =  -1.30550627896292E+02  1.14735670411485E+00
(PID.TID 0000.0001)  ploadbar=  1.01104948650700E+05
 cg2d: Sum(rhs),rhsMax =  -1.30814730468789E+02  1.14496362777732E+00
(PID.TID 0000.0001)  ploadbar=  1.01106343781530E+05
 cg2d: Sum(rhs),rhsMax =  -1.31034922165896E+02  1.14299063849547E+00
(PID.TID 0000.0001)  ploadbar=  1.01107738912359E+05
 cg2d: Sum(rhs),rhsMax =  -1.31204464375045E+02  1.14148457771012E+00
(PID.TID 0000.0001)  ploadbar=  1.01109134043189E+05
 cg2d: Sum(rhs),rhsMax =  -1.31208512665661E+02  1.14140567902293E+00
(PID.TID 0000.0001)  ploadbar=  1.01108833556792E+05
 cg2d: Sum(rhs),rhsMax =  -1.31154604659878E+02  1.14181369964444E+00
(PID.TID 0000.0001)  ploadbar=  1.01108533070395E+05
 cg2d: Sum(rhs),rhsMax =  -1.31078125510260E+02  1.14239799078134E+00
(PID.TID 0000.0001)  ploadbar=  1.01108232583999E+05
 cg2d: Sum(rhs),rhsMax =  -1.30971823640419E+02  1.14321899070661E+00
(PID.TID 0000.0001)  ploadbar=  1.01107932097602E+05
 cg2d: Sum(rhs),rhsMax =  -1.30831583105797E+02  1.14431146249145E+00
(PID.TID 0000.0001)  ploadbar=  1.01107631611206E+05
 cg2d: Sum(rhs),rhsMax =  -1.30665374423838E+02  1.14560385779071E+00
(PID.TID 0000.0001)  ploadbar=  1.01107331124809E+05
 cg2d: Sum(rhs),rhsMax =  -1.30443347624848E+02  1.14741000890624E+00
(PID.TID 0000.0001)  ploadbar=  1.01107696287066E+05
 cg2d: Sum(rhs),rhsMax =  -1.30212688804784E+02  1.14931479566680E+00
(PID.TID 0000.0001)  ploadbar=  1.01108061449323E+05
 cg2d: Sum(rhs),rhsMax =  -1.30055924362813E+02  1.15058565420723E+00
(PID.TID 0000.0001)  ploadbar=  1.01108426611580E+05
 cg2d: Sum(rhs),rhsMax =  -1.29975266665835E+02  1.15119438041065E+00
(PID.TID 0000.0001)  ploadbar=  1.01108791773837E+05
 cg2d: Sum(rhs),rhsMax =  -1.29966557445770E+02  1.15117224147879E+00
(PID.TID 0000.0001)  ploadbar=  1.01109156936094E+05
 cg2d: Sum(rhs),rhsMax =  -1.30027788444742E+02  1.15052963419303E+00
(PID.TID 0000.0001)  ploadbar=  1.01109522098351E+05
 cg2d: Sum(rhs),rhsMax =  -1.30128308374695E+02  1.14953085896867E+00
(PID.TID 0000.0001)  ploadbar=  1.01109040731103E+05
 cg2d: Sum(rhs),rhsMax =  -1.30347123565889E+02  1.14747905613206E+00
(PID.TID 0000.0001)  ploadbar=  1.01108559363854E+05
 cg2d: Sum(rhs),rhsMax =  -1.30653315068174E+02  1.14465254393291E+00
(PID.TID 0000.0001)  ploadbar=  1.01108077996606E+05
 cg2d: Sum(rhs),rhsMax =  -1.31021647664926E+02  1.14127795390284E+00
(PID.TID 0000.0001)  ploadbar=  1.01107596629358E+05
 cg2d: Sum(rhs),rhsMax =  -1.31423906544173E+02  1.13760677655289E+00
(PID.TID 0000.0001)  ploadbar=  1.01107115262109E+05
 cg2d: Sum(rhs),rhsMax =  -1.31820891944951E+02  1.13397741212764E+00
(PID.TID 0000.0001)  ploadbar=  1.01106633894861E+05
 cg2d: Sum(rhs),rhsMax =  -1.32337250355510E+02  1.12940757402421E+00
(PID.TID 0000.0001)  ploadbar=  1.01106274238400E+05
 cg2d: Sum(rhs),rhsMax =  -1.32831248113198E+02  1.12511373118506E+00
(PID.TID 0000.0001)  ploadbar=  1.01105914581939E+05
 cg2d: Sum(rhs),rhsMax =  -1.33258315677854E+02  1.12145977592939E+00
(PID.TID 0000.0001)  ploadbar=  1.01105554925478E+05
 cg2d: Sum(rhs),rhsMax =  -1.33614205962935E+02  1.11846123525190E+00
(PID.TID 0000.0001)  ploadbar=  1.01105195269017E+05
 cg2d: Sum(rhs),rhsMax =  -1.33774387439079E+02  1.11714118974124E+00
(PID.TID 0000.0001)  ploadbar=  1.01104835612556E+05
 cg2d: Sum(rhs),rhsMax =  -1.33665832523321E+02  1.11809368315398E+00
(PID.TID 0000.0001)  ploadbar=  1.01104475956095E+05
 cg2d: Sum(rhs),rhsMax =  -1.33037330693879E+02  1.12341009309508E+00
(PID.TID 0000.0001)  ploadbar=  1.01102482708451E+05
 cg2d: Sum(rhs),rhsMax =  -1.32171827756446E+02  1.13078625689486E+00
(PID.TID 0000.0001)  ploadbar=  1.01100489460806E+05
 cg2d: Sum(rhs),rhsMax =  -1.31120594028945E+02  1.13985196916965E+00
(PID.TID 0000.0001)  ploadbar=  1.01098496213162E+05
 cg2d: Sum(rhs),rhsMax =  -1.29864540758200E+02  1.15085085818293E+00
(PID.TID 0000.0001)  ploadbar=  1.01096502965518E+05
 cg2d: Sum(rhs),rhsMax =  -1.28466670370900E+02  1.16331466010315E+00
(PID.TID 0000.0001)  ploadbar=  1.01094509717873E+05
 cg2d: Sum(rhs),rhsMax =  -1.26979819745943E+02  1.17683800750476E+00
(PID.TID 0000.0001)  ploadbar=  1.01092516470229E+05
 cg2d: Sum(rhs),rhsMax =  -1.25431186951284E+02  1.19129988779470E+00
(PID.TID 0000.0001)  ploadbar=  1.01091106693768E+05
 cg2d: Sum(rhs),rhsMax =  -1.23815583896272E+02  1.20680245506831E+00
(PID.TID 0000.0001)  ploadbar=  1.01089696917306E+05
 cg2d: Sum(rhs),rhsMax =  -1.22216738777529E+02  1.22256950015773E+00
(PID.TID 0000.0001)  ploadbar=  1.01088287140845E+05
 cg2d: Sum(rhs),rhsMax =  -1.20641505916676E+02  1.23853057772543E+00
(PID.TID 0000.0001)  ploadbar=  1.01086877364384E+05
 cg2d: Sum(rhs),rhsMax =  -1.19135796896918E+02  1.25419399973398E+00
(PID.TID 0000.0001)  ploadbar=  1.01085467587922E+05
 cg2d: Sum(rhs),rhsMax =  -1.17648852437674E+02  1.27005995749845E+00
(PID.TID 0000.0001)  ploadbar=  1.01084057811461E+05
 cg2d: Sum(rhs),rhsMax =  -1.16253504556465E+02  1.28530938406644E+00
(PID.TID 0000.0001)  ploadbar=  1.01082924536957E+05
 cg2d: Sum(rhs),rhsMax =  -1.14971513836512E+02  1.29963466330813E+00
(PID.TID 0000.0001)  ploadbar=  1.01081791262453E+05
 cg2d: Sum(rhs),rhsMax =  -1.13801316952800E+02  1.31297451120604E+00
(PID.TID 0000.0001)  ploadbar=  1.01080657987948E+05
 cg2d: Sum(rhs),rhsMax =  -1.12772356137944E+02  1.32490531099283E+00
(PID.TID 0000.0001)  ploadbar=  1.01079524713444E+05
 cg2d: Sum(rhs),rhsMax =  -1.11890344132917E+02  1.33527090583534E+00
(PID.TID 0000.0001)  ploadbar=  1.01078391438940E+05
 cg2d: Sum(rhs),rhsMax =  -1.11143186439858E+02  1.34413620684007E+00
(PID.TID 0000.0001)  ploadbar=  1.01077258164436E+05
 cg2d: Sum(rhs),rhsMax =  -1.10689226096074E+02  1.34960641460273E+00
(PID.TID 0000.0001)  ploadbar=  1.01075495724427E+05
 cg2d: Sum(rhs),rhsMax =  -1.10358785790901E+02  1.35366851595900E+00
(PID.TID 0000.0001)  ploadbar=  1.01073733284418E+05
 cg2d: Sum(rhs),rhsMax =  -1.10074406537000E+02  1.35724715520290E+00
(PID.TID 0000.0001)  ploadbar=  1.01071970844409E+05
 cg2d: Sum(rhs),rhsMax =  -1.09849000467944E+02  1.36016879878005E+00
(PID.TID 0000.0001)  ploadbar=  1.01070208404400E+05
 cg2d: Sum(rhs),rhsMax =  -1.09677583602396E+02  1.36247613026056E+00
(PID.TID 0000.0001)  ploadbar=  1.01068445964391E+05
 cg2d: Sum(rhs),rhsMax =  -1.09541691758332E+02  1.36437748374895E+00
(PID.TID 0000.0001)  ploadbar=  1.01066683524382E+05
 cg2d: Sum(rhs),rhsMax =  -1.09454589610281E+02  1.36564572998301E+00
(PID.TID 0000.0001)  ploadbar=  1.01065930575444E+05
 cg2d: Sum(rhs),rhsMax =  -1.09419145067542E+02  1.36623690401200E+00
(PID.TID 0000.0001)  ploadbar=  1.01065177626506E+05
 cg2d: Sum(rhs),rhsMax =  -1.09374307693834E+02  1.36690692060958E+00
(PID.TID 0000.0001)  ploadbar=  1.01064424677568E+05
 cg2d: Sum(rhs),rhsMax =  -1.09302051759863E+02  1.36787967572632E+00
(PID.TID 0000.0001)  ploadbar=  1.01063671728630E+05
 cg2d: Sum(rhs),rhsMax =  -1.09225423892731E+02  1.36886450533497E+00
(PID.TID 0000.0001)  ploadbar=  1.01062918779692E+05
 cg2d: Sum(rhs),rhsMax =  -1.09262955511080E+02  1.36836788706375E+00
(PID.TID 0000.0001)  ploadbar=  1.01062165830753E+05
 cg2d: Sum(rhs),rhsMax =  -1.09321426526869E+02  1.36762537873389E+00
(PID.TID 0000.0001)  ploadbar=  1.01061402940074E+05
 cg2d: Sum(rhs),rhsMax =  -1.09477723326407E+02  1.36567381559545E+00
(PID.TID 0000.0001)  ploadbar=  1.01060640049395E+05
 cg2d: Sum(rhs),rhsMax =  -1.09690351550554E+02  1.36303375208483E+00
(PID.TID 0000.0001)  ploadbar=  1.01059877158716E+05
 cg2d: Sum(rhs),rhsMax =  -1.09939982372261E+02  1.35994395160579E+00
(PID.TID 0000.0001)  ploadbar=  1.01059114268037E+05
 cg2d: Sum(rhs),rhsMax =  -1.10203477724174E+02  1.35669082402064E+00
(PID.TID 0000.0001)  ploadbar=  1.01058351377358E+05
 cg2d: Sum(rhs),rhsMax =  -1.10465249471865E+02  1.35346487693356E+00
(PID.TID 0000.0001)  ploadbar=  1.01057588486679E+05
 cg2d: Sum(rhs),rhsMax =  -1.10594958115668E+02  1.35186129903075E+00
(PID.TID 0000.0001)  ploadbar=  1.01056598891238E+05
 cg2d: Sum(rhs),rhsMax =  -1.10699362774803E+02  1.35055971095124E+00
(PID.TID 0000.0001)  ploadbar=  1.01055609295797E+05
 cg2d: Sum(rhs),rhsMax =  -1.10784185782906E+02  1.34948462137784E+00
(PID.TID 0000.0001)  ploadbar=  1.01054619700355E+05
 cg2d: Sum(rhs),rhsMax =  -1.10860836830625E+02  1.34849055039452E+00
(PID.TID 0000.0001)  ploadbar=  1.01053630104914E+05
 cg2d: Sum(rhs),rhsMax =  -1.10912440494989E+02  1.34777644900170E+00
(PID.TID 0000.0001)  ploadbar=  1.01052640509473E+05
 cg2d: Sum(rhs),rhsMax =  -1.10945925585104E+02  1.34725540128177E+00
(PID.TID 0000.0001)  ploadbar=  1.01051650914032E+05
 cg2d: Sum(rhs),rhsMax =  -1.10895333078541E+02  1.34779735495050E+00
(PID.TID 0000.0001)  ploadbar=  1.01050127921209E+05
 cg2d: Sum(rhs),rhsMax =  -1.11000582399410E+02  1.34648437659192E+00
(PID.TID 0000.0001)  ploadbar=  1.01048604928386E+05
 cg2d: Sum(rhs),rhsMax =  -1.11320211239319E+02  1.34261810533316E+00
(PID.TID 0000.0001)  ploadbar=  1.01047081935563E+05
 cg2d: Sum(rhs),rhsMax =  -1.11716365266268E+02  1.33788532820690E+00
(PID.TID 0000.0001)  ploadbar=  1.01045558942740E+05
 cg2d: Sum(rhs),rhsMax =  -1.12097014178066E+02  1.33339345395319E+00
(PID.TID 0000.0001)  ploadbar=  1.01044035949917E+05
 cg2d: Sum(rhs),rhsMax =  -1.12604799820379E+02  1.32744899763489E+00
(PID.TID 0000.0001)  ploadbar=  1.01042512957094E+05
 cg2d: Sum(rhs),rhsMax =  -1.12694167465414E+02  1.32644346303196E+00
(PID.TID 0000.0001)  ploadbar=  1.01042133157692E+05
 cg2d: Sum(rhs),rhsMax =  -1.10299553516393E+02  1.35526438192729E+00
(PID.TID 0000.0001)  ploadbar=  1.01041753358291E+05
 cg2d: Sum(rhs),rhsMax =  -1.07749174243323E+02  1.38733930579775E+00
(PID.TID 0000.0001)  ploadbar=  1.01041373558890E+05
 cg2d: Sum(rhs),rhsMax =  -1.04675447409335E+02  1.42804273868246E+00
(PID.TID 0000.0001)  ploadbar=  1.01040993759489E+05
 cg2d: Sum(rhs),rhsMax =  -1.01331544918974E+02  1.47509606344376E+00
(PID.TID 0000.0001)  ploadbar=  1.01040613960088E+05
 cg2d: Sum(rhs),rhsMax =  -9.76305027696497E+01  1.53090033067796E+00
(PID.TID 0000.0001)  ploadbar=  1.01040234160686E+05
 cg2d: Sum(rhs),rhsMax =  -9.38583115268191E+01  1.59233779916285E+00
(PID.TID 0000.0001)  ploadbar=  1.01040034703325E+05
 cg2d: Sum(rhs),rhsMax =  -9.02262011323996E+01  1.65636453564430E+00
(PID.TID 0000.0001)  ploadbar=  1.01039835245964E+05
 cg2d: Sum(rhs),rhsMax =  -8.68536231367784E+01  1.72062109686700E+00
(PID.TID 0000.0001)  ploadbar=  1.01039635788603E+05
 cg2d: Sum(rhs),rhsMax =  -8.37666629138731E+01  1.78397564933287E+00
(PID.TID 0000.0001)  ploadbar=  1.01039436331242E+05
 cg2d: Sum(rhs),rhsMax =  -8.09660007920188E+01  1.84563388621499E+00
(PID.TID 0000.0001)  ploadbar=  1.01039236873880E+05
 cg2d: Sum(rhs),rhsMax =  -7.84374947834102E+01  1.90507675352869E+00
(PID.TID 0000.0001)  ploadbar=  1.01039037416519E+05
 cg2d: Sum(rhs),rhsMax =  -7.63874131749750E+01  1.95609993886862E+00
(PID.TID 0000.0001)  ploadbar=  1.01039235698699E+05
 cg2d: Sum(rhs),rhsMax =  -7.46684454486747E+01  2.00096734062300E+00
(PID.TID 0000.0001)  ploadbar=  1.01039433980878E+05
 cg2d: Sum(rhs),rhsMax =  -7.32419817609935E+01  2.03970930807643E+00
(PID.TID 0000.0001)  ploadbar=  1.01039632263058E+05
 cg2d: Sum(rhs),rhsMax =  -7.20995885425960E+01  2.07172643701467E+00
(PID.TID 0000.0001)  ploadbar=  1.01039830545237E+05
 cg2d: Sum(rhs),rhsMax =  -7.12316664488468E+01  2.09658596798223E+00
(PID.TID 0000.0001)  ploadbar=  1.01040028827417E+05
 cg2d: Sum(rhs),rhsMax =  -7.06286237153644E+01  2.11401466318850E+00
(PID.TID 0000.0001)  ploadbar=  1.01040227109596E+05
 cg2d: Sum(rhs),rhsMax =  -7.02660073156792E+01  2.12452331946221E+00
(PID.TID 0000.0001)  ploadbar=  1.01039984486986E+05
 cg2d: Sum(rhs),rhsMax =  -7.00472539162810E+01  2.13082098654022E+00
(PID.TID 0000.0001)  ploadbar=  1.01039741864375E+05
 cg2d: Sum(rhs),rhsMax =  -6.99300032004862E+01  2.13411195400822E+00
(PID.TID 0000.0001)  ploadbar=  1.01039499241764E+05
 cg2d: Sum(rhs),rhsMax =  -6.98983996187573E+01  2.13483987327361E+00
(PID.TID 0000.0001)  ploadbar=  1.01039256619154E+05
 cg2d: Sum(rhs),rhsMax =  -6.99239323945907E+01  2.13386352937858E+00
(PID.TID 0000.0001)  ploadbar=  1.01039013996543E+05
 cg2d: Sum(rhs),rhsMax =  -6.99726111431726E+01  2.13221516491642E+00
(PID.TID 0000.0001)  ploadbar=  1.01038771373932E+05
 cg2d: Sum(rhs),rhsMax =  -6.99966904901467E+01  2.13130569486234E+00
(PID.TID 0000.0001)  ploadbar=  1.01038580749642E+05
 cg2d: Sum(rhs),rhsMax =  -7.00630637324960E+01  2.12909274475154E+00
(PID.TID 0000.0001)  ploadbar=  1.01038390125352E+05
 cg2d: Sum(rhs),rhsMax =  -7.01851815962262E+01  2.12517351388259E+00
(PID.TID 0000.0001)  ploadbar=  1.01038199501061E+05
 cg2d: Sum(rhs),rhsMax =  -7.03603146910972E+01  2.11964443244633E+00
(PID.TID 0000.0001)  ploadbar=  1.01038008876771E+05
 cg2d: Sum(rhs),rhsMax =  -7.06045285538289E+01  2.11204526532179E+00
(PID.TID 0000.0001)  ploadbar=  1.01037818252481E+05
 cg2d: Sum(rhs),rhsMax =  -7.09182901812778E+01  2.10239845019239E+00
(PID.TID 0000.0001)  ploadbar=  1.01037627628190E+05
 cg2d: Sum(rhs),rhsMax =  -7.13097173347044E+01  2.09059433794692E+00
(PID.TID 0000.0001)  ploadbar=  1.01038655355538E+05
 cg2d: Sum(rhs),rhsMax =  -7.17316085408849E+01  2.07806288335873E+00
(PID.TID 0000.0001)  ploadbar=  1.01039683082886E+05
 cg2d: Sum(rhs),rhsMax =  -7.21644644036731E+01  2.06538706144983E+00
(PID.TID 0000.0001)  ploadbar=  1.01040710810235E+05
 cg2d: Sum(rhs),rhsMax =  -7.25891680630743E+01  2.05311322566093E+00
(PID.TID 0000.0001)  ploadbar=  1.01041738537583E+05
 cg2d: Sum(rhs),rhsMax =  -7.29977457207198E+01  2.04144801619121E+00
(PID.TID 0000.0001)  ploadbar=  1.01042766264931E+05
 cg2d: Sum(rhs),rhsMax =  -7.33896085898380E+01  2.03037701370563E+00
(PID.TID 0000.0001)  ploadbar=  1.01043793992279E+05
 cg2d: Sum(rhs),rhsMax =  -7.37778623428620E+01  2.01952790662886E+00
(PID.TID 0000.0001)  ploadbar=  1.01044208639451E+05
 cg2d: Sum(rhs),rhsMax =  -7.41642281008878E+01  2.00883787371173E+00
(PID.TID 0000.0001)  ploadbar=  1.01044623286624E+05
 cg2d: Sum(rhs),rhsMax =  -7.45457154770063E+01  1.99837831970371E+00
(PID.TID 0000.0001)  ploadbar=  1.01045037933796E+05
 cg2d: Sum(rhs),rhsMax =  -7.48896824784684E+01  1.98900607342911E+00
(PID.TID 0000.0001)  ploadbar=  1.01045452580969E+05
 cg2d: Sum(rhs),rhsMax =  -7.52028837050395E+01  1.98051127705804E+00
(PID.TID 0000.0001)  ploadbar=  1.01045867228141E+05
 cg2d: Sum(rhs),rhsMax =  -7.54550376332569E+01  1.97365951703241E+00
(PID.TID 0000.0001)  ploadbar=  1.01046281875313E+05
 cg2d: Sum(rhs),rhsMax =  -7.56435442606532E+01  1.96857566181671E+00
(PID.TID 0000.0001)  ploadbar=  1.01045876873738E+05
 cg2d: Sum(rhs),rhsMax =  -7.57906265602095E+01  1.96464416281655E+00
(PID.TID 0000.0001)  ploadbar=  1.01045471872164E+05
 cg2d: Sum(rhs),rhsMax =  -7.58842269784119E+01  1.96215474958136E+00
(PID.TID 0000.0001)  ploadbar=  1.01045066870589E+05
 cg2d: Sum(rhs),rhsMax =  -7.59255131023397E+01  1.96106384849298E+00
(PID.TID 0000.0001)  ploadbar=  1.01044661869014E+05
 cg2d: Sum(rhs),rhsMax =  -7.59153003028828E+01  1.96133924667438E+00
(PID.TID 0000.0001)  ploadbar=  1.01044256867439E+05
 cg2d: Sum(rhs),rhsMax =  -7.58620122438197E+01  1.96276086220088E+00
(PID.TID 0000.0001)  ploadbar=  1.01043851865864E+05
 cg2d: Sum(rhs),rhsMax =  -7.57566738971086E+01  1.96552703347720E+00
(PID.TID 0000.0001)  ploadbar=  1.01043490955216E+05
 cg2d: Sum(rhs),rhsMax =  -7.56357089647555E+01  1.96869765480815E+00
(PID.TID 0000.0001)  ploadbar=  1.01043130044567E+05
 cg2d: Sum(rhs),rhsMax =  -7.55337141595400E+01  1.97136530879611E+00
(PID.TID 0000.0001)  ploadbar=  1.01042769133918E+05
 cg2d: Sum(rhs),rhsMax =  -7.55444289210928E+01  1.97107155804077E+00
(PID.TID 0000.0001)  ploadbar=  1.01042408223269E+05
 cg2d: Sum(rhs),rhsMax =  -7.59064667983606E+01  1.96163024321493E+00
(PID.TID 0000.0001)  ploadbar=  1.01042047312620E+05
 cg2d: Sum(rhs),rhsMax =  -7.61704605305328E+01  1.95475769091413E+00
(PID.TID 0000.0001)  ploadbar=  1.01041686401972E+05
 cg2d: Sum(rhs),rhsMax =  -7.64463894346868E+01  1.94764257086855E+00
(PID.TID 0000.0001)  ploadbar=  1.01042724808462E+05
 cg2d: Sum(rhs),rhsMax =  -7.66697853514586E+01  1.94191708308146E+00
(PID.TID 0000.0001)  ploadbar=  1.01043763214952E+05
 cg2d: Sum(rhs),rhsMax =  -7.68409009937476E+01  1.93754652267330E+00
(PID.TID 0000.0001)  ploadbar=  1.01044801621441E+05
 cg2d: Sum(rhs),rhsMax =  -7.69817609890510E+01  1.93395384734536E+00
(PID.TID 0000.0001)  ploadbar=  1.01045840027931E+05
 cg2d: Sum(rhs),rhsMax =  -7.70986467716453E+01  1.93096732311727E+00
(PID.TID 0000.0001)  ploadbar=  1.01046878434421E+05
 cg2d: Sum(rhs),rhsMax =  -7.71980125812945E+01  1.92841277037467E+00
(PID.TID 0000.0001)  ploadbar=  1.01047916840911E+05
 cg2d: Sum(rhs),rhsMax =  -7.72621676483341E+01  1.92676082716707E+00
(PID.TID 0000.0001)  ploadbar=  1.01046605796567E+05
 cg2d: Sum(rhs),rhsMax =  -7.73054420177041E+01  1.92564310511916E+00
(PID.TID 0000.0001)  ploadbar=  1.01045294752223E+05
 cg2d: Sum(rhs),rhsMax =  -7.73411411113370E+01  1.92472268298028E+00
(PID.TID 0000.0001)  ploadbar=  1.01043983707879E+05
 cg2d: Sum(rhs),rhsMax =  -7.73871071597617E+01  1.92354761669458E+00
(PID.TID 0000.0001)  ploadbar=  1.01042672663535E+05
 cg2d: Sum(rhs),rhsMax =  -7.74775154012621E+01  1.92126849669922E+00
(PID.TID 0000.0001)  ploadbar=  1.01041361619191E+05
 cg2d: Sum(rhs),rhsMax =  -7.76450862290726E+01  1.91707642904833E+00
(PID.TID 0000.0001)  ploadbar=  1.01040050574847E+05
 cg2d: Sum(rhs),rhsMax =  -7.78522160244050E+01  1.91198147846360E+00
(PID.TID 0000.0001)  ploadbar=  1.01038749866545E+05
 cg2d: Sum(rhs),rhsMax =  -7.81248671669222E+01  1.90535443006837E+00
(PID.TID 0000.0001)  ploadbar=  1.01037449158243E+05
 cg2d: Sum(rhs),rhsMax =  -7.84353533992632E+01  1.89789083522803E+00
(PID.TID 0000.0001)  ploadbar=  1.01036148449942E+05
 cg2d: Sum(rhs),rhsMax =  -7.87723073214551E+01  1.88988260997557E+00
(PID.TID 0000.0001)  ploadbar=  1.01034847741640E+05
 cg2d: Sum(rhs),rhsMax =  -7.91249568772796E+01  1.88160305133729E+00
(PID.TID 0000.0001)  ploadbar=  1.01033547033338E+05
 cg2d: Sum(rhs),rhsMax =  -7.94751041038997E+01  1.87349508890143E+00
(PID.TID 0000.0001)  ploadbar=  1.01032246325037E+05
 cg2d: Sum(rhs),rhsMax =  -7.98131190127188E+01  1.86573931588823E+00
(PID.TID 0000.0001)  ploadbar=  1.01030820900700E+05
 cg2d: Sum(rhs),rhsMax =  -8.01440996433292E+01  1.85819570139678E+00
(PID.TID 0000.0001)  ploadbar=  1.01029395476362E+05
 cg2d: Sum(rhs),rhsMax =  -8.04914567752220E+01  1.85031391750942E+00
(PID.TID 0000.0001)  ploadbar=  1.01027970052025E+05
 cg2d: Sum(rhs),rhsMax =  -8.08557970125741E+01  1.84208501344485E+00
(PID.TID 0000.0001)  ploadbar=  1.01026544627688E+05
 cg2d: Sum(rhs),rhsMax =  -8.12520214693910E+01  1.83318144146035E+00
(PID.TID 0000.0001)  ploadbar=  1.01025119203351E+05
 cg2d: Sum(rhs),rhsMax =  -8.17014093552533E+01  1.82314570608752E+00
(PID.TID 0000.0001)  ploadbar=  1.01023693779014E+05
 cg2d: Sum(rhs),rhsMax =  -8.22413270518692E+01  1.81124444222413E+00
(PID.TID 0000.0001)  ploadbar=  1.01022189259997E+05
 cg2d: Sum(rhs),rhsMax =  -8.28766412395753E+01  1.79744326409047E+00
(PID.TID 0000.0001)  ploadbar=  1.01020684740981E+05
 cg2d: Sum(rhs),rhsMax =  -8.36166031750073E+01  1.78163526968959E+00
(PID.TID 0000.0001)  ploadbar=  1.01019180221964E+05
 cg2d: Sum(rhs),rhsMax =  -8.44669055749515E+01  1.76381021461655E+00
(PID.TID 0000.0001)  ploadbar=  1.01017675702948E+05
 cg2d: Sum(rhs),rhsMax =  -8.54068044729136E+01  1.74451578262453E+00
(PID.TID 0000.0001)  ploadbar=  1.01016171183931E+05
 cg2d: Sum(rhs),rhsMax =  -8.64190007696101E+01  1.72419896019289E+00
(PID.TID 0000.0001)  ploadbar=  1.01014666664915E+05
 cg2d: Sum(rhs),rhsMax =  -8.73705416542706E+01  1.70551544806251E+00
(PID.TID 0000.0001)  ploadbar=  1.01012914660949E+05
 cg2d: Sum(rhs),rhsMax =  -8.83144702186335E+01  1.68735298704290E+00
(PID.TID 0000.0001)  ploadbar=  1.01011162656984E+05
 cg2d: Sum(rhs),rhsMax =  -8.91877659832528E+01  1.67086227074593E+00
(PID.TID 0000.0001)  ploadbar=  1.01009410653019E+05
 cg2d: Sum(rhs),rhsMax =  -8.99704797088650E+01  1.65631673348365E+00
(PID.TID 0000.0001)  ploadbar=  1.01007658649054E+05
 cg2d: Sum(rhs),rhsMax =  -9.06572703940064E+01  1.64371675381113E+00
(PID.TID 0000.0001)  ploadbar=  1.01005906645089E+05
 cg2d: Sum(rhs),rhsMax =  -9.12520646450512E+01  1.63290481144738E+00
(PID.TID 0000.0001)  ploadbar=  1.01004154641124E+05
 cg2d: Sum(rhs),rhsMax =  -9.18806574028892E+01  1.62168757014476E+00
(PID.TID 0000.0001)  ploadbar=  1.01003065347118E+05
 cg2d: Sum(rhs),rhsMax =  -9.24811213294522E+01  1.61115387719806E+00
(PID.TID 0000.0001)  ploadbar=  1.01001976053113E+05
 cg2d: Sum(rhs),rhsMax =  -9.30765063101512E+01  1.60087914442319E+00
(PID.TID 0000.0001)  ploadbar=  1.01000886759108E+05
 cg2d: Sum(rhs),rhsMax =  -9.36729975225658E+01  1.59074996000449E+00
(PID.TID 0000.0001)  ploadbar=  1.00999797465103E+05
 cg2d: Sum(rhs),rhsMax =  -9.42807818878663E+01  1.58059106376245E+00
(PID.TID 0000.0001)  ploadbar=  1.00998708171097E+05
 cg2d: Sum(rhs),rhsMax =  -9.49014111038608E+01  1.57038312417073E+00
(PID.TID 0000.0001)  ploadbar=  1.00997618877092E+05
 cg2d: Sum(rhs),rhsMax =  -9.56209310662633E+01  1.55869949352524E+00
(PID.TID 0000.0001)  ploadbar=  1.00996661748226E+05
 cg2d: Sum(rhs),rhsMax =  -9.63964164948243E+01  1.54627963821265E+00
(PID.TID 0000.0001)  ploadbar=  1.00995704619361E+05
 cg2d: Sum(rhs),rhsMax =  -9.72402867058473E+01  1.53296334770169E+00
(PID.TID 0000.0001)  ploadbar=  1.00994747490495E+05
 cg2d: Sum(rhs),rhsMax =  -9.81291383092868E+01  1.51916047051120E+00
(PID.TID 0000.0001)  ploadbar=  1.00993790361629E+05
 cg2d: Sum(rhs),rhsMax =  -9.90843120974074E+01  1.50457565943886E+00
(PID.TID 0000.0001)  ploadbar=  1.00992833232764E+05
 cg2d: Sum(rhs),rhsMax =  -1.00138927432439E+02  1.48876729623094E+00
(PID.TID 0000.0001)  ploadbar=  1.00991876103898E+05
 cg2d: Sum(rhs),rhsMax =  -1.01246435533072E+02  1.47253096759166E+00
(PID.TID 0000.0001)  ploadbar=  1.00990845401296E+05
 cg2d: Sum(rhs),rhsMax =  -1.02540438693246E+02  1.45400510187475E+00
(PID.TID 0000.0001)  ploadbar=  1.00989814698695E+05
 cg2d: Sum(rhs),rhsMax =  -1.04053361771231E+02  1.43292841256258E+00
(PID.TID 0000.0001)  ploadbar=  1.00988783996093E+05
 cg2d: Sum(rhs),rhsMax =  -1.05772064517924E+02  1.40971340577720E+00
(PID.TID 0000.0001)  ploadbar=  1.00987753293491E+05
 cg2d: Sum(rhs),rhsMax =  -1.07674607558695E+02  1.38487291291529E+00
(PID.TID 0000.0001)  ploadbar=  1.00986722590889E+05
 cg2d: Sum(rhs),rhsMax =  -1.09745249843752E+02  1.35880911771138E+00
(PID.TID 0000.0001)  ploadbar=  1.00985691888288E+05
 cg2d: Sum(rhs),rhsMax =  -1.11385887004890E+02  1.33887321505716E+00
(PID.TID 0000.0001)  ploadbar=  1.00986061934545E+05
 cg2d: Sum(rhs),rhsMax =  -1.11558717295674E+02  1.33688701047271E+00
(PID.TID 0000.0001)  ploadbar=  1.00986431980802E+05
 cg2d: Sum(rhs),rhsMax =  -1.11734215908306E+02  1.33488162404834E+00
(PID.TID 0000.0001)  ploadbar=  1.00986802027059E+05
 cg2d: Sum(rhs),rhsMax =  -1.11924324410462E+02  1.33271179987614E+00
(PID.TID 0000.0001)  ploadbar=  1.00987172073316E+05
 cg2d: Sum(rhs),rhsMax =  -1.12125136724975E+02  1.33041974036302E+00
(PID.TID 0000.0001)  ploadbar=  1.00987542119573E+05
 cg2d: Sum(rhs),rhsMax =  -1.12336454306362E+02  1.32800699439064E+00
(PID.TID 0000.0001)  ploadbar=  1.00987912165830E+05
 cg2d: Sum(rhs),rhsMax =  -1.12579411093098E+02  1.32526130793822E+00
(PID.TID 0000.0001)  ploadbar=  1.00988162008133E+05
 cg2d: Sum(rhs),rhsMax =  -1.12852157507357E+02  1.32219865922385E+00
(PID.TID 0000.0001)  ploadbar=  1.00988411850435E+05
 cg2d: Sum(rhs),rhsMax =  -1.13131699097589E+02  1.31908645212138E+00
(PID.TID 0000.0001)  ploadbar=  1.00988661692737E+05
 cg2d: Sum(rhs),rhsMax =  -1.13434834867008E+02  1.31572706022741E+00
(PID.TID 0000.0001)  ploadbar=  1.00988911535039E+05
 cg2d: Sum(rhs),rhsMax =  -1.13777840055953E+02  1.31193605326594E+00
(PID.TID 0000.0001)  ploadbar=  1.00989161377341E+05
 cg2d: Sum(rhs),rhsMax =  -1.14160157273906E+02  1.30772778506111E+00
(PID.TID 0000.0001)  ploadbar=  1.00989411219643E+05
 cg2d: Sum(rhs),rhsMax =  -1.14602882625201E+02  1.30283259333389E+00
(PID.TID 0000.0001)  ploadbar=  1.00989163973212E+05
 cg2d: Sum(rhs),rhsMax =  -1.15108252624533E+02  1.29723453609744E+00
(PID.TID 0000.0001)      cg2d_init_res =   2.99132485710002E-01
(PID.TID 0000.0001)      cg2d_iters(min,last) =      -1     141
(PID.TID 0000.0001)      cg2d_last_res =   8.79725767707640E-08
(PID.TID 0000.0001) // =======================================================
(PID.TID 0000.0001) // Begin MONITOR dynamic field statistics
(PID.TID 0000.0001) // =======================================================
(PID.TID 0000.0001) %MON time_tsnumber                =                  7008
(PID.TID 0000.0001) %MON time_secondsf                =   2.5228800000000E+07
(PID.TID 0000.0001) %MON dynstat_eta_max              =   1.1589428536389E+00
(PID.TID 0000.0001) %MON dynstat_eta_min              =  -5.6498686773211E+00
(PID.TID 0000.0001) %MON dynstat_eta_mean             =   7.5576711009084E-02
(PID.TID 0000.0001) %MON dynstat_eta_sd               =   7.2837779212284E-01
(PID.TID 0000.0001) %MON dynstat_eta_del2             =   1.9345786648647E-04
(PID.TID 0000.0001) %MON dynstat_uvel_max             =   1.3413559269576E+00
(PID.TID 0000.0001) %MON dynstat_uvel_min             =  -1.2237693995898E+00
(PID.TID 0000.0001) %MON dynstat_uvel_mean            =   1.3358670944927E-03
(PID.TID 0000.0001) %MON dynstat_uvel_sd              =   2.0840537459256E-02
(PID.TID 0000.0001) %MON dynstat_uvel_del2            =   8.6601862666966E-06
(PID.TID 0000.0001) %MON dynstat_vvel_max             =   6.8121263067142E-01
(PID.TID 0000.0001) %MON dynstat_vvel_min             =  -8.6596623704806E-01
(PID.TID 0000.0001) %MON dynstat_vvel_mean            =   1.2408651320873E-03
(PID.TID 0000.0001) %MON dynstat_vvel_sd              =   2.1582288317599E-02
(PID.TID 0000.0001) %MON dynstat_vvel_del2            =   8.9801627066711E-06
(PID.TID 0000.0001) %MON dynstat_wvel_max             =   3.3893786321207E-04
(PID.TID 0000.0001) %MON dynstat_wvel_min             =  -1.4443685810333E-03
(PID.TID 0000.0001) %MON dynstat_wvel_mean            =   3.6041874614809E-09
(PID.TID 0000.0001) %MON dynstat_wvel_sd              =   2.0099751253385E-05
(PID.TID 0000.0001) %MON dynstat_wvel_del2            =   1.6274917668255E-08
(PID.TID 0000.0001) %MON dynstat_theta_max            =   3.2643193449781E+01
(PID.TID 0000.0001) %MON dynstat_theta_min            =  -1.9731284272695E+00
(PID.TID 0000.0001) %MON dynstat_theta_mean           =   3.5774196257912E+00
(PID.TID 0000.0001) %MON dynstat_theta_sd             =   4.4258657433054E+00
(PID.TID 0000.0001) %MON dynstat_theta_del2           =   8.9613475729853E-05
(PID.TID 0000.0001) %MON dynstat_salt_max             =   4.0641866305635E+01
(PID.TID 0000.0001) %MON dynstat_salt_min             =   2.2083374071295E+01
(PID.TID 0000.0001) %MON dynstat_salt_mean            =   3.4726951263631E+01
(PID.TID 0000.0001) %MON dynstat_salt_sd              =   3.8020285961129E-01
(PID.TID 0000.0001) %MON dynstat_salt_del2            =   1.9446886933024E-05
(PID.TID 0000.0001) %MON dynstat_sst_max              =   3.1692917717203E+01
(PID.TID 0000.0001) %MON dynstat_sst_min              =  -1.9605425079721E+00
(PID.TID 0000.0001) %MON dynstat_sst_mean             =   1.7927857801912E+01
(PID.TID 0000.0001) %MON dynstat_sst_sd               =   1.0289809472385E+01
(PID.TID 0000.0001) %MON dynstat_sst_del2             =   5.5687563365497E-04
(PID.TID 0000.0001) %MON dynstat_sss_max              =   3.9865575896024E+01
(PID.TID 0000.0001) %MON dynstat_sss_min              =   2.2083374071295E+01
(PID.TID 0000.0001) %MON dynstat_sss_mean             =   3.4704899528337E+01
(PID.TID 0000.0001) %MON dynstat_sss_sd               =   1.3112372797813E+00
(PID.TID 0000.0001) %MON dynstat_sss_del2             =   2.9275960144089E-04
(PID.TID 0000.0001) %MON forcing_qnet_max             =   7.4619329985067E+02
(PID.TID 0000.0001) %MON forcing_qnet_min             =  -5.7329655821708E+02
(PID.TID 0000.0001) %MON forcing_qnet_mean            =   1.6248791672821E+01
(PID.TID 0000.0001) %MON forcing_qnet_sd              =   1.8914805854279E+02
(PID.TID 0000.0001) %MON forcing_qnet_del2            =   9.3108890949037E-02
(PID.TID 0000.0001) %MON forcing_qsw_max              =   5.6509998509494E+01
(PID.TID 0000.0001) %MON forcing_qsw_min              =  -6.3357070972711E+02
(PID.TID 0000.0001) %MON forcing_qsw_mean             =  -1.4914748405350E+02
(PID.TID 0000.0001) %MON forcing_qsw_sd               =   1.6783894986150E+02
(PID.TID 0000.0001) %MON forcing_qsw_del2             =   5.5655388814379E-02
(PID.TID 0000.0001) %MON forcing_empmr_max            =   1.1774499351223E-03
(PID.TID 0000.0001) %MON forcing_empmr_min            =  -3.5220237385158E-03
(PID.TID 0000.0001) %MON forcing_empmr_mean           =  -2.0296964895350E-06
(PID.TID 0000.0001) %MON forcing_empmr_sd             =   9.6793437354413E-05
(PID.TID 0000.0001) %MON forcing_empmr_del2           =   2.5543567584053E-07
(PID.TID 0000.0001) %MON forcing_fu_max               =   1.0005438327789E+00
(PID.TID 0000.0001) %MON forcing_fu_min               =  -1.8907892505328E+00
(PID.TID 0000.0001) %MON forcing_fu_mean              =   1.0335116295889E-02
(PID.TID 0000.0001) %MON forcing_fu_sd                =   1.2571075351116E-01
(PID.TID 0000.0001) %MON forcing_fu_del2              =   8.6260465489432E-05
(PID.TID 0000.0001) %MON forcing_fv_max               =   7.1958143815570E-01
(PID.TID 0000.0001) %MON forcing_fv_min               =  -1.3043933000398E+00
(PID.TID 0000.0001) %MON forcing_fv_mean              =   5.6983459329201E-03
(PID.TID 0000.0001) %MON forcing_fv_sd                =   1.2345954451953E-01
(PID.TID 0000.0001) %MON forcing_fv_del2              =   6.7001646951334E-05
(PID.TID 0000.0001) %MON trAdv_CFL_u_max              =   6.4883616668043E-02
(PID.TID 0000.0001) %MON trAdv_CFL_v_max              =   5.2207146276769E-02
(PID.TID 0000.0001) %MON trAdv_CFL_w_max              =   1.3253661508684E-01
(PID.TID 0000.0001) %MON advcfl_uvel_max              =   6.8588323265422E-02
(PID.TID 0000.0001) %MON advcfl_vvel_max              =   5.1372290463416E-02
(PID.TID 0000.0001) %MON advcfl_wvel_max              =   1.3602585754961E-01
(PID.TID 0000.0001) %MON advcfl_W_hf_max              =   1.4151110389700E-01
(PID.TID 0000.0001) %MON pe_b_mean                    =   2.4681089065065E-03
(PID.TID 0000.0001) %MON ke_max                       =   9.0169331832401E-01
(PID.TID 0000.0001) %MON ke_mean                      =   4.3563661594743E-04
(PID.TID 0000.0001) %MON ke_vol                       =   1.3350249319072E+18
(PID.TID 0000.0001) %MON vort_r_min                   =  -2.1356794400312E-05
(PID.TID 0000.0001) %MON vort_r_max                   =   2.4622120135564E-05
(PID.TID 0000.0001) %MON vort_a_mean                  =  -1.9727724792312E-05
(PID.TID 0000.0001) %MON vort_a_sd                    =   7.4542998739797E-05
(PID.TID 0000.0001) %MON vort_p_mean                  =  -2.1759895260912E-05
(PID.TID 0000.0001) %MON vort_p_sd                    =   9.7241690073132E-05
(PID.TID 0000.0001) %MON surfExpan_theta_mean         =  -1.7619328884124E-07
(PID.TID 0000.0001) %MON surfExpan_salt_mean          =  -1.7060895193530E-08
(PID.TID 0000.0001) // =======================================================
(PID.TID 0000.0001) // End MONITOR dynamic field statistics
(PID.TID 0000.0001) // =======================================================
(PID.TID 0000.0001)  ploadbar=  1.00988916726780E+05
(PID.TID 0000.0001) %SBO sbo_mass                     =   1.3737612069273E+21
(PID.TID 0000.0001) %SBO sbo_mass_fw                  =   4.8391556787291E+16
(PID.TID 0000.0001) %SBO sbo_zoamc                    =   1.2629509625464E+25
(PID.TID 0000.0001) %SBO sbo_zoamp                    =   2.9276715658247E+30
(PID.TID 0000.0001) // =======================================================
(PID.TID 0000.0001) // Begin MONITOR SEAICE statistics
(PID.TID 0000.0001) // =======================================================
(PID.TID 0000.0001) %MON seaice_tsnumber              =                  7008
(PID.TID 0000.0001) %MON seaice_time_sec              =   2.5228800000000E+07
(PID.TID 0000.0001) %MON seaice_uice_max              =   4.0000000000000E-01
(PID.TID 0000.0001) %MON seaice_uice_min              =  -4.0000000000000E-01
(PID.TID 0000.0001) %MON seaice_uice_mean             =   9.4301084842898E-03
(PID.TID 0000.0001) %MON seaice_uice_sd               =   1.6728457557567E-01
(PID.TID 0000.0001) %MON seaice_uice_del2             =   1.5085411899916E-04
(PID.TID 0000.0001) %MON seaice_vice_max              =   4.0000000000000E-01
(PID.TID 0000.0001) %MON seaice_vice_min              =  -4.0000000000000E-01
(PID.TID 0000.0001) %MON seaice_vice_mean             =  -5.3500587737083E-03
(PID.TID 0000.0001) %MON seaice_vice_sd               =   1.9001588348136E-01
(PID.TID 0000.0001) %MON seaice_vice_del2             =   1.4288645847067E-04
(PID.TID 0000.0001) %MON seaice_area_max              =   9.7000000000000E-01
(PID.TID 0000.0001) %MON seaice_area_min              =   0.0000000000000E+00
(PID.TID 0000.0001) %MON seaice_area_mean             =   6.9869125631520E-02
(PID.TID 0000.0001) %MON seaice_area_sd               =   2.4083699051998E-01
(PID.TID 0000.0001) %MON seaice_area_del2             =   2.2009742258925E-04
(PID.TID 0000.0001) %MON seaice_heff_max              =   4.6459219947174E+00
(PID.TID 0000.0001) %MON seaice_heff_min              =   0.0000000000000E+00
(PID.TID 0000.0001) %MON seaice_heff_mean             =   5.8891637430071E-02
(PID.TID 0000.0001) %MON seaice_heff_sd               =   2.6089808485753E-01
(PID.TID 0000.0001) %MON seaice_heff_del2             =   1.9321132119340E-04
(PID.TID 0000.0001) %MON seaice_hsnow_max             =   1.5881713255654E+00
(PID.TID 0000.0001) %MON seaice_hsnow_min             =  -6.7372343709859E-05
(PID.TID 0000.0001) %MON seaice_hsnow_mean            =   1.1536021875464E-02
(PID.TID 0000.0001) %MON seaice_hsnow_sd              =   5.4113986046829E-02
(PID.TID 0000.0001) %MON seaice_hsnow_del2            =   5.3656044044507E-05
(PID.TID 0000.0001) // =======================================================
(PID.TID 0000.0001) // End MONITOR SEAICE statistics
(PID.TID 0000.0001) // =======================================================
(PID.TID 0000.0001) // =======================================================
(PID.TID 0000.0001) // Begin MONITOR EXF statistics
(PID.TID 0000.0001) // =======================================================
(PID.TID 0000.0001) %MON exf_tsnumber                 =                  7008
(PID.TID 0000.0001) %MON exf_time_sec                 =   2.5228800000000E+07
(PID.TID 0000.0001) %MON exf_ustress_max              =   1.0047499537468E+00
(PID.TID 0000.0001) %MON exf_ustress_min              =  -2.0063149929047E+00
(PID.TID 0000.0001) %MON exf_ustress_mean             =   1.0097171908583E-02
(PID.TID 0000.0001) %MON exf_ustress_sd               =   1.2749516565533E-01
(PID.TID 0000.0001) %MON exf_ustress_del2             =   1.1548911405615E-04
(PID.TID 0000.0001) %MON exf_vstress_max              =   7.2830842863394E-01
(PID.TID 0000.0001) %MON exf_vstress_min              =  -1.5375439753135E+00
(PID.TID 0000.0001) %MON exf_vstress_mean             =   5.4688154165056E-03
(PID.TID 0000.0001) %MON exf_vstress_sd               =   1.2497972782644E-01
(PID.TID 0000.0001) %MON exf_vstress_del2             =   8.4659609307856E-05
(PID.TID 0000.0001) %MON exf_hflux_max                =   1.1076389502260E+03
(PID.TID 0000.0001) %MON exf_hflux_min                =  -4.5575298012367E+02
(PID.TID 0000.0001) %MON exf_hflux_mean               =   2.1659581762266E+01
(PID.TID 0000.0001) %MON exf_hflux_sd                 =   1.9888527385458E+02
(PID.TID 0000.0001) %MON exf_hflux_del2               =   4.6223750949946E-01
(PID.TID 0000.0001) %MON exf_sflux_max                =   2.3042408020860E-07
(PID.TID 0000.0001) %MON exf_sflux_min                =  -3.0713210968834E-06
(PID.TID 0000.0001) %MON exf_sflux_mean               =  -1.7031800731310E-12
(PID.TID 0000.0001) %MON exf_sflux_sd                 =   8.6567926477349E-08
(PID.TID 0000.0001) %MON exf_sflux_del2               =   2.4031766319070E-10
(PID.TID 0000.0001) %MON exf_wspeed_max               =   2.4265119552612E+01
(PID.TID 0000.0001) %MON exf_wspeed_min               =   4.4450447708368E-01
(PID.TID 0000.0001) %MON exf_wspeed_mean              =   7.2316298758546E+00
(PID.TID 0000.0001) %MON exf_wspeed_sd                =   3.3597543484569E+00
(PID.TID 0000.0001) %MON exf_wspeed_del2              =   1.7815875694180E-02
(PID.TID 0000.0001) %MON exf_atemp_max                =   3.0570972576141E+02
(PID.TID 0000.0001) %MON exf_atemp_min                =   2.2757535018921E+02
(PID.TID 0000.0001) %MON exf_atemp_mean               =   2.8902992066914E+02
(PID.TID 0000.0001) %MON exf_atemp_sd                 =   1.1608409299003E+01
(PID.TID 0000.0001) %MON exf_atemp_del2               =   3.4598872584277E-02
(PID.TID 0000.0001) %MON exf_aqh_max                  =   2.0970256067812E-02
(PID.TID 0000.0001) %MON exf_aqh_min                  =   1.4266483776737E-04
(PID.TID 0000.0001) %MON exf_aqh_mean                 =   1.0644742071239E-02
(PID.TID 0000.0001) %MON exf_aqh_sd                   =   5.6427373597676E-03
(PID.TID 0000.0001) %MON exf_aqh_del2                 =   2.0074560676555E-05
(PID.TID 0000.0001) %MON exf_lwflux_max               =   2.3090205017424E+02
(PID.TID 0000.0001) %MON exf_lwflux_min               =  -2.0720674383785E+01
(PID.TID 0000.0001) %MON exf_lwflux_mean              =   4.7140442939638E+01
(PID.TID 0000.0001) %MON exf_lwflux_sd                =   2.5318221031264E+01
(PID.TID 0000.0001) %MON exf_lwflux_del2              =   1.2223644763258E-01
(PID.TID 0000.0001) %MON exf_evap_max                 =   2.4427781138723E-07
(PID.TID 0000.0001) %MON exf_evap_min                 =  -1.6610783059817E-08
(PID.TID 0000.0001) %MON exf_evap_mean                =   4.3751166712745E-08
(PID.TID 0000.0001) %MON exf_evap_sd                  =   2.7360579350978E-08
(PID.TID 0000.0001) %MON exf_evap_del2                =   9.6810532982066E-11
(PID.TID 0000.0001) %MON exf_precip_max               =   3.1084255738278E-06
(PID.TID 0000.0001) %MON exf_precip_min               =  -2.1812001094190E-08
(PID.TID 0000.0001) %MON exf_precip_mean              =   4.0736930161533E-08
(PID.TID 0000.0001) %MON exf_precip_sd                =   8.0019987580677E-08
(PID.TID 0000.0001) %MON exf_precip_del2              =   2.4189200912047E-10
(PID.TID 0000.0001) %MON exf_swflux_max               =   9.9558839313985E+01
(PID.TID 0000.0001) %MON exf_swflux_min               =  -5.7580650567899E+02
(PID.TID 0000.0001) %MON exf_swflux_mean              =  -1.6060400251320E+02
(PID.TID 0000.0001) %MON exf_swflux_sd                =   1.6082565587051E+02
(PID.TID 0000.0001) %MON exf_swflux_del2              =   4.1885008611052E-01
(PID.TID 0000.0001) %MON exf_swdown_max               =   6.2065512084961E+02
(PID.TID 0000.0001) %MON exf_swdown_min               =  -1.4132811737061E+02
(PID.TID 0000.0001) %MON exf_swdown_mean              =   1.7408854725968E+02
(PID.TID 0000.0001) %MON exf_swdown_sd                =   1.7400223954535E+02
(PID.TID 0000.0001) %MON exf_swdown_del2              =   4.5526175215700E-01
(PID.TID 0000.0001) %MON exf_lwdown_max               =   4.6679513549805E+02
(PID.TID 0000.0001) %MON exf_lwdown_min               =   6.8630306243896E+01
(PID.TID 0000.0001) %MON exf_lwdown_mean              =   3.6143161760701E+02
(PID.TID 0000.0001) %MON exf_lwdown_sd                =   6.1588113292250E+01
(PID.TID 0000.0001) %MON exf_lwdown_del2              =   6.8900077236587E-01
(PID.TID 0000.0001) %MON exf_apressure_max            =   1.0339980859375E+05
(PID.TID 0000.0001) %MON exf_apressure_min            =   9.4313593750000E+04
(PID.TID 0000.0001) %MON exf_apressure_mean           =   1.0098866948035E+05
(PID.TID 0000.0001) %MON exf_apressure_sd             =   1.1915242315822E+03
(PID.TID 0000.0001) %MON exf_apressure_del2           =   2.0648933606451E+02
(PID.TID 0000.0001) %MON exf_runoff_max               =   9.3245055585031E-07
(PID.TID 0000.0001) %MON exf_runoff_min               =   0.0000000000000E+00
(PID.TID 0000.0001) %MON exf_runoff_mean              =   3.0159397312850E-09
(PID.TID 0000.0001) %MON exf_runoff_sd                =   1.6428556549052E-08
(PID.TID 0000.0001) %MON exf_runoff_del2              =   4.0148971163064E-11
(PID.TID 0000.0001) // =======================================================
(PID.TID 0000.0001) // End MONITOR EXF statistics
(PID.TID 0000.0001) // =======================================================
 cg2d: Sum(rhs),rhsMax =  -1.15666788415747E+02  1.29105359447374E+00
(PID.TID 0000.0001)  ploadbar=  1.00988669480348E+05
 cg2d: Sum(rhs),rhsMax =  -1.16279117498216E+02  1.28429578175589E+00
(PID.TID 0000.0001)  ploadbar=  1.00988422233916E+05
 cg2d: Sum(rhs),rhsMax =  -1.16958117718227E+02  1.27683858051983E+00
(PID.TID 0000.0001)  ploadbar=  1.00988174987484E+05
 cg2d: Sum(rhs),rhsMax =  -1.17710228179669E+02  1.26863736713580E+00
(PID.TID 0000.0001)  ploadbar=  1.00987927741053E+05
 cg2d: Sum(rhs),rhsMax =  -1.18554128021115E+02  1.25956664966122E+00
(PID.TID 0000.0001)  ploadbar=  1.00988429280131E+05
 cg2d: Sum(rhs),rhsMax =  -1.19471736559482E+02  1.24984924871349E+00
(PID.TID 0000.0001)  ploadbar=  1.00988930819210E+05
 cg2d: Sum(rhs),rhsMax =  -1.20441691859681E+02  1.23973642560266E+00
(PID.TID 0000.0001)  ploadbar=  1.00989432358288E+05
 cg2d: Sum(rhs),rhsMax =  -1.21418263522811E+02  1.22971003261550E+00
(PID.TID 0000.0001)  ploadbar=  1.00989933897367E+05
 cg2d: Sum(rhs),rhsMax =  -1.22352901725338E+02  1.22025004397720E+00
(PID.TID 0000.0001)  ploadbar=  1.00990435436446E+05
 cg2d: Sum(rhs),rhsMax =  -1.23191862726853E+02  1.21185875712556E+00
(PID.TID 0000.0001)  ploadbar=  1.00990936975524E+05
 cg2d: Sum(rhs),rhsMax =  -1.23801538633128E+02  1.20580494816813E+00
(PID.TID 0000.0001)  ploadbar=  1.00992051195665E+05
 cg2d: Sum(rhs),rhsMax =  -1.24232323878340E+02  1.20152826239889E+00
(PID.TID 0000.0001)  ploadbar=  1.00993165415806E+05
 cg2d: Sum(rhs),rhsMax =  -1.24512895626265E+02  1.19871107087875E+00
(PID.TID 0000.0001)  ploadbar=  1.00994279635946E+05
 cg2d: Sum(rhs),rhsMax =  -1.24677062379682E+02  1.19700499760424E+00
(PID.TID 0000.0001)  ploadbar=  1.00995393856087E+05
 cg2d: Sum(rhs),rhsMax =  -1.24803657371264E+02  1.19564061594398E+00
(PID.TID 0000.0001)  ploadbar=  1.00996508076228E+05
 cg2d: Sum(rhs),rhsMax =  -1.25004350431021E+02  1.19354488093898E+00
(PID.TID 0000.0001)  ploadbar=  1.00997622296369E+05
 cg2d: Sum(rhs),rhsMax =  -1.25174056476074E+02  1.19178556930759E+00
(PID.TID 0000.0001)  ploadbar=  1.00998187898342E+05
 cg2d: Sum(rhs),rhsMax =  -1.25333881570181E+02  1.19015359598379E+00
(PID.TID 0000.0001)  ploadbar=  1.00998753500315E+05
 cg2d: Sum(rhs),rhsMax =  -1.25504701343696E+02  1.18844504353107E+00
(PID.TID 0000.0001)  ploadbar=  1.00999319102288E+05
 cg2d: Sum(rhs),rhsMax =  -1.25734424477763E+02  1.18620484207437E+00
(PID.TID 0000.0001)  ploadbar=  1.00999884704262E+05
 cg2d: Sum(rhs),rhsMax =  -1.26021103999409E+02  1.18345594960862E+00
(PID.TID 0000.0001)  ploadbar=  1.01000450306235E+05
 cg2d: Sum(rhs),rhsMax =  -1.26402532662758E+02  1.17985082127415E+00
(PID.TID 0000.0001)  ploadbar=  1.01001015908208E+05
 cg2d: Sum(rhs),rhsMax =  -1.26900262115163E+02  1.17517612615659E+00
(PID.TID 0000.0001)  ploadbar=  1.01002138672761E+05
 cg2d: Sum(rhs),rhsMax =  -1.27494442035795E+02  1.16963385802435E+00
(PID.TID 0000.0001)  ploadbar=  1.01003261437314E+05
 cg2d: Sum(rhs),rhsMax =  -1.28228349383737E+02  1.16285197969976E+00
(PID.TID 0000.0001)  ploadbar=  1.01004384201867E+05
 cg2d: Sum(rhs),rhsMax =  -1.29155647337279E+02  1.15439135310294E+00
(PID.TID 0000.0001)  ploadbar=  1.01005506966420E+05
 cg2d: Sum(rhs),rhsMax =  -1.30363370933108E+02  1.14356087788772E+00
(PID.TID 0000.0001)  ploadbar=  1.01006629730973E+05
 cg2d: Sum(rhs),rhsMax =  -1.31953191932710E+02  1.12962351956508E+00
(PID.TID 0000.0001)  ploadbar=  1.01007752495526E+05
 cg2d: Sum(rhs),rhsMax =  -1.33971140289437E+02  1.11247014306162E+00
(PID.TID 0000.0001)  ploadbar=  1.01009056510800E+05
 cg2d: Sum(rhs),rhsMax =  -1.36167662420454E+02  1.09440150907801E+00
(PID.TID 0000.0001)  ploadbar=  1.01010360526074E+05
 cg2d: Sum(rhs),rhsMax =  -1.38410246624969E+02  1.07655685791243E+00
(PID.TID 0000.0001)  ploadbar=  1.01011664541348E+05
 cg2d: Sum(rhs),rhsMax =  -1.40675300142998E+02  1.05911735695416E+00
(PID.TID 0000.0001)  ploadbar=  1.01012968556622E+05
 cg2d: Sum(rhs),rhsMax =  -1.42883758490491E+02  1.04264548006814E+00
(PID.TID 0000.0001)  ploadbar=  1.01014272571896E+05
 cg2d: Sum(rhs),rhsMax =  -1.44923553176246E+02  1.02786824619537E+00
(PID.TID 0000.0001)  ploadbar=  1.01015576587171E+05
 cg2d: Sum(rhs),rhsMax =  -1.46233581069574E+02  1.01854535555952E+00
(PID.TID 0000.0001)  ploadbar=  1.01017210305613E+05
 cg2d: Sum(rhs),rhsMax =  -1.46211172109729E+02  1.01857046283105E+00
(PID.TID 0000.0001)  ploadbar=  1.01018844024056E+05
 cg2d: Sum(rhs),rhsMax =  -1.46232542545434E+02  1.01827069059119E+00
(PID.TID 0000.0001)  ploadbar=  1.01020477742499E+05
 cg2d: Sum(rhs),rhsMax =  -1.46299295307549E+02  1.01763038179771E+00
(PID.TID 0000.0001)  ploadbar=  1.01022111460942E+05
 cg2d: Sum(rhs),rhsMax =  -1.46410255788918E+02  1.01665431468808E+00
(PID.TID 0000.0001)  ploadbar=  1.01023745179385E+05
 cg2d: Sum(rhs),rhsMax =  -1.46536292055040E+02  1.01554399383118E+00
(PID.TID 0000.0001)  ploadbar=  1.01025378897827E+05
 cg2d: Sum(rhs),rhsMax =  -1.46641165524824E+02  1.01463437347890E+00
(PID.TID 0000.0001)  ploadbar=  1.01026845507231E+05
 cg2d: Sum(rhs),rhsMax =  -1.46748275972208E+02  1.01375452518895E+00
(PID.TID 0000.0001)  ploadbar=  1.01028312116635E+05
 cg2d: Sum(rhs),rhsMax =  -1.46878050829937E+02  1.01275792491616E+00
(PID.TID 0000.0001)  ploadbar=  1.01029778726038E+05
 cg2d: Sum(rhs),rhsMax =  -1.47050591817096E+02  1.01150264599397E+00
(PID.TID 0000.0001)  ploadbar=  1.01031245335442E+05
 cg2d: Sum(rhs),rhsMax =  -1.47232555346426E+02  1.01021998303957E+00
(PID.TID 0000.0001)  ploadbar=  1.01032711944846E+05
 cg2d: Sum(rhs),rhsMax =  -1.47421066380095E+02  1.00893293153882E+00
(PID.TID 0000.0001)  ploadbar=  1.01034178554249E+05
 cg2d: Sum(rhs),rhsMax =  -1.47703104320318E+02  1.00699903232384E+00
(PID.TID 0000.0001)  ploadbar=  1.01035732213261E+05
 cg2d: Sum(rhs),rhsMax =  -1.48060953709719E+02  1.00453982128888E+00
(PID.TID 0000.0001)  ploadbar=  1.01037285872273E+05
 cg2d: Sum(rhs),rhsMax =  -1.48473531472001E+02  1.00170273690546E+00
(PID.TID 0000.0001)  ploadbar=  1.01038839531284E+05
 cg2d: Sum(rhs),rhsMax =  -1.48949618054601E+02  9.98433849904072E-01
(PID.TID 0000.0001)  ploadbar=  1.01040393190296E+05
 cg2d: Sum(rhs),rhsMax =  -1.49503089894442E+02  9.94649875128118E-01
(PID.TID 0000.0001)  ploadbar=  1.01041946849308E+05
 cg2d: Sum(rhs),rhsMax =  -1.50138416564796E+02  9.90330904034438E-01
(PID.TID 0000.0001)  ploadbar=  1.01043500508320E+05
 cg2d: Sum(rhs),rhsMax =  -1.50837486071757E+02  9.85647810451582E-01
(PID.TID 0000.0001)  ploadbar=  1.01045719218831E+05
 cg2d: Sum(rhs),rhsMax =  -1.51566094134325E+02  9.80826571822556E-01
(PID.TID 0000.0001)  ploadbar=  1.01047937929342E+05
 cg2d: Sum(rhs),rhsMax =  -1.52320250673483E+02  9.75896317770926E-01
(PID.TID 0000.0001)  ploadbar=  1.01050156639854E+05
 cg2d: Sum(rhs),rhsMax =  -1.53071041273606E+02  9.71041123003911E-01
(PID.TID 0000.0001)  ploadbar=  1.01052375350365E+05
 cg2d: Sum(rhs),rhsMax =  -1.53795227562661E+02  9.66402099565396E-01
(PID.TID 0000.0001)  ploadbar=  1.01054594060876E+05
 cg2d: Sum(rhs),rhsMax =  -1.54481281312149E+02  9.62039920427857E-01
(PID.TID 0000.0001)  ploadbar=  1.01056812771388E+05
 cg2d: Sum(rhs),rhsMax =  -1.55110699092251E+02  9.58054554184035E-01
(PID.TID 0000.0001)  ploadbar=  1.01057757440319E+05
 cg2d: Sum(rhs),rhsMax =  -1.55698840339277E+02  9.54340575110924E-01
(PID.TID 0000.0001)  ploadbar=  1.01058702109251E+05
 cg2d: Sum(rhs),rhsMax =  -1.56258722912811E+02  9.50809670292905E-01
(PID.TID 0000.0001)  ploadbar=  1.01059646778183E+05
 cg2d: Sum(rhs),rhsMax =  -1.56791096943516E+02  9.47450088437418E-01
(PID.TID 0000.0001)  ploadbar=  1.01060591447114E+05
 cg2d: Sum(rhs),rhsMax =  -1.57300733186518E+02  9.44225603528260E-01
(PID.TID 0000.0001)  ploadbar=  1.01061536116046E+05
 cg2d: Sum(rhs),rhsMax =  -1.57791873651479E+02  9.41103453267715E-01
(PID.TID 0000.0001)  ploadbar=  1.01062480784978E+05
 cg2d: Sum(rhs),rhsMax =  -1.58252365558266E+02  9.38209099160631E-01
(PID.TID 0000.0001)  ploadbar=  1.01062928345197E+05
 cg2d: Sum(rhs),rhsMax =  -1.58705838697208E+02  9.35392746535988E-01
(PID.TID 0000.0001)  ploadbar=  1.01063375905416E+05
 cg2d: Sum(rhs),rhsMax =  -1.59157231867546E+02  9.32619573459341E-01
(PID.TID 0000.0001)  ploadbar=  1.01063823465635E+05
 cg2d: Sum(rhs),rhsMax =  -1.59606558773843E+02  9.29886743925645E-01
(PID.TID 0000.0001)  ploadbar=  1.01064271025854E+05
 cg2d: Sum(rhs),rhsMax =  -1.60061338650640E+02  9.27149780035804E-01
(PID.TID 0000.0001)  ploadbar=  1.01064718586073E+05
 cg2d: Sum(rhs),rhsMax =  -1.60527721742782E+02  9.24372801083762E-01
(PID.TID 0000.0001)  ploadbar=  1.01065166146292E+05
 cg2d: Sum(rhs),rhsMax =  -1.61015797632494E+02  9.21480804161213E-01
(PID.TID 0000.0001)  ploadbar=  1.01064732826465E+05
 cg2d: Sum(rhs),rhsMax =  -1.61517879993506E+02  9.18513560839551E-01
(PID.TID 0000.0001)  ploadbar=  1.01064299506639E+05
 cg2d: Sum(rhs),rhsMax =  -1.61108183102865E+02  9.20732707264672E-01
(PID.TID 0000.0001)  ploadbar=  1.01063866186812E+05
 cg2d: Sum(rhs),rhsMax =  -1.59855975605125E+02  9.27813202931283E-01
(PID.TID 0000.0001)  ploadbar=  1.01063432866985E+05
 cg2d: Sum(rhs),rhsMax =  -1.58639031013591E+02  9.34781795639041E-01
(PID.TID 0000.0001)  ploadbar=  1.01062999547159E+05
 cg2d: Sum(rhs),rhsMax =  -1.57461027681229E+02  9.41608802880412E-01
(PID.TID 0000.0001)  ploadbar=  1.01062566227332E+05
 cg2d: Sum(rhs),rhsMax =  -1.56295002863885E+02  9.48486412891166E-01
(PID.TID 0000.0001)  ploadbar=  1.01062733130369E+05
 cg2d: Sum(rhs),rhsMax =  -1.55116098699455E+02  9.55561188603549E-01
(PID.TID 0000.0001)  ploadbar=  1.01062900033406E+05
 cg2d: Sum(rhs),rhsMax =  -1.53927665511414E+02  9.62813892091711E-01
(PID.TID 0000.0001)  ploadbar=  1.01063066936443E+05
 cg2d: Sum(rhs),rhsMax =  -1.52730520247154E+02  9.70240544716063E-01
(PID.TID 0000.0001)  ploadbar=  1.01063233839480E+05
 cg2d: Sum(rhs),rhsMax =  -1.51525026395887E+02  9.77836576167494E-01
(PID.TID 0000.0001)  ploadbar=  1.01063400742517E+05
 cg2d: Sum(rhs),rhsMax =  -1.50324379577454E+02  9.85516174522449E-01
(PID.TID 0000.0001)  ploadbar=  1.01063567645554E+05
 cg2d: Sum(rhs),rhsMax =  -1.49057971483449E+02  9.93753949004700E-01
(PID.TID 0000.0001)  ploadbar=  1.01063710337390E+05
 cg2d: Sum(rhs),rhsMax =  -1.47788186336473E+02  1.00214834606939E+00
(PID.TID 0000.0001)  ploadbar=  1.01063853029226E+05
 cg2d: Sum(rhs),rhsMax =  -1.46447318293174E+02  1.01116597580380E+00
(PID.TID 0000.0001)  ploadbar=  1.01063995721062E+05
 cg2d: Sum(rhs),rhsMax =  -1.43879677373911E+02  1.02903118967177E+00
(PID.TID 0000.0001)  ploadbar=  1.01064138412899E+05
 cg2d: Sum(rhs),rhsMax =  -1.40863048639098E+02  1.05086189966915E+00
(PID.TID 0000.0001)  ploadbar=  1.01064281104735E+05
 cg2d: Sum(rhs),rhsMax =  -1.37552185676809E+02  1.07591980506874E+00
(PID.TID 0000.0001)  ploadbar=  1.01064423796571E+05
 cg2d: Sum(rhs),rhsMax =  -1.34139879730999E+02  1.10308776932588E+00
(PID.TID 0000.0001)  ploadbar=  1.01064199611944E+05
 cg2d: Sum(rhs),rhsMax =  -1.31272942454569E+02  1.12700338053054E+00
(PID.TID 0000.0001)  ploadbar=  1.01063975427317E+05
 cg2d: Sum(rhs),rhsMax =  -1.28941846429321E+02  1.14722689148769E+00
(PID.TID 0000.0001)  ploadbar=  1.01063751242690E+05
 cg2d: Sum(rhs),rhsMax =  -1.26979522825163E+02  1.16482827920181E+00
(PID.TID 0000.0001)  ploadbar=  1.01063527058062E+05
 cg2d: Sum(rhs),rhsMax =  -1.25319178845651E+02  1.18015542105104E+00
(PID.TID 0000.0001)  ploadbar=  1.01063302873435E+05
 cg2d: Sum(rhs),rhsMax =  -1.23884289131356E+02  1.19373916800176E+00
(PID.TID 0000.0001)  ploadbar=  1.01063078688808E+05
 cg2d: Sum(rhs),rhsMax =  -1.22670094377840E+02  1.20546125036896E+00
(PID.TID 0000.0001)  ploadbar=  1.01063228955579E+05
 cg2d: Sum(rhs),rhsMax =  -1.21592284284868E+02  1.21604352260173E+00
(PID.TID 0000.0001)  ploadbar=  1.01063379222349E+05
 cg2d: Sum(rhs),rhsMax =  -1.20547884118950E+02  1.22646498140597E+00
(PID.TID 0000.0001)  ploadbar=  1.01063529489120E+05
 cg2d: Sum(rhs),rhsMax =  -1.19374826983313E+02  1.23839048147777E+00
(PID.TID 0000.0001)  ploadbar=  1.01063679755891E+05
 cg2d: Sum(rhs),rhsMax =  -1.18514759589983E+02  1.24723771106257E+00
(PID.TID 0000.0001)  ploadbar=  1.01063830022661E+05
 cg2d: Sum(rhs),rhsMax =  -1.17936059960389E+02  1.25320104148172E+00
(PID.TID 0000.0001)  ploadbar=  1.01063980289432E+05
 cg2d: Sum(rhs),rhsMax =  -1.16695384738647E+02  1.26638626023839E+00
(PID.TID 0000.0001)  ploadbar=  1.01065105563120E+05
 cg2d: Sum(rhs),rhsMax =  -1.15304958858983E+02  1.28152846498597E+00
(PID.TID 0000.0001)  ploadbar=  1.01066230836809E+05
 cg2d: Sum(rhs),rhsMax =  -1.13892277150401E+02  1.29729907195892E+00
(PID.TID 0000.0001)  ploadbar=  1.01067356110497E+05
 cg2d: Sum(rhs),rhsMax =  -1.12519996344317E+02  1.31299015558471E+00
(PID.TID 0000.0001)  ploadbar=  1.01068481384186E+05
 cg2d: Sum(rhs),rhsMax =  -1.11232578441474E+02  1.32804429870520E+00
(PID.TID 0000.0001)  ploadbar=  1.01069606657874E+05
 cg2d: Sum(rhs),rhsMax =  -1.10056650655855E+02  1.34207612354103E+00
(PID.TID 0000.0001)  ploadbar=  1.01070731931563E+05
 cg2d: Sum(rhs),rhsMax =  -1.08986315188978E+02  1.35507514547097E+00
(PID.TID 0000.0001)  ploadbar=  1.01071940415283E+05
 cg2d: Sum(rhs),rhsMax =  -1.08035232681816E+02  1.36679384431767E+00
(PID.TID 0000.0001)  ploadbar=  1.01073148899003E+05
 cg2d: Sum(rhs),rhsMax =  -1.07188496341739E+02  1.37734567569231E+00
(PID.TID 0000.0001)  ploadbar=  1.01074357382723E+05
 cg2d: Sum(rhs),rhsMax =  -1.06424627406870E+02  1.38694552090385E+00
(PID.TID 0000.0001)  ploadbar=  1.01075565866443E+05
 cg2d: Sum(rhs),rhsMax =  -1.05744813452381E+02  1.39552985155672E+00
(PID.TID 0000.0001)  ploadbar=  1.01076774350163E+05
 cg2d: Sum(rhs),rhsMax =  -1.05149621369838E+02  1.40304765094103E+00
(PID.TID 0000.0001)  ploadbar=  1.01077982833884E+05
 cg2d: Sum(rhs),rhsMax =  -1.04760312859172E+02  1.40793128073842E+00
(PID.TID 0000.0001)  ploadbar=  1.01079646893925E+05
 cg2d: Sum(rhs),rhsMax =  -1.04751188582325E+02  1.40776699695608E+00
(PID.TID 0000.0001)  ploadbar=  1.01081310953966E+05
 cg2d: Sum(rhs),rhsMax =  -1.05104096147711E+02  1.40278938256141E+00
(PID.TID 0000.0001)  ploadbar=  1.01082975014007E+05
 cg2d: Sum(rhs),rhsMax =  -1.05817818915306E+02  1.39311095010035E+00
(PID.TID 0000.0001)  ploadbar=  1.01084639074048E+05
 cg2d: Sum(rhs),rhsMax =  -1.06478145158134E+02  1.38428617544722E+00
(PID.TID 0000.0001)  ploadbar=  1.01086303134089E+05
 cg2d: Sum(rhs),rhsMax =  -1.07280385489836E+02  1.37377694850101E+00
(PID.TID 0000.0001)  ploadbar=  1.01087967194131E+05
 cg2d: Sum(rhs),rhsMax =  -1.08122048882359E+02  1.36293892950803E+00
(PID.TID 0000.0001)  ploadbar=  1.01088369761869E+05
 cg2d: Sum(rhs),rhsMax =  -1.08975779089319E+02  1.35212372982716E+00
(PID.TID 0000.0001)  ploadbar=  1.01088772329607E+05
 cg2d: Sum(rhs),rhsMax =  -1.09796309332105E+02  1.34188505772203E+00
(PID.TID 0000.0001)  ploadbar=  1.01089174897345E+05
 cg2d: Sum(rhs),rhsMax =  -1.10551941082496E+02  1.33258322647579E+00
(PID.TID 0000.0001)  ploadbar=  1.01089577465083E+05
 cg2d: Sum(rhs),rhsMax =  -1.11297701032219E+02  1.32352548021859E+00
(PID.TID 0000.0001)  ploadbar=  1.01089980032821E+05
 cg2d: Sum(rhs),rhsMax =  -1.12033737402585E+02  1.31469974050270E+00
(PID.TID 0000.0001)  ploadbar=  1.01090382600559E+05
 cg2d: Sum(rhs),rhsMax =  -1.12803456026849E+02  1.30561223986311E+00
(PID.TID 0000.0001)  ploadbar=  1.01092457940766E+05
 cg2d: Sum(rhs),rhsMax =  -1.13566818410715E+02  1.29672756799852E+00
(PID.TID 0000.0001)  ploadbar=  1.01094533280974E+05
 cg2d: Sum(rhs),rhsMax =  -1.14295120100829E+02  1.28835999252363E+00
(PID.TID 0000.0001)  ploadbar=  1.01096608621181E+05
 cg2d: Sum(rhs),rhsMax =  -1.14980223978148E+02  1.28058193907584E+00
(PID.TID 0000.0001)  ploadbar=  1.01098683961388E+05
 cg2d: Sum(rhs),rhsMax =  -1.14417093115519E+02  1.28678284977821E+00
(PID.TID 0000.0001)  ploadbar=  1.01100759301596E+05
 cg2d: Sum(rhs),rhsMax =  -1.11549848790178E+02  1.31974809415507E+00
(PID.TID 0000.0001)  ploadbar=  1.01102834641803E+05
 cg2d: Sum(rhs),rhsMax =  -1.08907522824772E+02  1.35163508264645E+00
(PID.TID 0000.0001)  ploadbar=  1.01102890618569E+05
 cg2d: Sum(rhs),rhsMax =  -1.06510493084678E+02  1.38189131920272E+00
(PID.TID 0000.0001)  ploadbar=  1.01102946595334E+05
 cg2d: Sum(rhs),rhsMax =  -1.04437532959412E+02  1.40912443753887E+00
(PID.TID 0000.0001)  ploadbar=  1.01103002572099E+05
 cg2d: Sum(rhs),rhsMax =  -1.02689786691235E+02  1.43287435986234E+00
(PID.TID 0000.0001)  ploadbar=  1.01103058548864E+05
 cg2d: Sum(rhs),rhsMax =  -1.01252192363119E+02  1.45294645849443E+00
(PID.TID 0000.0001)  ploadbar=  1.01103114525630E+05
 cg2d: Sum(rhs),rhsMax =  -1.00077026633979E+02  1.46969445784489E+00
(PID.TID 0000.0001)  ploadbar=  1.01103170502395E+05
 cg2d: Sum(rhs),rhsMax =  -9.92390899424599E+01  1.48183654583970E+00
(PID.TID 0000.0001)  ploadbar=  1.01103544903756E+05
 cg2d: Sum(rhs),rhsMax =  -9.86264007514593E+01  1.49081154410486E+00
(PID.TID 0000.0001)  ploadbar=  1.01103919305116E+05
 cg2d: Sum(rhs),rhsMax =  -9.82731838563641E+01  1.49597202104015E+00
(PID.TID 0000.0001)  ploadbar=  1.01104293706477E+05
 cg2d: Sum(rhs),rhsMax =  -9.81155531527267E+01  1.49820880213306E+00
(PID.TID 0000.0001)  ploadbar=  1.01104668107838E+05
 cg2d: Sum(rhs),rhsMax =  -9.81098462135033E+01  1.49815729834006E+00
(PID.TID 0000.0001)  ploadbar=  1.01105042509198E+05
 cg2d: Sum(rhs),rhsMax =  -9.81938392585087E+01  1.49676305440507E+00
(PID.TID 0000.0001)  ploadbar=  1.01105416910559E+05
 cg2d: Sum(rhs),rhsMax =  -9.84728559437331E+01  1.49241207555511E+00
(PID.TID 0000.0001)  ploadbar=  1.01105568663324E+05
 cg2d: Sum(rhs),rhsMax =  -9.90024816370253E+01  1.48431400848602E+00
(PID.TID 0000.0001)  ploadbar=  1.01105720416089E+05
 cg2d: Sum(rhs),rhsMax =  -9.97486107669612E+01  1.47308986864355E+00
(PID.TID 0000.0001)  ploadbar=  1.01105872168854E+05
 cg2d: Sum(rhs),rhsMax =  -1.00708154417750E+02  1.45892353126107E+00
(PID.TID 0000.0001)  ploadbar=  1.01106023921619E+05
 cg2d: Sum(rhs),rhsMax =  -1.01886891970341E+02  1.44190281129107E+00
(PID.TID 0000.0001)  ploadbar=  1.01106175674384E+05
 cg2d: Sum(rhs),rhsMax =  -1.03267092432017E+02  1.42247656019789E+00
(PID.TID 0000.0001)  ploadbar=  1.01106327427149E+05
 cg2d: Sum(rhs),rhsMax =  -1.04837377851867E+02  1.40102425468592E+00
(PID.TID 0000.0001)  ploadbar=  1.01104888624172E+05
 cg2d: Sum(rhs),rhsMax =  -1.06597777622870E+02  1.37774589600290E+00
(PID.TID 0000.0001)  ploadbar=  1.01103449821195E+05
 cg2d: Sum(rhs),rhsMax =  -1.08543993357547E+02  1.35290458785339E+00
(PID.TID 0000.0001)  ploadbar=  1.01102011018218E+05
 cg2d: Sum(rhs),rhsMax =  -1.10677237135206E+02  1.32668969177051E+00
(PID.TID 0000.0001)  ploadbar=  1.01100572215241E+05
 cg2d: Sum(rhs),rhsMax =  -1.12998350576420E+02  1.29929289768343E+00
(PID.TID 0000.0001)  ploadbar=  1.01099133412264E+05
 cg2d: Sum(rhs),rhsMax =  -1.15503556609422E+02  1.27095399798476E+00
(PID.TID 0000.0001)  ploadbar=  1.01097694609287E+05
 cg2d: Sum(rhs),rhsMax =  -1.18096906440386E+02  1.24288700679818E+00
(PID.TID 0000.0001)  ploadbar=  1.01097200519244E+05
 cg2d: Sum(rhs),rhsMax =  -1.20223493122887E+02  1.22073999296172E+00
(PID.TID 0000.0001)  ploadbar=  1.01096706429201E+05
 cg2d: Sum(rhs),rhsMax =  -1.22154635590127E+02  1.20127099562545E+00
(PID.TID 0000.0001)  ploadbar=  1.01096212339158E+05
 cg2d: Sum(rhs),rhsMax =  -1.22888493053632E+02  1.19391458185499E+00
(PID.TID 0000.0001)  ploadbar=  1.01095718249116E+05
 cg2d: Sum(rhs),rhsMax =  -1.21862270781349E+02  1.20376812236877E+00
(PID.TID 0000.0001)  ploadbar=  1.01095224159073E+05
 cg2d: Sum(rhs),rhsMax =  -1.20853978603228E+02  1.21359005991228E+00
(PID.TID 0000.0001)  ploadbar=  1.01094730069030E+05
 cg2d: Sum(rhs),rhsMax =  -1.19983795482021E+02  1.22221059380304E+00
(PID.TID 0000.0001)  ploadbar=  1.01094464128534E+05
 cg2d: Sum(rhs),rhsMax =  -1.19170052238079E+02  1.23040556347524E+00
(PID.TID 0000.0001)  ploadbar=  1.01094198188038E+05
 cg2d: Sum(rhs),rhsMax =  -1.18468616219148E+02  1.23756493986206E+00
(PID.TID 0000.0001)  ploadbar=  1.01093932247542E+05
 cg2d: Sum(rhs),rhsMax =  -1.17920348337589E+02  1.24321489665104E+00
(PID.TID 0000.0001)  ploadbar=  1.01093666307047E+05
 cg2d: Sum(rhs),rhsMax =  -1.17539762812352E+02  1.24715696752747E+00
(PID.TID 0000.0001)  ploadbar=  1.01093400366551E+05
 cg2d: Sum(rhs),rhsMax =  -1.17585881639470E+02  1.24660515709822E+00
(PID.TID 0000.0001)  ploadbar=  1.01093134426055E+05
 cg2d: Sum(rhs),rhsMax =  -1.17883964464832E+02  1.24338211297183E+00
(PID.TID 0000.0001)  ploadbar=  1.01092087910628E+05
 cg2d: Sum(rhs),rhsMax =  -1.18369852707944E+02  1.23819394959631E+00
(PID.TID 0000.0001)  ploadbar=  1.01091041395200E+05
 cg2d: Sum(rhs),rhsMax =  -1.19154627988798E+02  1.22994026628785E+00
(PID.TID 0000.0001)  ploadbar=  1.01089994879773E+05
 cg2d: Sum(rhs),rhsMax =  -1.20222098957279E+02  1.21890572769656E+00
(PID.TID 0000.0001)  ploadbar=  1.01088948364346E+05
 cg2d: Sum(rhs),rhsMax =  -1.21539387211632E+02  1.20556576588505E+00
(PID.TID 0000.0001)  ploadbar=  1.01087901848918E+05
 cg2d: Sum(rhs),rhsMax =  -1.23119042911482E+02  1.18995128022318E+00
(PID.TID 0000.0001)  ploadbar=  1.01086855333491E+05
 cg2d: Sum(rhs),rhsMax =  -1.25309896236790E+02  1.16902789656751E+00
(PID.TID 0000.0001)  ploadbar=  1.01086152259401E+05
 cg2d: Sum(rhs),rhsMax =  -1.26718845622308E+02  1.15593142438420E+00
(PID.TID 0000.0001)  ploadbar=  1.01085449185310E+05
 cg2d: Sum(rhs),rhsMax =  -1.27236086235235E+02  1.15114716945644E+00
(PID.TID 0000.0001)  ploadbar=  1.01084746111220E+05
 cg2d: Sum(rhs),rhsMax =  -1.27733977285183E+02  1.14658595151298E+00
(PID.TID 0000.0001)  ploadbar=  1.01084043037130E+05
 cg2d: Sum(rhs),rhsMax =  -1.28200302006268E+02  1.14234990390011E+00
(PID.TID 0000.0001)  ploadbar=  1.01083339963040E+05
 cg2d: Sum(rhs),rhsMax =  -1.28632952805110E+02  1.13844696909828E+00
(PID.TID 0000.0001)  ploadbar=  1.01082636888949E+05
 cg2d: Sum(rhs),rhsMax =  -1.29074949111328E+02  1.13448385958332E+00
(PID.TID 0000.0001)  ploadbar=  1.01082141762511E+05
 cg2d: Sum(rhs),rhsMax =  -1.29492509652899E+02  1.13075263782616E+00
(PID.TID 0000.0001)  ploadbar=  1.01081646636072E+05
 cg2d: Sum(rhs),rhsMax =  -1.29864997047285E+02  1.12742329005459E+00
(PID.TID 0000.0001)  ploadbar=  1.01081151509633E+05
 cg2d: Sum(rhs),rhsMax =  -1.30211815227025E+02  1.12431956956355E+00
(PID.TID 0000.0001)  ploadbar=  1.01080656383194E+05
 cg2d: Sum(rhs),rhsMax =  -1.30525383531712E+02  1.12149823884583E+00
(PID.TID 0000.0001)  ploadbar=  1.01080161256755E+05
 cg2d: Sum(rhs),rhsMax =  -1.30801602708145E+02  1.11898654425026E+00
(PID.TID 0000.0001)  ploadbar=  1.01079666130316E+05
 cg2d: Sum(rhs),rhsMax =  -1.31090971766124E+02  1.11640980323541E+00
(PID.TID 0000.0001)  ploadbar=  1.01080247046265E+05
 cg2d: Sum(rhs),rhsMax =  -1.31363948033463E+02  1.11401045796007E+00
(PID.TID 0000.0001)  ploadbar=  1.01080827962213E+05
 cg2d: Sum(rhs),rhsMax =  -1.31594362602807E+02  1.11200215118612E+00
(PID.TID 0000.0001)  ploadbar=  1.01081408878162E+05
 cg2d: Sum(rhs),rhsMax =  -1.31806033749924E+02  1.11017704921153E+00
(PID.TID 0000.0001)  ploadbar=  1.01081989794110E+05
 cg2d: Sum(rhs),rhsMax =  -1.32007737563681E+02  1.10845872450058E+00
(PID.TID 0000.0001)  ploadbar=  1.01082570710059E+05
 cg2d: Sum(rhs),rhsMax =  -1.32204120431579E+02  1.10680761684308E+00
(PID.TID 0000.0001)  ploadbar=  1.01083151626007E+05
 cg2d: Sum(rhs),rhsMax =  -1.32347369674621E+02  1.10560944746533E+00
(PID.TID 0000.0001)  ploadbar=  1.01083746491382E+05
 cg2d: Sum(rhs),rhsMax =  -1.32540133562461E+02  1.10400134287304E+00
(PID.TID 0000.0001)  ploadbar=  1.01084341356756E+05
 cg2d: Sum(rhs),rhsMax =  -1.32781917222516E+02  1.10198879391098E+00
(PID.TID 0000.0001)  ploadbar=  1.01084936222130E+05
 cg2d: Sum(rhs),rhsMax =  -1.27086518216002E+02  1.15136775953929E+00
(PID.TID 0000.0001)  ploadbar=  1.01085531087504E+05
 cg2d: Sum(rhs),rhsMax =  -1.18627550087261E+02  1.23344962953330E+00
(PID.TID 0000.0001)  ploadbar=  1.01086125952878E+05
 cg2d: Sum(rhs),rhsMax =  -1.08809572021370E+02  1.34470577743457E+00
(PID.TID 0000.0001)  ploadbar=  1.01086720818252E+05
 cg2d: Sum(rhs),rhsMax =  -1.00900350200265E+02  1.45007590469291E+00
(PID.TID 0000.0001)  ploadbar=  1.01086936905711E+05
 cg2d: Sum(rhs),rhsMax =  -9.42532021273595E+01  1.55230266454405E+00
(PID.TID 0000.0001)  ploadbar=  1.01087152993169E+05
 cg2d: Sum(rhs),rhsMax =  -8.87123485689232E+01  1.64921572643231E+00
(PID.TID 0000.0001)  ploadbar=  1.01087369080627E+05
 cg2d: Sum(rhs),rhsMax =  -8.43423181073177E+01  1.73462318642035E+00
(PID.TID 0000.0001)  ploadbar=  1.01087585168085E+05
 cg2d: Sum(rhs),rhsMax =  -8.10627287124738E+01  1.80475733777080E+00
(PID.TID 0000.0001)  ploadbar=  1.01087801255544E+05
 cg2d: Sum(rhs),rhsMax =  -7.85639980059911E+01  1.86211064637679E+00
(PID.TID 0000.0001)  ploadbar=  1.01088017343002E+05
 cg2d: Sum(rhs),rhsMax =  -7.67355987993929E+01  1.90641877954674E+00
(PID.TID 0000.0001)  ploadbar=  1.01089048266768E+05
 cg2d: Sum(rhs),rhsMax =  -7.53328373721655E+01  1.94183577308753E+00
(PID.TID 0000.0001)  ploadbar=  1.01090079190534E+05
 cg2d: Sum(rhs),rhsMax =  -7.42174076666257E+01  1.97091184708554E+00
(PID.TID 0000.0001)  ploadbar=  1.01091110114300E+05
 cg2d: Sum(rhs),rhsMax =  -7.33675402653402E+01  1.99360081623590E+00
(PID.TID 0000.0001)  ploadbar=  1.01092141038066E+05
 cg2d: Sum(rhs),rhsMax =  -7.27921873998067E+01  2.00917647571091E+00
(PID.TID 0000.0001)  ploadbar=  1.01093171961832E+05
 cg2d: Sum(rhs),rhsMax =  -7.25454587014868E+01  2.01578142165965E+00
(PID.TID 0000.0001)  ploadbar=  1.01094202885598E+05
 cg2d: Sum(rhs),rhsMax =  -7.24674812773788E+01  2.01778098228728E+00
(PID.TID 0000.0001)  ploadbar=  1.01095507053321E+05
 cg2d: Sum(rhs),rhsMax =  -7.25784096421729E+01  2.01457299284567E+00
(PID.TID 0000.0001)  ploadbar=  1.01096811221043E+05
 cg2d: Sum(rhs),rhsMax =  -7.28887188028496E+01  2.00590879003526E+00
(PID.TID 0000.0001)  ploadbar=  1.01098115388765E+05
 cg2d: Sum(rhs),rhsMax =  -7.34763837182370E+01  1.98981081492919E+00
(PID.TID 0000.0001)  ploadbar=  1.01099419556487E+05
 cg2d: Sum(rhs),rhsMax =  -7.43698036766920E+01  1.96588239806994E+00
(PID.TID 0000.0001)  ploadbar=  1.01100723724210E+05
 cg2d: Sum(rhs),rhsMax =  -7.52482476096868E+01  1.94293916812568E+00
(PID.TID 0000.0001)  ploadbar=  1.01102027891932E+05
 cg2d: Sum(rhs),rhsMax =  -7.60911484499884E+01  1.92143905792415E+00
(PID.TID 0000.0001)  ploadbar=  1.01102211716343E+05
 cg2d: Sum(rhs),rhsMax =  -7.69102778865443E+01  1.90100635920278E+00
(PID.TID 0000.0001)  ploadbar=  1.01102395540753E+05
 cg2d: Sum(rhs),rhsMax =  -7.76681635527551E+01  1.88249235034377E+00
(PID.TID 0000.0001)  ploadbar=  1.01102579365164E+05
 cg2d: Sum(rhs),rhsMax =  -7.82152631679403E+01  1.86936130354448E+00
(PID.TID 0000.0001)  ploadbar=  1.01102763189575E+05
 cg2d: Sum(rhs),rhsMax =  -7.84252588569428E+01  1.86438065647351E+00
(PID.TID 0000.0001)  ploadbar=  1.01102947013985E+05
 cg2d: Sum(rhs),rhsMax =  -7.83526065587161E+01  1.86610425251122E+00
(PID.TID 0000.0001)  ploadbar=  1.01103130838396E+05
 cg2d: Sum(rhs),rhsMax =  -7.79073691863973E+01  1.87678085002017E+00
(PID.TID 0000.0001)  ploadbar=  1.01103085610394E+05
 cg2d: Sum(rhs),rhsMax =  -7.72269972671253E+01  1.89333763646717E+00
(PID.TID 0000.0001)  ploadbar=  1.01103040382392E+05
 cg2d: Sum(rhs),rhsMax =  -7.63748500532795E+01  1.91449248561562E+00
(PID.TID 0000.0001)  ploadbar=  1.01102995154389E+05
 cg2d: Sum(rhs),rhsMax =  -7.53714643568044E+01  1.94001238219443E+00
(PID.TID 0000.0001)  ploadbar=  1.01102949926387E+05
 cg2d: Sum(rhs),rhsMax =  -7.41679998912901E+01  1.97152284867946E+00
(PID.TID 0000.0001)  ploadbar=  1.01102904698385E+05
 cg2d: Sum(rhs),rhsMax =  -7.27707000559539E+01  2.00939994601480E+00
(PID.TID 0000.0001)  ploadbar=  1.01102859470383E+05
 cg2d: Sum(rhs),rhsMax =  -7.10403464104191E+01  2.05838838147305E+00
(PID.TID 0000.0001)  ploadbar=  1.01103357440469E+05
 cg2d: Sum(rhs),rhsMax =  -6.89655967404764E+01  2.12037526704190E+00
(PID.TID 0000.0001)  ploadbar=  1.01103855410554E+05
 cg2d: Sum(rhs),rhsMax =  -6.65422442348933E+01  2.19766846202642E+00
(PID.TID 0000.0001)  ploadbar=  1.01104353380640E+05
 cg2d: Sum(rhs),rhsMax =  -6.38655195963130E+01  2.28985375037790E+00
(PID.TID 0000.0001)  ploadbar=  1.01104851350725E+05
 cg2d: Sum(rhs),rhsMax =  -6.13807880557148E+01  2.38262270167291E+00
(PID.TID 0000.0001)  ploadbar=  1.01105349320811E+05
 cg2d: Sum(rhs),rhsMax =  -5.92672215461044E+01  2.46765508129770E+00
(PID.TID 0000.0001)  ploadbar=  1.01105847290896E+05
 cg2d: Sum(rhs),rhsMax =  -5.73694059822807E+01  2.54941461440063E+00
(PID.TID 0000.0001)  ploadbar=  1.01105635493592E+05
 cg2d: Sum(rhs),rhsMax =  -5.55173683362134E+01  2.63463692263508E+00
(PID.TID 0000.0001)  ploadbar=  1.01105423696287E+05
 cg2d: Sum(rhs),rhsMax =  -5.37032020425197E+01  2.72386116674301E+00
(PID.TID 0000.0001)  ploadbar=  1.01105211898983E+05
 cg2d: Sum(rhs),rhsMax =  -5.21014786410182E+01  2.80787089866184E+00
(PID.TID 0000.0001)  ploadbar=  1.01105000101678E+05
 cg2d: Sum(rhs),rhsMax =  -5.10703531808907E+01  2.86489376189063E+00
(PID.TID 0000.0001)  ploadbar=  1.01104788304374E+05
 cg2d: Sum(rhs),rhsMax =  -5.00904658300034E+01  2.92133558297268E+00
(PID.TID 0000.0001)  ploadbar=  1.01104576507069E+05
 cg2d: Sum(rhs),rhsMax =  -4.91497950601286E+01  2.97761606499799E+00
(PID.TID 0000.0001)  ploadbar=  1.01104022299264E+05
 cg2d: Sum(rhs),rhsMax =  -4.82475599257976E+01  3.03360774252037E+00
(PID.TID 0000.0001)  ploadbar=  1.01103468091459E+05
 cg2d: Sum(rhs),rhsMax =  -4.73902576258228E+01  3.08871699813529E+00
(PID.TID 0000.0001)  ploadbar=  1.01102913883654E+05
 cg2d: Sum(rhs),rhsMax =  -4.65792742046421E+01  3.14263502103180E+00
(PID.TID 0000.0001)  ploadbar=  1.01102359675849E+05
 cg2d: Sum(rhs),rhsMax =  -4.58048411866318E+01  3.19579654333654E+00
(PID.TID 0000.0001)  ploadbar=  1.01101805468043E+05
 cg2d: Sum(rhs),rhsMax =  -4.50526762103608E+01  3.24905439575795E+00
(PID.TID 0000.0001)  ploadbar=  1.01101251260238E+05
 cg2d: Sum(rhs),rhsMax =  -4.43454332940521E+01  3.30080104879249E+00
(PID.TID 0000.0001)  ploadbar=  1.01101508482923E+05
 cg2d: Sum(rhs),rhsMax =  -4.36736457760040E+01  3.35151194331899E+00
(PID.TID 0000.0001)  ploadbar=  1.01101765705607E+05
 cg2d: Sum(rhs),rhsMax =  -4.30451832536668E+01  3.40038151165193E+00
(PID.TID 0000.0001)  ploadbar=  1.01102022928292E+05
 cg2d: Sum(rhs),rhsMax =  -4.24680292540526E+01  3.44652973162154E+00
(PID.TID 0000.0001)  ploadbar=  1.01102280150977E+05
 cg2d: Sum(rhs),rhsMax =  -4.19589565392111E+01  3.48827096257532E+00
(PID.TID 0000.0001)  ploadbar=  1.01102537373661E+05
 cg2d: Sum(rhs),rhsMax =  -4.15167145204652E+01  3.52533258392701E+00
(PID.TID 0000.0001)  ploadbar=  1.01102794596346E+05
 cg2d: Sum(rhs),rhsMax =  -4.11352176875214E+01  3.55790917726592E+00
(PID.TID 0000.0001)  ploadbar=  1.01101603175734E+05
 cg2d: Sum(rhs),rhsMax =  -4.08105439812292E+01  3.58606479777239E+00
(PID.TID 0000.0001)  ploadbar=  1.01100411755121E+05
 cg2d: Sum(rhs),rhsMax =  -4.05388423292626E+01  3.60990695439928E+00
(PID.TID 0000.0001)  ploadbar=  1.01099220334509E+05
 cg2d: Sum(rhs),rhsMax =  -4.03160902701539E+01  3.62960338007001E+00
(PID.TID 0000.0001)  ploadbar=  1.01098028913896E+05
 cg2d: Sum(rhs),rhsMax =  -4.01466460721736E+01  3.64460321517143E+00
(PID.TID 0000.0001)  ploadbar=  1.01096837493284E+05
 cg2d: Sum(rhs),rhsMax =  -4.00620297413688E+01  3.65190343647004E+00
(PID.TID 0000.0001)  ploadbar=  1.01095646072671E+05
 cg2d: Sum(rhs),rhsMax =  -4.00242523827468E+01  3.65507048700969E+00
(PID.TID 0000.0001)  ploadbar=  1.01095405107830E+05
 cg2d: Sum(rhs),rhsMax =  -4.00099367430722E+01  3.65619227964924E+00
(PID.TID 0000.0001)  ploadbar=  1.01095164142988E+05
 cg2d: Sum(rhs),rhsMax =  -4.00163584801646E+01  3.65549779289340E+00
(PID.TID 0000.0001)  ploadbar=  1.01094923178147E+05
 cg2d: Sum(rhs),rhsMax =  -4.00506184619309E+01  3.65233357243806E+00
(PID.TID 0000.0001)  ploadbar=  1.01094682213305E+05
 cg2d: Sum(rhs),rhsMax =  -4.01078234107837E+01  3.64715299302828E+00
(PID.TID 0000.0001)  ploadbar=  1.01094441248463E+05
 cg2d: Sum(rhs),rhsMax =  -4.01741769751008E+01  3.64123465555811E+00
(PID.TID 0000.0001)  ploadbar=  1.01094200283622E+05
 cg2d: Sum(rhs),rhsMax =  -4.02580084331981E+01  3.63375398520912E+00
(PID.TID 0000.0001)  ploadbar=  1.01092317698985E+05
 cg2d: Sum(rhs),rhsMax =  -4.06112508978697E+01  3.60220370596366E+00
(PID.TID 0000.0001)  ploadbar=  1.01090435114349E+05
 cg2d: Sum(rhs),rhsMax =  -4.12039631794446E+01  3.55038871548463E+00
(PID.TID 0000.0001)  ploadbar=  1.01088552529712E+05
 cg2d: Sum(rhs),rhsMax =  -4.20039013192596E+01  3.48272757219361E+00
(PID.TID 0000.0001)  ploadbar=  1.01086669945075E+05
 cg2d: Sum(rhs),rhsMax =  -4.31244310580511E+01  3.39213755716054E+00
(PID.TID 0000.0001)  ploadbar=  1.01084787360439E+05
 cg2d: Sum(rhs),rhsMax =  -4.43353926592446E+01  3.29933696914330E+00
(PID.TID 0000.0001)  ploadbar=  1.01082904775802E+05
 cg2d: Sum(rhs),rhsMax =  -4.50182226043323E+01  3.24915558109520E+00
(PID.TID 0000.0001)  ploadbar=  1.01080933697335E+05
 cg2d: Sum(rhs),rhsMax =  -4.57075572414474E+01  3.20000925465398E+00
(PID.TID 0000.0001)  ploadbar=  1.01078962618868E+05
 cg2d: Sum(rhs),rhsMax =  -4.63590340727047E+01  3.15488347150357E+00
(PID.TID 0000.0001)  ploadbar=  1.01076991540400E+05
 cg2d: Sum(rhs),rhsMax =  -4.69536076576927E+01  3.11475774185754E+00
(PID.TID 0000.0001)  ploadbar=  1.01075020461933E+05
 cg2d: Sum(rhs),rhsMax =  -4.74860500687832E+01  3.07962556725748E+00
(PID.TID 0000.0001)  ploadbar=  1.01073049383465E+05
 cg2d: Sum(rhs),rhsMax =  -4.79529523109296E+01  3.04938182916515E+00
(PID.TID 0000.0001)  ploadbar=  1.01071078304998E+05
 cg2d: Sum(rhs),rhsMax =  -4.83638335155107E+01  3.02320374449395E+00
(PID.TID 0000.0001)  ploadbar=  1.01069680016471E+05
 cg2d: Sum(rhs),rhsMax =  -4.87437420955347E+01  2.99934389689659E+00
(PID.TID 0000.0001)  ploadbar=  1.01068281727943E+05
 cg2d: Sum(rhs),rhsMax =  -4.90933787345080E+01  2.97765259365140E+00
(PID.TID 0000.0001)  ploadbar=  1.01066883439416E+05
 cg2d: Sum(rhs),rhsMax =  -4.94123808682402E+01  2.95806222827576E+00
(PID.TID 0000.0001)  ploadbar=  1.01065485150889E+05
 cg2d: Sum(rhs),rhsMax =  -4.97058423298332E+01  2.94018962685968E+00
(PID.TID 0000.0001)  ploadbar=  1.01064086862361E+05
 cg2d: Sum(rhs),rhsMax =  -4.99743940039105E+01  2.92393705786182E+00
(PID.TID 0000.0001)  ploadbar=  1.01062688573834E+05
 cg2d: Sum(rhs),rhsMax =  -5.02625208372374E+01  2.90683080383289E+00
(PID.TID 0000.0001)  ploadbar=  1.01061131135178E+05
 cg2d: Sum(rhs),rhsMax =  -5.05909093059944E+01  2.88768927883432E+00
(PID.TID 0000.0001)  ploadbar=  1.01059573696522E+05
 cg2d: Sum(rhs),rhsMax =  -5.09614231741492E+01  2.86647781122004E+00
(PID.TID 0000.0001)  ploadbar=  1.01058016257866E+05
 cg2d: Sum(rhs),rhsMax =  -5.13695533485188E+01  2.84353011673540E+00
(PID.TID 0000.0001)  ploadbar=  1.01056458819210E+05
 cg2d: Sum(rhs),rhsMax =  -5.18129333250874E+01  2.81905982734976E+00
(PID.TID 0000.0001)  ploadbar=  1.01054901380554E+05
 cg2d: Sum(rhs),rhsMax =  -5.22929533150880E+01  2.79307826444886E+00
(PID.TID 0000.0001)  ploadbar=  1.01053343941898E+05
 cg2d: Sum(rhs),rhsMax =  -5.28082828230224E+01  2.76571865027998E+00
(PID.TID 0000.0001)  ploadbar=  1.01052850953448E+05
 cg2d: Sum(rhs),rhsMax =  -5.33728257231109E+01  2.73634606117396E+00
(PID.TID 0000.0001)  ploadbar=  1.01052357964998E+05
 cg2d: Sum(rhs),rhsMax =  -5.40114728005532E+01  2.70385025794979E+00
(PID.TID 0000.0001)  ploadbar=  1.01051864976549E+05
 cg2d: Sum(rhs),rhsMax =  -5.47333841621603E+01  2.66801979368107E+00
(PID.TID 0000.0001)  ploadbar=  1.01051371988099E+05
 cg2d: Sum(rhs),rhsMax =  -5.55432883841537E+01  2.62891062795998E+00
(PID.TID 0000.0001)  ploadbar=  1.01050878999649E+05
 cg2d: Sum(rhs),rhsMax =  -5.64416023934898E+01  2.58681624130021E+00
(PID.TID 0000.0001)  ploadbar=  1.01050386011199E+05
 cg2d: Sum(rhs),rhsMax =  -5.74406996920357E+01  2.54161293825669E+00
(PID.TID 0000.0001)  ploadbar=  1.01049376001530E+05
 cg2d: Sum(rhs),rhsMax =  -5.85203360621350E+01  2.49454412236582E+00
(PID.TID 0000.0001)  ploadbar=  1.01048365991861E+05
 cg2d: Sum(rhs),rhsMax =  -5.96729174353068E+01  2.44620386279195E+00
(PID.TID 0000.0001)  ploadbar=  1.01047355982192E+05
 cg2d: Sum(rhs),rhsMax =  -6.08986004828809E+01  2.39682590798586E+00
(PID.TID 0000.0001)  ploadbar=  1.01046345972523E+05
 cg2d: Sum(rhs),rhsMax =  -6.22064682715990E+01  2.34628872548732E+00
(PID.TID 0000.0001)  ploadbar=  1.01045335962854E+05
 cg2d: Sum(rhs),rhsMax =  -6.35886426075640E+01  2.29512546542507E+00
(PID.TID 0000.0001)  ploadbar=  1.01044325953185E+05
 cg2d: Sum(rhs),rhsMax =  -6.49655791372852E+01  2.24631521296001E+00
(PID.TID 0000.0001)  ploadbar=  1.01044375167352E+05
 cg2d: Sum(rhs),rhsMax =  -6.62708743271933E+01  2.20189398515952E+00
(PID.TID 0000.0001)  ploadbar=  1.01044424381518E+05
 cg2d: Sum(rhs),rhsMax =  -6.74117530483382E+01  2.16443007530051E+00
(PID.TID 0000.0001)  ploadbar=  1.01044473595685E+05
 cg2d: Sum(rhs),rhsMax =  -6.83719492425758E+01  2.13380269229820E+00
(PID.TID 0000.0001)  ploadbar=  1.01044522809852E+05
 cg2d: Sum(rhs),rhsMax =  -6.91831701224711E+01  2.10851461190778E+00
(PID.TID 0000.0001)  ploadbar=  1.01044572024018E+05
 cg2d: Sum(rhs),rhsMax =  -6.98827358448164E+01  2.08709849141457E+00
(PID.TID 0000.0001)  ploadbar=  1.01044621238185E+05
 cg2d: Sum(rhs),rhsMax =  -7.05628457920494E+01  2.06677448234984E+00
(PID.TID 0000.0001)  ploadbar=  1.01044958477107E+05
 cg2d: Sum(rhs),rhsMax =  -7.12801618843069E+01  2.04584139769256E+00
(PID.TID 0000.0001)  ploadbar=  1.01045295716029E+05
 cg2d: Sum(rhs),rhsMax =  -7.20439451477104E+01  2.02407836541195E+00
(PID.TID 0000.0001)  ploadbar=  1.01045632954951E+05
 cg2d: Sum(rhs),rhsMax =  -7.28698599593930E+01  2.00111214657187E+00
(PID.TID 0000.0001)  ploadbar=  1.01045970193874E+05
 cg2d: Sum(rhs),rhsMax =  -7.37344468593903E+01  1.97766387341769E+00
(PID.TID 0000.0001)  ploadbar=  1.01046307432796E+05
 cg2d: Sum(rhs),rhsMax =  -7.46249722619253E+01  1.95412326003817E+00
(PID.TID 0000.0001)  ploadbar=  1.01046644671718E+05
 cg2d: Sum(rhs),rhsMax =  -7.56460160249162E+01  1.92776851091675E+00
(PID.TID 0000.0001)  ploadbar=  1.01047837092339E+05
 cg2d: Sum(rhs),rhsMax =  -7.69075988842133E+01  1.89611273331103E+00
(PID.TID 0000.0001)  ploadbar=  1.01049029512959E+05
 cg2d: Sum(rhs),rhsMax =  -7.84840240993835E+01  1.85794391632368E+00
(PID.TID 0000.0001)  ploadbar=  1.01050221933580E+05
 cg2d: Sum(rhs),rhsMax =  -7.85226291170254E+01  1.85689460665127E+00
(PID.TID 0000.0001)  ploadbar=  1.01051414354200E+05
 cg2d: Sum(rhs),rhsMax =  -7.85071205305765E+01  1.85706733265707E+00
(PID.TID 0000.0001)  ploadbar=  1.01052606774821E+05
 cg2d: Sum(rhs),rhsMax =  -7.85221499628312E+01  1.85644892056017E+00
(PID.TID 0000.0001)  ploadbar=  1.01053799195441E+05
 cg2d: Sum(rhs),rhsMax =  -7.85889771244527E+01  1.85462584802732E+00
(PID.TID 0000.0001)  ploadbar=  1.01054367768320E+05
 cg2d: Sum(rhs),rhsMax =  -7.86748951388540E+01  1.85236735261603E+00
(PID.TID 0000.0001)  ploadbar=  1.01054936341199E+05
 cg2d: Sum(rhs),rhsMax =  -7.87710623970797E+01  1.84987817298064E+00
(PID.TID 0000.0001)  ploadbar=  1.01055504914078E+05
 cg2d: Sum(rhs),rhsMax =  -7.88656363791146E+01  1.84743023678484E+00
(PID.TID 0000.0001)  ploadbar=  1.01056073486957E+05
 cg2d: Sum(rhs),rhsMax =  -7.89493554378396E+01  1.84523250707982E+00
(PID.TID 0000.0001)  ploadbar=  1.01056642059836E+05
 cg2d: Sum(rhs),rhsMax =  -7.90347748370272E+01  1.84297597404732E+00
(PID.TID 0000.0001)  ploadbar=  1.01057210632715E+05
 cg2d: Sum(rhs),rhsMax =  -7.90774926513585E+01  1.84172505885247E+00
(PID.TID 0000.0001)  ploadbar=  1.01057925722987E+05
 cg2d: Sum(rhs),rhsMax =  -7.91089554121465E+01  1.84073193366139E+00
(PID.TID 0000.0001)  ploadbar=  1.01058640813258E+05
 cg2d: Sum(rhs),rhsMax =  -7.91412781243616E+01  1.83970568098002E+00
(PID.TID 0000.0001)  ploadbar=  1.01059355903529E+05
 cg2d: Sum(rhs),rhsMax =  -7.91745266084940E+01  1.83864035865037E+00
(PID.TID 0000.0001)  ploadbar=  1.01060070993800E+05
 cg2d: Sum(rhs),rhsMax =  -7.92096021442212E+01  1.83751151948996E+00
(PID.TID 0000.0001)  ploadbar=  1.01060786084071E+05
 cg2d: Sum(rhs),rhsMax =  -7.92432478590314E+01  1.83639211321361E+00
(PID.TID 0000.0001)  ploadbar=  1.01061501174342E+05
 cg2d: Sum(rhs),rhsMax =  -7.92890667583742E+01  1.83509398030254E+00
(PID.TID 0000.0001)  ploadbar=  1.01062763897719E+05
 cg2d: Sum(rhs),rhsMax =  -7.93439789952940E+01  1.83366060983516E+00
(PID.TID 0000.0001)  ploadbar=  1.01064026621096E+05
 cg2d: Sum(rhs),rhsMax =  -7.94085841175856E+01  1.83206663905522E+00
(PID.TID 0000.0001)  ploadbar=  1.01065289344474E+05
 cg2d: Sum(rhs),rhsMax =  -7.94758127680332E+01  1.83046960942316E+00
(PID.TID 0000.0001)  ploadbar=  1.01066552067851E+05
 cg2d: Sum(rhs),rhsMax =  -7.95307670849183E+01  1.82920629122332E+00
(PID.TID 0000.0001)  ploadbar=  1.01067814791228E+05
 cg2d: Sum(rhs),rhsMax =  -7.95734562356992E+01  1.82827610030131E+00
(PID.TID 0000.0001)  ploadbar=  1.01069077514605E+05
 cg2d: Sum(rhs),rhsMax =  -7.96065508221188E+01  1.82754243448091E+00
(PID.TID 0000.0001)  ploadbar=  1.01069568281169E+05
 cg2d: Sum(rhs),rhsMax =  -7.96405600351642E+01  1.82675265886533E+00
(PID.TID 0000.0001)  ploadbar=  1.01070059047733E+05
 cg2d: Sum(rhs),rhsMax =  -7.96663479823070E+01  1.82611572573259E+00
(PID.TID 0000.0001)  ploadbar=  1.01070549814297E+05
 cg2d: Sum(rhs),rhsMax =  -7.96898254821614E+01  1.82549191781655E+00
(PID.TID 0000.0001)  ploadbar=  1.01071040580861E+05
 cg2d: Sum(rhs),rhsMax =  -7.97150724161192E+01  1.82478315023104E+00
(PID.TID 0000.0001)  ploadbar=  1.01071531347425E+05
 cg2d: Sum(rhs),rhsMax =  -7.97425453205539E+01  1.82396321023928E+00
(PID.TID 0000.0001)  ploadbar=  1.01072022113989E+05
 cg2d: Sum(rhs),rhsMax =  -7.97831477026857E+01  1.82285207344065E+00
(PID.TID 0000.0001)  ploadbar=  1.01071307574006E+05
 cg2d: Sum(rhs),rhsMax =  -7.98337515135530E+01  1.82151121467416E+00
(PID.TID 0000.0001)  ploadbar=  1.01070593034022E+05
 cg2d: Sum(rhs),rhsMax =  -7.98774037570779E+01  1.82031671134947E+00
(PID.TID 0000.0001)  ploadbar=  1.01069878494039E+05
 cg2d: Sum(rhs),rhsMax =  -7.99170470030894E+01  1.81919369317955E+00
(PID.TID 0000.0001)  ploadbar=  1.01069163954056E+05
 cg2d: Sum(rhs),rhsMax =  -7.99528470592764E+01  1.81812587957855E+00
(PID.TID 0000.0001)  ploadbar=  1.01068449414072E+05
 cg2d: Sum(rhs),rhsMax =  -7.99804203638859E+01  1.81720366697496E+00
(PID.TID 0000.0001)  ploadbar=  1.01067734874089E+05
 cg2d: Sum(rhs),rhsMax =  -8.00033435907733E+01  1.81637170518232E+00
(PID.TID 0000.0001)  ploadbar=  1.01067195335303E+05
 cg2d: Sum(rhs),rhsMax =  -8.00100260053836E+01  1.81588266683909E+00
(PID.TID 0000.0001)  ploadbar=  1.01066655796518E+05
 cg2d: Sum(rhs),rhsMax =  -8.00046243025691E+01  1.81563244726581E+00
(PID.TID 0000.0001)  ploadbar=  1.01066116257732E+05
 cg2d: Sum(rhs),rhsMax =  -7.99916154517342E+01  1.81551433638234E+00
(PID.TID 0000.0001)  ploadbar=  1.01065576718946E+05
 cg2d: Sum(rhs),rhsMax =  -7.99763243998550E+01  1.81540334467296E+00
(PID.TID 0000.0001)  ploadbar=  1.01065037180161E+05
 cg2d: Sum(rhs),rhsMax =  -7.99624584813451E+01  1.81521236198771E+00
(PID.TID 0000.0001)  ploadbar=  1.01064497641375E+05
 cg2d: Sum(rhs),rhsMax =  -7.99750264738819E+01  1.81452480738479E+00
(PID.TID 0000.0001)  ploadbar=  1.01063545672679E+05
 cg2d: Sum(rhs),rhsMax =  -7.99895933929954E+01  1.81387554670049E+00
(PID.TID 0000.0001)  ploadbar=  1.01062593703983E+05
 cg2d: Sum(rhs),rhsMax =  -8.00029483154799E+01  1.81331493942807E+00
(PID.TID 0000.0001)  ploadbar=  1.01061641735286E+05
 cg2d: Sum(rhs),rhsMax =  -8.00180262262237E+01  1.81276528660763E+00
(PID.TID 0000.0001)  ploadbar=  1.01060689766590E+05
 cg2d: Sum(rhs),rhsMax =  -8.00268952027410E+01  1.81240528298436E+00
(PID.TID 0000.0001)  ploadbar=  1.01059737797894E+05
 cg2d: Sum(rhs),rhsMax =  -8.00339838856180E+01  1.81213003551181E+00
(PID.TID 0000.0001)  ploadbar=  1.01058785829197E+05
 cg2d: Sum(rhs),rhsMax =  -8.00183776672180E+01  1.81237008957566E+00
(PID.TID 0000.0001)  ploadbar=  1.01057181167340E+05
 cg2d: Sum(rhs),rhsMax =  -7.99871416390411E+01  1.81295542135350E+00
(PID.TID 0000.0001)  ploadbar=  1.01055576505482E+05
 cg2d: Sum(rhs),rhsMax =  -7.99471468712274E+01  1.81373129375894E+00
(PID.TID 0000.0001)  ploadbar=  1.01053971843624E+05
 cg2d: Sum(rhs),rhsMax =  -7.99024690568725E+01  1.81460804071552E+00
(PID.TID 0000.0001)  ploadbar=  1.01052367181766E+05
 cg2d: Sum(rhs),rhsMax =  -7.98687472999263E+01  1.81522778033214E+00
(PID.TID 0000.0001)  ploadbar=  1.01050762519908E+05
 cg2d: Sum(rhs),rhsMax =  -7.98531753004754E+01  1.81541444776890E+00
(PID.TID 0000.0001)  ploadbar=  1.01049157858051E+05
 cg2d: Sum(rhs),rhsMax =  -7.98331284495822E+01  1.81573180260262E+00
(PID.TID 0000.0001)  ploadbar=  1.01046704035204E+05
 cg2d: Sum(rhs),rhsMax =  -7.98211135068336E+01  1.81588187786332E+00
(PID.TID 0000.0001)  ploadbar=  1.01044250212357E+05
 cg2d: Sum(rhs),rhsMax =  -7.98221961585644E+01  1.81574190841179E+00
(PID.TID 0000.0001)  ploadbar=  1.01041796389510E+05
 cg2d: Sum(rhs),rhsMax =  -7.98209962775489E+01  1.81565083551240E+00
(PID.TID 0000.0001)  ploadbar=  1.01039342566663E+05
 cg2d: Sum(rhs),rhsMax =  -7.98121202577682E+01  1.81571858856729E+00
(PID.TID 0000.0001)  ploadbar=  1.01036888743816E+05
 cg2d: Sum(rhs),rhsMax =  -7.97978901716516E+01  1.81587888487041E+00
(PID.TID 0000.0001)  ploadbar=  1.01034434920969E+05
 cg2d: Sum(rhs),rhsMax =  -7.97564489105161E+01  1.81664101614683E+00
(PID.TID 0000.0001)  ploadbar=  1.01033036701948E+05
 cg2d: Sum(rhs),rhsMax =  -7.96994031532652E+01  1.81773219355078E+00
(PID.TID 0000.0001)  ploadbar=  1.01031638482926E+05
 cg2d: Sum(rhs),rhsMax =  -7.96310637462013E+01  1.81904414174266E+00
(PID.TID 0000.0001)  ploadbar=  1.01030240263905E+05
 cg2d: Sum(rhs),rhsMax =  -7.95499535484763E+01  1.82059987253181E+00
(PID.TID 0000.0001)  ploadbar=  1.01028842044884E+05
 cg2d: Sum(rhs),rhsMax =  -7.94511207189036E+01  1.82251061827982E+00
(PID.TID 0000.0001)  ploadbar=  1.01027443825863E+05
 cg2d: Sum(rhs),rhsMax =  -7.93360463368419E+01  1.82474300955745E+00
(PID.TID 0000.0001)  ploadbar=  1.01026045606842E+05
 cg2d: Sum(rhs),rhsMax =  -7.92343172953054E+01  1.82675481291156E+00
(PID.TID 0000.0001)  ploadbar=  1.01025639326636E+05
 cg2d: Sum(rhs),rhsMax =  -7.91339339526912E+01  1.82880532350960E+00
(PID.TID 0000.0001)  ploadbar=  1.01025233046430E+05
 cg2d: Sum(rhs),rhsMax =  -7.90347008862600E+01  1.83088507124829E+00
(PID.TID 0000.0001)  ploadbar=  1.01024826766224E+05
 cg2d: Sum(rhs),rhsMax =  -7.89443025997697E+01  1.83280228711183E+00
(PID.TID 0000.0001)  ploadbar=  1.01024420486018E+05
 cg2d: Sum(rhs),rhsMax =  -7.88607478881401E+01  1.83458913533939E+00
(PID.TID 0000.0001)  ploadbar=  1.01024014205811E+05
 cg2d: Sum(rhs),rhsMax =  -7.87835940191986E+01  1.83624887422899E+00
(PID.TID 0000.0001)  ploadbar=  1.01023607925605E+05
 cg2d: Sum(rhs),rhsMax =  -7.87733479933184E+01  1.83632321776065E+00
(PID.TID 0000.0001)  ploadbar=  1.01024084654608E+05
 cg2d: Sum(rhs),rhsMax =  -7.87865277481284E+01  1.83581553056471E+00
(PID.TID 0000.0001)  ploadbar=  1.01024561383611E+05
 cg2d: Sum(rhs),rhsMax =  -7.88084862373873E+01  1.83506425722348E+00
(PID.TID 0000.0001)  ploadbar=  1.01025038112614E+05
 cg2d: Sum(rhs),rhsMax =  -7.88339897865186E+01  1.83418866739117E+00
(PID.TID 0000.0001)  ploadbar=  1.01025514841617E+05
 cg2d: Sum(rhs),rhsMax =  -7.88566151301063E+01  1.83332851262202E+00
(PID.TID 0000.0001)  ploadbar=  1.01025991570620E+05
 cg2d: Sum(rhs),rhsMax =  -7.88653460617378E+01  1.83272805644717E+00
(PID.TID 0000.0001)  ploadbar=  1.01026468299623E+05
 cg2d: Sum(rhs),rhsMax =  -7.89114903642330E+01  1.83130255415166E+00
(PID.TID 0000.0001)  ploadbar=  1.01026349296720E+05
 cg2d: Sum(rhs),rhsMax =  -7.90168042529291E+01  1.82854234863323E+00
(PID.TID 0000.0001)  ploadbar=  1.01026230293816E+05
 cg2d: Sum(rhs),rhsMax =  -7.91630453516622E+01  1.82487216350502E+00
(PID.TID 0000.0001)  ploadbar=  1.01026111290913E+05
 cg2d: Sum(rhs),rhsMax =  -7.93393933276082E+01  1.82054105729600E+00
(PID.TID 0000.0001)  ploadbar=  1.01025992288010E+05
 cg2d: Sum(rhs),rhsMax =  -7.95367502820697E+01  1.81574808299701E+00
(PID.TID 0000.0001)  ploadbar=  1.01025873285106E+05
 cg2d: Sum(rhs),rhsMax =  -7.97539410022395E+01  1.81050944656916E+00
(PID.TID 0000.0001)  ploadbar=  1.01025754282203E+05
 cg2d: Sum(rhs),rhsMax =  -7.99742663220277E+01  1.80520952065312E+00
(PID.TID 0000.0001)  ploadbar=  1.01024567189430E+05
 cg2d: Sum(rhs),rhsMax =  -8.02206622754189E+01  1.79931995069519E+00
(PID.TID 0000.0001)  ploadbar=  1.01023380096656E+05
 cg2d: Sum(rhs),rhsMax =  -8.04716556200466E+01  1.79332287261335E+00
(PID.TID 0000.0001)  ploadbar=  1.01022193003883E+05
 cg2d: Sum(rhs),rhsMax =  -8.07329900476748E+01  1.78708652796449E+00
(PID.TID 0000.0001)  ploadbar=  1.01021005911110E+05
 cg2d: Sum(rhs),rhsMax =  -8.09931936539865E+01  1.78086358217313E+00
(PID.TID 0000.0001)  ploadbar=  1.01019818818337E+05
 cg2d: Sum(rhs),rhsMax =  -8.12483012337316E+01  1.77473671212778E+00
(PID.TID 0000.0001)  ploadbar=  1.01018631725563E+05
 cg2d: Sum(rhs),rhsMax =  -8.14359774872762E+01  1.77021606703165E+00
(PID.TID 0000.0001)  ploadbar=  1.01017490181641E+05
 cg2d: Sum(rhs),rhsMax =  -8.16203374400527E+01  1.76587379191799E+00
(PID.TID 0000.0001)  ploadbar=  1.01016348637719E+05
 cg2d: Sum(rhs),rhsMax =  -8.17926572277406E+01  1.76188213454625E+00
(PID.TID 0000.0001)  ploadbar=  1.01015207093797E+05
 cg2d: Sum(rhs),rhsMax =  -8.19443716808164E+01  1.75840603556076E+00
(PID.TID 0000.0001)  ploadbar=  1.01014065549875E+05
 cg2d: Sum(rhs),rhsMax =  -8.20778599663934E+01  1.75538215920078E+00
(PID.TID 0000.0001)  ploadbar=  1.01012924005953E+05
 cg2d: Sum(rhs),rhsMax =  -8.22095250538452E+01  1.75245396558516E+00
(PID.TID 0000.0001)  ploadbar=  1.01011782462030E+05
 cg2d: Sum(rhs),rhsMax =  -8.22115343654881E+01  1.75231836439078E+00
(PID.TID 0000.0001)  ploadbar=  1.01010438487729E+05
 cg2d: Sum(rhs),rhsMax =  -8.21360624106069E+01  1.75384934435639E+00
(PID.TID 0000.0001)  ploadbar=  1.01009094513427E+05
 cg2d: Sum(rhs),rhsMax =  -8.20701486172233E+01  1.75518976322880E+00
(PID.TID 0000.0001)  ploadbar=  1.01007750539125E+05
 cg2d: Sum(rhs),rhsMax =  -8.21230291677865E+01  1.75400102264856E+00
(PID.TID 0000.0001)  ploadbar=  1.01006406564824E+05
 cg2d: Sum(rhs),rhsMax =  -8.23944318331312E+01  1.74816985610818E+00
(PID.TID 0000.0001)  ploadbar=  1.01005062590522E+05
 cg2d: Sum(rhs),rhsMax =  -8.28839789176783E+01  1.73778482183367E+00
(PID.TID 0000.0001)  ploadbar=  1.01003718616220E+05
 cg2d: Sum(rhs),rhsMax =  -8.34305149764119E+01  1.72638028640671E+00
(PID.TID 0000.0001)  ploadbar=  1.01002344153537E+05
 cg2d: Sum(rhs),rhsMax =  -8.39673642840042E+01  1.71534957385301E+00
(PID.TID 0000.0001)  ploadbar=  1.01000969690853E+05
 cg2d: Sum(rhs),rhsMax =  -8.44275325369315E+01  1.70602317870628E+00
(PID.TID 0000.0001)  ploadbar=  1.00999595228169E+05
 cg2d: Sum(rhs),rhsMax =  -8.48159640795396E+01  1.69823563431534E+00
(PID.TID 0000.0001)  ploadbar=  1.00998220765486E+05
 cg2d: Sum(rhs),rhsMax =  -8.52166032666294E+01  1.69026648221756E+00
(PID.TID 0000.0001)  ploadbar=  1.00996846302802E+05
 cg2d: Sum(rhs),rhsMax =  -8.54139564079681E+01  1.68635210546360E+00
(PID.TID 0000.0001)  ploadbar=  1.00995471840118E+05
 cg2d: Sum(rhs),rhsMax =  -8.53443628821335E+01  1.68769728708244E+00
(PID.TID 0000.0001)  ploadbar=  1.00994495286885E+05
 cg2d: Sum(rhs),rhsMax =  -8.53271207346094E+01  1.68797983776074E+00
(PID.TID 0000.0001)  ploadbar=  1.00993518733651E+05
 cg2d: Sum(rhs),rhsMax =  -8.53043330855620E+01  1.68833712205422E+00
(PID.TID 0000.0001)  ploadbar=  1.00992542180417E+05
 cg2d: Sum(rhs),rhsMax =  -8.52257089011270E+01  1.68976043492364E+00
(PID.TID 0000.0001)  ploadbar=  1.00991565627183E+05
 cg2d: Sum(rhs),rhsMax =  -8.51086051625699E+01  1.69190422645471E+00
(PID.TID 0000.0001)  ploadbar=  1.00990589073949E+05
 cg2d: Sum(rhs),rhsMax =  -8.49661959997895E+01  1.69450739055270E+00
(PID.TID 0000.0001)  ploadbar=  1.00989612520715E+05
 cg2d: Sum(rhs),rhsMax =  -8.49326556468993E+01  1.69504950982703E+00
(PID.TID 0000.0001)  ploadbar=  1.00989429139621E+05
 cg2d: Sum(rhs),rhsMax =  -8.49202192007320E+01  1.69526046603644E+00
(PID.TID 0000.0001)  ploadbar=  1.00989245758527E+05
 cg2d: Sum(rhs),rhsMax =  -8.49181050603149E+01  1.69533870257146E+00
(PID.TID 0000.0001)  ploadbar=  1.00989062377432E+05
 cg2d: Sum(rhs),rhsMax =  -8.49086850428868E+01  1.69562331709510E+00
(PID.TID 0000.0001)  ploadbar=  1.00988878996338E+05
 cg2d: Sum(rhs),rhsMax =  -8.48767406082589E+01  1.69640038597085E+00
(PID.TID 0000.0001)  ploadbar=  1.00988695615244E+05
 cg2d: Sum(rhs),rhsMax =  -8.48136239182719E+01  1.69783852764392E+00
(PID.TID 0000.0001)  ploadbar=  1.00988512234150E+05
 cg2d: Sum(rhs),rhsMax =  -8.45428821473758E+01  1.70344197327308E+00
(PID.TID 0000.0001)  ploadbar=  1.00989081207214E+05
 cg2d: Sum(rhs),rhsMax =  -8.41781061393170E+01  1.71097311085872E+00
(PID.TID 0000.0001)  ploadbar=  1.00989650180279E+05
 cg2d: Sum(rhs),rhsMax =  -8.37023006769309E+01  1.72082867392504E+00
(PID.TID 0000.0001)  ploadbar=  1.00990219153343E+05
 cg2d: Sum(rhs),rhsMax =  -8.31566762737697E+01  1.73222693777768E+00
(PID.TID 0000.0001)  ploadbar=  1.00990788126408E+05
 cg2d: Sum(rhs),rhsMax =  -8.25646199153974E+01  1.74472916361483E+00
(PID.TID 0000.0001)  ploadbar=  1.00991357099472E+05
 cg2d: Sum(rhs),rhsMax =  -8.19432052518569E+01  1.75800617159414E+00
(PID.TID 0000.0001)  ploadbar=  1.00991926072537E+05
 cg2d: Sum(rhs),rhsMax =  -8.11258893662614E+01  1.77576120261054E+00
(PID.TID 0000.0001)  ploadbar=  1.00993028721019E+05
 cg2d: Sum(rhs),rhsMax =  -8.01710855480745E+01  1.79693835247177E+00
(PID.TID 0000.0001)  ploadbar=  1.00994131369501E+05
 cg2d: Sum(rhs),rhsMax =  -7.91194673665465E+01  1.82082036015660E+00
(PID.TID 0000.0001)  ploadbar=  1.00995234017984E+05
 cg2d: Sum(rhs),rhsMax =  -7.80871154012160E+01  1.84484760800650E+00
(PID.TID 0000.0001)  ploadbar=  1.00996336666466E+05
 cg2d: Sum(rhs),rhsMax =  -7.70872804348472E+01  1.86867233400117E+00
(PID.TID 0000.0001)  ploadbar=  1.00997439314948E+05
 cg2d: Sum(rhs),rhsMax =  -7.61290208015066E+01  1.89202044884949E+00
(PID.TID 0000.0001)  ploadbar=  1.00998541963430E+05
 cg2d: Sum(rhs),rhsMax =  -7.53189556668731E+01  1.91216543879351E+00
(PID.TID 0000.0001)  ploadbar=  1.01001164703723E+05
 cg2d: Sum(rhs),rhsMax =  -7.46530811316806E+01  1.92897797735051E+00
(PID.TID 0000.0001)  ploadbar=  1.01003787444017E+05
 cg2d: Sum(rhs),rhsMax =  -7.41126829382027E+01  1.94275124162634E+00
(PID.TID 0000.0001)  ploadbar=  1.01006410184310E+05
 cg2d: Sum(rhs),rhsMax =  -7.36489615025116E+01  1.95463249881522E+00
(PID.TID 0000.0001)  ploadbar=  1.01009032924603E+05
 cg2d: Sum(rhs),rhsMax =  -7.33121401842295E+01  1.96318988732208E+00
(PID.TID 0000.0001)  ploadbar=  1.01011655664897E+05
 cg2d: Sum(rhs),rhsMax =  -6.85857198881561E+01  2.09794546468128E+00
(PID.TID 0000.0001)  ploadbar=  1.01014278405190E+05
 cg2d: Sum(rhs),rhsMax =  -6.45787145393479E+01  2.22768896667862E+00
(PID.TID 0000.0001)  ploadbar=  1.01016545521486E+05
 cg2d: Sum(rhs),rhsMax =  -6.07393101857367E+01  2.36816668029475E+00
(PID.TID 0000.0001)  ploadbar=  1.01018812637782E+05
 cg2d: Sum(rhs),rhsMax =  -5.69713253049568E+01  2.52451405389900E+00
(PID.TID 0000.0001)  ploadbar=  1.01021079754078E+05
 cg2d: Sum(rhs),rhsMax =  -5.34031946721566E+01  2.69294261418850E+00
(PID.TID 0000.0001)  ploadbar=  1.01023346870374E+05
 cg2d: Sum(rhs),rhsMax =  -5.00839102721920E+01  2.87120784957855E+00
(PID.TID 0000.0001)  ploadbar=  1.01025613986670E+05
 cg2d: Sum(rhs),rhsMax =  -4.70412358025380E+01  3.05675806119504E+00
(PID.TID 0000.0001)  ploadbar=  1.01027881102966E+05
 cg2d: Sum(rhs),rhsMax =  -4.43240945809662E+01  3.24400482422296E+00
(PID.TID 0000.0001)  ploadbar=  1.01030789601110E+05
 cg2d: Sum(rhs),rhsMax =  -4.19226861950875E+01  3.42968848359576E+00
(PID.TID 0000.0001)  ploadbar=  1.01033698099253E+05
 cg2d: Sum(rhs),rhsMax =  -3.98308399955213E+01  3.60963579261561E+00
(PID.TID 0000.0001)  ploadbar=  1.01036606597397E+05
 cg2d: Sum(rhs),rhsMax =  -3.80058274759722E+01  3.78274512815971E+00
(PID.TID 0000.0001)  ploadbar=  1.01039515095541E+05
 cg2d: Sum(rhs),rhsMax =  -3.63964058810318E+01  3.94972763351929E+00
(PID.TID 0000.0001)  ploadbar=  1.01042423593685E+05
 cg2d: Sum(rhs),rhsMax =  -3.49695770324421E+01  4.11051069616109E+00
(PID.TID 0000.0001)  ploadbar=  1.01045332091829E+05
 cg2d: Sum(rhs),rhsMax =  -3.37761218085632E+01  4.25537749443915E+00
(PID.TID 0000.0001)  ploadbar=  1.01047107492887E+05
 cg2d: Sum(rhs),rhsMax =  -3.28102894978018E+01  4.38023961039523E+00
(PID.TID 0000.0001)  ploadbar=  1.01048882893945E+05
 cg2d: Sum(rhs),rhsMax =  -3.20745986791678E+01  4.48024563928730E+00
(PID.TID 0000.0001)  ploadbar=  1.01050658295004E+05
 cg2d: Sum(rhs),rhsMax =  -3.15384477430884E+01  4.55584380025931E+00
(PID.TID 0000.0001)  ploadbar=  1.01052433696062E+05
 cg2d: Sum(rhs),rhsMax =  -3.11578185552818E+01  4.61079462649749E+00
(PID.TID 0000.0001)  ploadbar=  1.01054209097120E+05
 cg2d: Sum(rhs),rhsMax =  -3.08851571996036E+01  4.65062472620844E+00
(PID.TID 0000.0001)  ploadbar=  1.01055984498178E+05
 cg2d: Sum(rhs),rhsMax =  -3.06612758616102E+01  4.68366869519447E+00
(PID.TID 0000.0001)  ploadbar=  1.01058338061934E+05
 cg2d: Sum(rhs),rhsMax =  -3.04841812485218E+01  4.70989433774722E+00
(PID.TID 0000.0001)  ploadbar=  1.01060691625691E+05
 cg2d: Sum(rhs),rhsMax =  -3.03447737286932E+01  4.73045802585204E+00
(PID.TID 0000.0001)  ploadbar=  1.01063045189447E+05
 cg2d: Sum(rhs),rhsMax =  -3.02407925421365E+01  4.74554439985285E+00
(PID.TID 0000.0001)  ploadbar=  1.01065398753203E+05
 cg2d: Sum(rhs),rhsMax =  -3.01787880037215E+01  4.75399693264575E+00
(PID.TID 0000.0001)  ploadbar=  1.01067752316959E+05
 cg2d: Sum(rhs),rhsMax =  -3.01869162882161E+01  4.75130072564087E+00
(PID.TID 0000.0001)  ploadbar=  1.01070105880715E+05
 cg2d: Sum(rhs),rhsMax =  -3.03983405355808E+01  4.71710885476829E+00
(PID.TID 0000.0001)  ploadbar=  1.01071310237694E+05
 cg2d: Sum(rhs),rhsMax =  -3.07048366444285E+01  4.66909601578702E+00
(PID.TID 0000.0001)  ploadbar=  1.01072514594673E+05
 cg2d: Sum(rhs),rhsMax =  -3.10912070236943E+01  4.61031760976156E+00
(PID.TID 0000.0001)  ploadbar=  1.01073718951651E+05
 cg2d: Sum(rhs),rhsMax =  -3.15549262586659E+01  4.54193750042210E+00
(PID.TID 0000.0001)  ploadbar=  1.01074923308630E+05
 cg2d: Sum(rhs),rhsMax =  -3.20988272000530E+01  4.46445478203872E+00
(PID.TID 0000.0001)  ploadbar=  1.01076127665609E+05
 cg2d: Sum(rhs),rhsMax =  -3.27052362932890E+01  4.38123817763858E+00
(PID.TID 0000.0001)  ploadbar=  1.01077332022588E+05
 cg2d: Sum(rhs),rhsMax =  -3.28694823658105E+01  4.35894816027697E+00
(PID.TID 0000.0001)  ploadbar=  1.01077887013803E+05
 cg2d: Sum(rhs),rhsMax =  -3.30133638787414E+01  4.33957261265795E+00
(PID.TID 0000.0001)  ploadbar=  1.01078442005018E+05
 cg2d: Sum(rhs),rhsMax =  -3.31219310002819E+01  4.32496459589259E+00
(PID.TID 0000.0001)  ploadbar=  1.01078996996234E+05
 cg2d: Sum(rhs),rhsMax =  -3.31756752013348E+01  4.31755047847538E+00
(PID.TID 0000.0001)  ploadbar=  1.01079551987449E+05
 cg2d: Sum(rhs),rhsMax =  -3.31399969708524E+01  4.32174302004289E+00
(PID.TID 0000.0001)  ploadbar=  1.01080106978665E+05
 cg2d: Sum(rhs),rhsMax =  -3.30921556191767E+01  4.32745397826246E+00
(PID.TID 0000.0001)  ploadbar=  1.01080661969880E+05
 cg2d: Sum(rhs),rhsMax =  -3.32598349490533E+01  4.30508110185277E+00
(PID.TID 0000.0001)  ploadbar=  1.01080982710045E+05
 cg2d: Sum(rhs),rhsMax =  -3.35147823687696E+01  4.27173550729907E+00
(PID.TID 0000.0001)  ploadbar=  1.01081303450210E+05
 cg2d: Sum(rhs),rhsMax =  -3.37867756722391E+01  4.23667289521049E+00
(PID.TID 0000.0001)  ploadbar=  1.01081624190374E+05
 cg2d: Sum(rhs),rhsMax =  -3.40492130012868E+01  4.20324195499848E+00
(PID.TID 0000.0001)  ploadbar=  1.01081944930539E+05
 cg2d: Sum(rhs),rhsMax =  -3.43033538186763E+01  4.17120759442079E+00
(PID.TID 0000.0001)  ploadbar=  1.01082265670704E+05
 cg2d: Sum(rhs),rhsMax =  -3.45528081893542E+01  4.14007436529956E+00
(PID.TID 0000.0001)  ploadbar=  1.01082586410869E+05
 cg2d: Sum(rhs),rhsMax =  -3.48347671941817E+01  4.10557101976999E+00
(PID.TID 0000.0001)  ploadbar=  1.01082160799389E+05
 cg2d: Sum(rhs),rhsMax =  -3.51354529757341E+01  4.06944391600102E+00
(PID.TID 0000.0001)  ploadbar=  1.01081735187909E+05
 cg2d: Sum(rhs),rhsMax =  -3.54001175072629E+01  4.03801311747055E+00
(PID.TID 0000.0001)  ploadbar=  1.01081309576430E+05
 cg2d: Sum(rhs),rhsMax =  -3.56321381649643E+01  4.01069423833556E+00
(PID.TID 0000.0001)  ploadbar=  1.01080883964950E+05
 cg2d: Sum(rhs),rhsMax =  -3.60175298404694E+01  3.96673848793003E+00
(PID.TID 0000.0001)  ploadbar=  1.01080458353470E+05
 cg2d: Sum(rhs),rhsMax =  -3.63827501590441E+01  3.92584290254931E+00
(PID.TID 0000.0001)  ploadbar=  1.01080032741991E+05
 cg2d: Sum(rhs),rhsMax =  -3.68086027022869E+01  3.87955432147449E+00
(PID.TID 0000.0001)  ploadbar=  1.01079199508022E+05
 cg2d: Sum(rhs),rhsMax =  -3.72071670025442E+01  3.83730443221575E+00
(PID.TID 0000.0001)  ploadbar=  1.01078366274053E+05
 cg2d: Sum(rhs),rhsMax =  -3.75085241560878E+01  3.80593387966979E+00
(PID.TID 0000.0001)  ploadbar=  1.01077533040084E+05
 cg2d: Sum(rhs),rhsMax =  -3.77141678677909E+01  3.78476196992312E+00
(PID.TID 0000.0001)  ploadbar=  1.01076699806115E+05
 cg2d: Sum(rhs),rhsMax =  -3.78460830171069E+01  3.77124587064044E+00
(PID.TID 0000.0001)  ploadbar=  1.01075866572146E+05
 cg2d: Sum(rhs),rhsMax =  -3.79114655628399E+01  3.76449482949623E+00
(PID.TID 0000.0001)  ploadbar=  1.01075033338177E+05
 cg2d: Sum(rhs),rhsMax =  -3.80131140617332E+01  3.75420899739815E+00
(PID.TID 0000.0001)  ploadbar=  1.01074550733611E+05
 cg2d: Sum(rhs),rhsMax =  -3.82072093438060E+01  3.73492466042226E+00
(PID.TID 0000.0001)  ploadbar=  1.01074068129044E+05
 cg2d: Sum(rhs),rhsMax =  -3.85699068572681E+01  3.69958055955265E+00
(PID.TID 0000.0001)  ploadbar=  1.01073585524477E+05
 cg2d: Sum(rhs),rhsMax =  -3.91226663322818E+01  3.64706003883697E+00
(PID.TID 0000.0001)  ploadbar=  1.01073102919911E+05
 cg2d: Sum(rhs),rhsMax =  -3.97702788777021E+01  3.58737962671532E+00
(PID.TID 0000.0001)  ploadbar=  1.01072620315344E+05
 cg2d: Sum(rhs),rhsMax =  -4.05015135443432E+01  3.52226096074860E+00
(PID.TID 0000.0001)  ploadbar=  1.01072137710777E+05
 cg2d: Sum(rhs),rhsMax =  -4.13267729515208E+01  3.45162846121016E+00
(PID.TID 0000.0001)  ploadbar=  1.01072105149548E+05
 cg2d: Sum(rhs),rhsMax =  -4.22303182510890E+01  3.37751996845898E+00
(PID.TID 0000.0001)  ploadbar=  1.01072072588319E+05
 cg2d: Sum(rhs),rhsMax =  -4.32016595223181E+01  3.30133100326068E+00
(PID.TID 0000.0001)  ploadbar=  1.01072040027090E+05
 cg2d: Sum(rhs),rhsMax =  -4.42361617916913E+01  3.22385182991563E+00
(PID.TID 0000.0001)  ploadbar=  1.01072007465861E+05
 cg2d: Sum(rhs),rhsMax =  -4.53315854142557E+01  3.14563332667005E+00
(PID.TID 0000.0001)  ploadbar=  1.01071974904631E+05
 cg2d: Sum(rhs),rhsMax =  -4.64937178418896E+01  3.06663987036490E+00
(PID.TID 0000.0001)  ploadbar=  1.01071942343402E+05
 cg2d: Sum(rhs),rhsMax =  -4.76579138798937E+01  2.99134113209049E+00
(PID.TID 0000.0001)  ploadbar=  1.01071327913834E+05
 cg2d: Sum(rhs),rhsMax =  -4.87908287868415E+01  2.92145852890661E+00
(PID.TID 0000.0001)  ploadbar=  1.01070713484266E+05
 cg2d: Sum(rhs),rhsMax =  -4.98434150814518E+01  2.85929314211739E+00
(PID.TID 0000.0001)  ploadbar=  1.01070099054698E+05
 cg2d: Sum(rhs),rhsMax =  -5.07828527539060E+01  2.80586349039771E+00
(PID.TID 0000.0001)  ploadbar=  1.01069484625130E+05
 cg2d: Sum(rhs),rhsMax =  -5.15870919881970E+01  2.76151588068422E+00
(PID.TID 0000.0001)  ploadbar=  1.01068870195562E+05
 cg2d: Sum(rhs),rhsMax =  -5.22226436070600E+01  2.72722652102373E+00
(PID.TID 0000.0001)  ploadbar=  1.01068255765994E+05
 cg2d: Sum(rhs),rhsMax =  -5.27369166432635E+01  2.70011427266082E+00
(PID.TID 0000.0001)  ploadbar=  1.01068073246127E+05
 cg2d: Sum(rhs),rhsMax =  -5.31701448858975E+01  2.67773176940446E+00
(PID.TID 0000.0001)  ploadbar=  1.01067890726261E+05
 cg2d: Sum(rhs),rhsMax =  -5.35509392186483E+01  2.65841600635028E+00
(PID.TID 0000.0001)  ploadbar=  1.01067708206394E+05
 cg2d: Sum(rhs),rhsMax =  -5.38672717240181E+01  2.64259929233980E+00
(PID.TID 0000.0001)  ploadbar=  1.01067525686527E+05
 cg2d: Sum(rhs),rhsMax =  -5.41182430020437E+01  2.63019231620561E+00
(PID.TID 0000.0001)  ploadbar=  1.01067343166661E+05
 cg2d: Sum(rhs),rhsMax =  -5.42969476469666E+01  2.62143546762299E+00
(PID.TID 0000.0001)  ploadbar=  1.01067160646794E+05
 cg2d: Sum(rhs),rhsMax =  -5.44013594275950E+01  2.61631674988066E+00
(PID.TID 0000.0001)  ploadbar=  1.01067361060295E+05
 cg2d: Sum(rhs),rhsMax =  -5.44569175614484E+01  2.61355263234039E+00
(PID.TID 0000.0001)  ploadbar=  1.01067561473795E+05
 cg2d: Sum(rhs),rhsMax =  -5.44671044895788E+01  2.61295714500465E+00
(PID.TID 0000.0001)  ploadbar=  1.01067761887296E+05
 cg2d: Sum(rhs),rhsMax =  -5.44377410672897E+01  2.61424483988093E+00
(PID.TID 0000.0001)  ploadbar=  1.01067962300796E+05
 cg2d: Sum(rhs),rhsMax =  -5.43771894216364E+01  2.61701157139416E+00
(PID.TID 0000.0001)  ploadbar=  1.01068162714297E+05
 cg2d: Sum(rhs),rhsMax =  -5.42802377810194E+01  2.62151038483334E+00
(PID.TID 0000.0001)  ploadbar=  1.01068363127797E+05
 cg2d: Sum(rhs),rhsMax =  -5.42024504721035E+01  2.62513874575459E+00
(PID.TID 0000.0001)  ploadbar=  1.01069265232358E+05
 cg2d: Sum(rhs),rhsMax =  -5.41498237440792E+01  2.62757787914576E+00
(PID.TID 0000.0001)  ploadbar=  1.01070167336919E+05
 cg2d: Sum(rhs),rhsMax =  -5.41228323222043E+01  2.62877343994809E+00
(PID.TID 0000.0001)  ploadbar=  1.01071069441480E+05
 cg2d: Sum(rhs),rhsMax =  -5.41123846637193E+01  2.62914057700668E+00
(PID.TID 0000.0001)  ploadbar=  1.01071971546040E+05
 cg2d: Sum(rhs),rhsMax =  -5.41135940369438E+01  2.62888995023936E+00
(PID.TID 0000.0001)  ploadbar=  1.01072873650601E+05
 cg2d: Sum(rhs),rhsMax =  -5.41187534534190E+01  2.62837552608482E+00
(PID.TID 0000.0001)  ploadbar=  1.01073775755162E+05
 cg2d: Sum(rhs),rhsMax =  -5.41270333442397E+01  2.62768664160064E+00
(PID.TID 0000.0001)  ploadbar=  1.01074422790850E+05
 cg2d: Sum(rhs),rhsMax =  -5.41370729845738E+01  2.62687838143712E+00
(PID.TID 0000.0001)  ploadbar=  1.01075069826538E+05
 cg2d: Sum(rhs),rhsMax =  -5.41626208512350E+01  2.62527425145491E+00
(PID.TID 0000.0001)  ploadbar=  1.01075716862226E+05
 cg2d: Sum(rhs),rhsMax =  -5.42016993682681E+01  2.62296289413337E+00
(PID.TID 0000.0001)  ploadbar=  1.01076363897914E+05
 cg2d: Sum(rhs),rhsMax =  -5.42515461585858E+01  2.62007598099223E+00
(PID.TID 0000.0001)  ploadbar=  1.01077010933602E+05
 cg2d: Sum(rhs),rhsMax =  -5.43135340461752E+01  2.61654126479574E+00
(PID.TID 0000.0001)  ploadbar=  1.01077657969290E+05
 cg2d: Sum(rhs),rhsMax =  -5.44141443205218E+01  2.61130579436711E+00
(PID.TID 0000.0001)  ploadbar=  1.01077651943103E+05
 cg2d: Sum(rhs),rhsMax =  -5.45585595094741E+01  2.60410847470353E+00
(PID.TID 0000.0001)  ploadbar=  1.01077645916916E+05
 cg2d: Sum(rhs),rhsMax =  -5.47562633125894E+01  2.59449885789959E+00
(PID.TID 0000.0001)  ploadbar=  1.01077639890730E+05
 cg2d: Sum(rhs),rhsMax =  -5.50049106937632E+01  2.58263358576651E+00
(PID.TID 0000.0001)  ploadbar=  1.01077633864543E+05
 cg2d: Sum(rhs),rhsMax =  -5.53028769430542E+01  2.56864851356848E+00
(PID.TID 0000.0001)  ploadbar=  1.01077627838356E+05
 cg2d: Sum(rhs),rhsMax =  -5.56708681784491E+01  2.55166656332684E+00
(PID.TID 0000.0001)  ploadbar=  1.01077621812170E+05
 cg2d: Sum(rhs),rhsMax =  -5.61293531876899E+01  2.53079832926103E+00
(PID.TID 0000.0001)  ploadbar=  1.01079009584848E+05
 cg2d: Sum(rhs),rhsMax =  -5.66859332332466E+01  2.50588304543634E+00
(PID.TID 0000.0001)  ploadbar=  1.01080397357527E+05
 cg2d: Sum(rhs),rhsMax =  -5.73639935175087E+01  2.47615487207621E+00
(PID.TID 0000.0001)  ploadbar=  1.01081785130205E+05
 cg2d: Sum(rhs),rhsMax =  -5.81745732737161E+01  2.44150247278832E+00
(PID.TID 0000.0001)  ploadbar=  1.01083172902884E+05
 cg2d: Sum(rhs),rhsMax =  -5.91276727995644E+01  2.40194860756594E+00
(PID.TID 0000.0001)  ploadbar=  1.01084560675563E+05
 cg2d: Sum(rhs),rhsMax =  -6.02294035633096E+01  2.35775398317505E+00
(PID.TID 0000.0001)  ploadbar=  1.01085948448241E+05
 cg2d: Sum(rhs),rhsMax =  -6.14078042829796E+01  2.31228504469949E+00
(PID.TID 0000.0001)  ploadbar=  1.01086925408154E+05
 cg2d: Sum(rhs),rhsMax =  -6.26353803348647E+01  2.26676100346282E+00
(PID.TID 0000.0001)  ploadbar=  1.01087902368067E+05
 cg2d: Sum(rhs),rhsMax =  -6.38999606429827E+01  2.22170146763537E+00
(PID.TID 0000.0001)  ploadbar=  1.01088879327979E+05
 cg2d: Sum(rhs),rhsMax =  -6.51995394671085E+01  2.17720068195141E+00
(PID.TID 0000.0001)  ploadbar=  1.01089856287892E+05
 cg2d: Sum(rhs),rhsMax =  -6.65292763184143E+01  2.13342087520077E+00
(PID.TID 0000.0001)  ploadbar=  1.01090833247805E+05
 cg2d: Sum(rhs),rhsMax =  -6.78790849794017E+01  2.09067783170791E+00
(PID.TID 0000.0001)  ploadbar=  1.01091810207718E+05
 cg2d: Sum(rhs),rhsMax =  -6.92322967667098E+01  2.04952182329229E+00
(PID.TID 0000.0001)  ploadbar=  1.01091670770936E+05
 cg2d: Sum(rhs),rhsMax =  -7.05928325840595E+01  2.00973726454240E+00
(PID.TID 0000.0001)  ploadbar=  1.01091531334153E+05
 cg2d: Sum(rhs),rhsMax =  -7.19511880404516E+01  1.97150645211102E+00
(PID.TID 0000.0001)  ploadbar=  1.01091391897371E+05
 cg2d: Sum(rhs),rhsMax =  -7.33061727833424E+01  1.93475763025135E+00
(PID.TID 0000.0001)  ploadbar=  1.01091252460589E+05
 cg2d: Sum(rhs),rhsMax =  -7.46585148925956E+01  1.89937891669531E+00
(PID.TID 0000.0001)  ploadbar=  1.01091113023807E+05
 cg2d: Sum(rhs),rhsMax =  -7.60108890683578E+01  1.86521923301315E+00
(PID.TID 0000.0001)  ploadbar=  1.01090973587025E+05
 cg2d: Sum(rhs),rhsMax =  -7.75129890885296E+01  1.82882022538811E+00
(PID.TID 0000.0001)  ploadbar=  1.01090315171361E+05
 cg2d: Sum(rhs),rhsMax =  -7.92244786483706E+01  1.78914766565127E+00
(PID.TID 0000.0001)  ploadbar=  1.01089656755698E+05
 cg2d: Sum(rhs),rhsMax =  -8.12058350947618E+01  1.74539104550047E+00
(PID.TID 0000.0001)  ploadbar=  1.01088998340035E+05
 cg2d: Sum(rhs),rhsMax =  -8.35685995093422E+01  1.69598953763657E+00
(PID.TID 0000.0001)  ploadbar=  1.01088339924371E+05
 cg2d: Sum(rhs),rhsMax =  -8.63225506613761E+01  1.64187208377791E+00
(PID.TID 0000.0001)  ploadbar=  1.01087681508708E+05
 cg2d: Sum(rhs),rhsMax =  -8.86871744394210E+01  1.59811712204772E+00
(PID.TID 0000.0001)  ploadbar=  1.01087023093044E+05
 cg2d: Sum(rhs),rhsMax =  -8.64775082423228E+01  1.63898383485154E+00
(PID.TID 0000.0001)  ploadbar=  1.01087268087877E+05
 cg2d: Sum(rhs),rhsMax =  -8.44045595085863E+01  1.67927300752777E+00
(PID.TID 0000.0001)  ploadbar=  1.01087513082710E+05
 cg2d: Sum(rhs),rhsMax =  -8.25716423878903E+01  1.71658698368965E+00
(PID.TID 0000.0001)  ploadbar=  1.01087758077542E+05
 cg2d: Sum(rhs),rhsMax =  -8.09396877989232E+01  1.75123612878572E+00
(PID.TID 0000.0001)  ploadbar=  1.01088003072375E+05
 cg2d: Sum(rhs),rhsMax =  -7.94309851338304E+01  1.78452494053630E+00
(PID.TID 0000.0001)  ploadbar=  1.01088248067208E+05
 cg2d: Sum(rhs),rhsMax =  -7.79982665673268E+01  1.81730805987446E+00
(PID.TID 0000.0001)  ploadbar=  1.01088493062040E+05
 cg2d: Sum(rhs),rhsMax =  -7.67314242431458E+01  1.84734637923404E+00
(PID.TID 0000.0001)  ploadbar=  1.01088111225146E+05
 cg2d: Sum(rhs),rhsMax =  -7.56439283413397E+01  1.87395194402861E+00
(PID.TID 0000.0001)  ploadbar=  1.01087729388251E+05
 cg2d: Sum(rhs),rhsMax =  -7.47449563938430E+01  1.89653579540284E+00
(PID.TID 0000.0001)  ploadbar=  1.01087347551357E+05
 cg2d: Sum(rhs),rhsMax =  -7.40343365906400E+01  1.91476695148691E+00
(PID.TID 0000.0001)  ploadbar=  1.01086965714462E+05
 cg2d: Sum(rhs),rhsMax =  -7.35004521038110E+01  1.92866648164021E+00
(PID.TID 0000.0001)  ploadbar=  1.01086583877568E+05
 cg2d: Sum(rhs),rhsMax =  -7.31294524296337E+01  1.93839600646712E+00
(PID.TID 0000.0001)  ploadbar=  1.01086202040674E+05
 cg2d: Sum(rhs),rhsMax =  -7.28700342177920E+01  1.94525758181550E+00
(PID.TID 0000.0001)  ploadbar=  1.01086535921007E+05
 cg2d: Sum(rhs),rhsMax =  -7.26810801113444E+01  1.95027958651587E+00
(PID.TID 0000.0001)  ploadbar=  1.01086869801341E+05
 cg2d: Sum(rhs),rhsMax =  -7.25359921384347E+01  1.95414252592211E+00
(PID.TID 0000.0001)  ploadbar=  1.01087203681674E+05
 cg2d: Sum(rhs),rhsMax =  -7.24103424586061E+01  1.95748254280066E+00
(PID.TID 0000.0001)  ploadbar=  1.01087537562008E+05
 cg2d: Sum(rhs),rhsMax =  -7.22854243659948E+01  1.96078736033626E+00
(PID.TID 0000.0001)  ploadbar=  1.01087871442341E+05
 cg2d: Sum(rhs),rhsMax =  -7.21534240800587E+01  1.96426231336154E+00
(PID.TID 0000.0001)  ploadbar=  1.01088205322675E+05
 cg2d: Sum(rhs),rhsMax =  -7.19398683965086E+01  1.97005935423636E+00
(PID.TID 0000.0001)  ploadbar=  1.01087725972229E+05
 cg2d: Sum(rhs),rhsMax =  -7.15683910679845E+01  1.98030773779739E+00
(PID.TID 0000.0001)  ploadbar=  1.01087246621782E+05
 cg2d: Sum(rhs),rhsMax =  -7.10366536609740E+01  1.99517852881794E+00
(PID.TID 0000.0001)  ploadbar=  1.01086767271336E+05
 cg2d: Sum(rhs),rhsMax =  -7.04409208535066E+01  2.01210983556943E+00
(PID.TID 0000.0001)  ploadbar=  1.01086287920889E+05
 cg2d: Sum(rhs),rhsMax =  -7.01035798532928E+01  2.02184144449286E+00
(PID.TID 0000.0001)  ploadbar=  1.01085808570443E+05
 cg2d: Sum(rhs),rhsMax =  -7.01286341177628E+01  2.02114741153838E+00
(PID.TID 0000.0001)  ploadbar=  1.01085329219996E+05
 cg2d: Sum(rhs),rhsMax =  -7.02303497306715E+01  2.01823578497673E+00
(PID.TID 0000.0001)  ploadbar=  1.01085317849964E+05
 cg2d: Sum(rhs),rhsMax =  -7.03392383706080E+01  2.01510198092456E+00
(PID.TID 0000.0001)  ploadbar=  1.01085306479932E+05
 cg2d: Sum(rhs),rhsMax =  -7.03980993175658E+01  2.01337653119347E+00
(PID.TID 0000.0001)  ploadbar=  1.01085295109901E+05
 cg2d: Sum(rhs),rhsMax =  -7.03671389199242E+01  2.01418605907532E+00
(PID.TID 0000.0001)  ploadbar=  1.01085283739869E+05
 cg2d: Sum(rhs),rhsMax =  -7.02229902264422E+01  2.01819729874350E+00
(PID.TID 0000.0001)  ploadbar=  1.01085272369837E+05
 cg2d: Sum(rhs),rhsMax =  -6.99519690696830E+01  2.02583201275879E+00
(PID.TID 0000.0001)  ploadbar=  1.01085260999805E+05
 cg2d: Sum(rhs),rhsMax =  -6.95913207598577E+01  2.03616488829828E+00
(PID.TID 0000.0001)  ploadbar=  1.01083852654049E+05
 cg2d: Sum(rhs),rhsMax =  -6.91666970105736E+01  2.04850364960996E+00
(PID.TID 0000.0001)  ploadbar=  1.01082444308292E+05
 cg2d: Sum(rhs),rhsMax =  -6.87233077195902E+01  2.06155278263131E+00
(PID.TID 0000.0001)  ploadbar=  1.01081035962535E+05
 cg2d: Sum(rhs),rhsMax =  -6.82989077993986E+01  2.07417452035081E+00
(PID.TID 0000.0001)  ploadbar=  1.01079627616778E+05
 cg2d: Sum(rhs),rhsMax =  -6.79101937171987E+01  2.08581809105277E+00
(PID.TID 0000.0001)  ploadbar=  1.01078219271022E+05
 cg2d: Sum(rhs),rhsMax =  -6.75672922768322E+01  2.09612110031782E+00
(PID.TID 0000.0001)  ploadbar=  1.01076810925265E+05
 cg2d: Sum(rhs),rhsMax =  -6.72894490943001E+01  2.10451857261444E+00
(PID.TID 0000.0001)  ploadbar=  1.01076020861471E+05
 cg2d: Sum(rhs),rhsMax =  -6.70884024088920E+01  2.11058445237829E+00
(PID.TID 0000.0001)  ploadbar=  1.01075230797678E+05
 cg2d: Sum(rhs),rhsMax =  -6.69573781794167E+01  2.11448470254209E+00
(PID.TID 0000.0001)  ploadbar=  1.01074440733885E+05
 cg2d: Sum(rhs),rhsMax =  -6.68868829705477E+01  2.11648479842179E+00
(PID.TID 0000.0001)  ploadbar=  1.01073650670091E+05
 cg2d: Sum(rhs),rhsMax =  -6.68699681513095E+01  2.11678576878453E+00
(PID.TID 0000.0001)  ploadbar=  1.01072860606298E+05
 cg2d: Sum(rhs),rhsMax =  -6.69004976346972E+01  2.11556794677603E+00
(PID.TID 0000.0001)  ploadbar=  1.01072070542504E+05
 cg2d: Sum(rhs),rhsMax =  -6.69705571248649E+01  2.11319638115276E+00
(PID.TID 0000.0001)  ploadbar=  1.01072644046058E+05
 cg2d: Sum(rhs),rhsMax =  -6.70744177223579E+01  2.10982751446933E+00
(PID.TID 0000.0001)  ploadbar=  1.01073217549613E+05
 cg2d: Sum(rhs),rhsMax =  -6.72099674037190E+01  2.10550570991328E+00
(PID.TID 0000.0001)  ploadbar=  1.01073791053167E+05
 cg2d: Sum(rhs),rhsMax =  -6.73773788648459E+01  2.10022253425202E+00
(PID.TID 0000.0001)  ploadbar=  1.01074364556721E+05
 cg2d: Sum(rhs),rhsMax =  -6.75791865453571E+01  2.09390645846418E+00
(PID.TID 0000.0001)  ploadbar=  1.01074938060275E+05
 cg2d: Sum(rhs),rhsMax =  -6.78149121180399E+01  2.08658872868363E+00
(PID.TID 0000.0001)  ploadbar=  1.01075511563829E+05
 cg2d: Sum(rhs),rhsMax =  -6.80569587499713E+01  2.07913431706015E+00
(PID.TID 0000.0001)  ploadbar=  1.01075732430884E+05
 cg2d: Sum(rhs),rhsMax =  -6.82904593236289E+01  2.07199790941415E+00
(PID.TID 0000.0001)  ploadbar=  1.01075953297939E+05
 cg2d: Sum(rhs),rhsMax =  -6.85047184149409E+01  2.06549723081956E+00
(PID.TID 0000.0001)  ploadbar=  1.01076174164994E+05
 cg2d: Sum(rhs),rhsMax =  -6.87016903891352E+01  2.05956000787561E+00
(PID.TID 0000.0001)  ploadbar=  1.01076395032049E+05
 cg2d: Sum(rhs),rhsMax =  -6.88838295901255E+01  2.05408325585875E+00
(PID.TID 0000.0001)  ploadbar=  1.01076615899104E+05
 cg2d: Sum(rhs),rhsMax =  -6.90472389770339E+01  2.04915835907715E+00
(PID.TID 0000.0001)  ploadbar=  1.01076836766159E+05
 cg2d: Sum(rhs),rhsMax =  -6.92087653900711E+01  2.04432497128697E+00
(PID.TID 0000.0001)  ploadbar=  1.01077295934017E+05
 cg2d: Sum(rhs),rhsMax =  -6.93812722347156E+01  2.03918505898019E+00
(PID.TID 0000.0001)  ploadbar=  1.01077755101876E+05
 cg2d: Sum(rhs),rhsMax =  -6.95895959138556E+01  2.03300669620348E+00
(PID.TID 0000.0001)  ploadbar=  1.01078214269735E+05
 cg2d: Sum(rhs),rhsMax =  -6.98650979671695E+01  2.02488814255803E+00
(PID.TID 0000.0001)  ploadbar=  1.01078673437593E+05
 cg2d: Sum(rhs),rhsMax =  -7.02422230839100E+01  2.01387385613995E+00
(PID.TID 0000.0001)  ploadbar=  1.01079132605452E+05
 cg2d: Sum(rhs),rhsMax =  -7.07379367558939E+01  1.99955903556544E+00
(PID.TID 0000.0001)  ploadbar=  1.01079591773311E+05
 cg2d: Sum(rhs),rhsMax =  -7.14727291804863E+01  1.97883432942327E+00
(PID.TID 0000.0001)  ploadbar=  1.01080115811629E+05
 cg2d: Sum(rhs),rhsMax =  -7.24289718081353E+01  1.95256390866033E+00
(PID.TID 0000.0001)  ploadbar=  1.01080639849948E+05
 cg2d: Sum(rhs),rhsMax =  -7.35789942607601E+01  1.92190709005086E+00
(PID.TID 0000.0001)  ploadbar=  1.01081163888266E+05
 cg2d: Sum(rhs),rhsMax =  -7.48881954315009E+01  1.88816563248753E+00
(PID.TID 0000.0001)  ploadbar=  1.01081687926585E+05
 cg2d: Sum(rhs),rhsMax =  -7.63201242839058E+01  1.85259237556224E+00
(PID.TID 0000.0001)  ploadbar=  1.01082211964903E+05
 cg2d: Sum(rhs),rhsMax =  -7.78393402165118E+01  1.81627847579881E+00
(PID.TID 0000.0001)  ploadbar=  1.01082736003221E+05
 cg2d: Sum(rhs),rhsMax =  -7.94738321668078E+01  1.77884416837694E+00
(PID.TID 0000.0001)  ploadbar=  1.01083171392902E+05
 cg2d: Sum(rhs),rhsMax =  -8.12316670877740E+01  1.74030501842244E+00
(PID.TID 0000.0001)  ploadbar=  1.01083606782584E+05
 cg2d: Sum(rhs),rhsMax =  -8.31534844503994E+01  1.70006096061967E+00
(PID.TID 0000.0001)  ploadbar=  1.01084042172265E+05
 cg2d: Sum(rhs),rhsMax =  -8.52907533812669E+01  1.65745822622348E+00
(PID.TID 0000.0001)  ploadbar=  1.01084477561946E+05
 cg2d: Sum(rhs),rhsMax =  -8.76919928331106E+01  1.61208709162168E+00
(PID.TID 0000.0001)  ploadbar=  1.01084912951627E+05
 cg2d: Sum(rhs),rhsMax =  -9.03970568754195E+01  1.56387456719186E+00
(PID.TID 0000.0001)  ploadbar=  1.01085348341308E+05
 cg2d: Sum(rhs),rhsMax =  -9.32682479694043E+01  1.51577883295495E+00
(PID.TID 0000.0001)  ploadbar=  1.01086110034529E+05
 cg2d: Sum(rhs),rhsMax =  -9.62165181760740E+01  1.46939511315597E+00
(PID.TID 0000.0001)  ploadbar=  1.01086871727751E+05
 cg2d: Sum(rhs),rhsMax =  -9.91379815549154E+01  1.42617526663392E+00
(PID.TID 0000.0001)  ploadbar=  1.01087633420972E+05
 cg2d: Sum(rhs),rhsMax =  -1.01858189715595E+02  1.38817570141371E+00
(PID.TID 0000.0001)  ploadbar=  1.01088395114194E+05
 cg2d: Sum(rhs),rhsMax =  -1.04572692953438E+02  1.35221980961089E+00
(PID.TID 0000.0001)  ploadbar=  1.01089156807416E+05
 cg2d: Sum(rhs),rhsMax =  -1.06845071714278E+02  1.32351874300038E+00
(PID.TID 0000.0001)  ploadbar=  1.01089918500637E+05
 cg2d: Sum(rhs),rhsMax =  -1.08966149482503E+02  1.29781987414526E+00
(PID.TID 0000.0001)  ploadbar=  1.01089747346356E+05
 cg2d: Sum(rhs),rhsMax =  -1.11069730692509E+02  1.27329948226492E+00
(PID.TID 0000.0001)  ploadbar=  1.01089576192075E+05
 cg2d: Sum(rhs),rhsMax =  -1.13302641426113E+02  1.24824913009403E+00
(PID.TID 0000.0001)  ploadbar=  1.01089405037794E+05
 cg2d: Sum(rhs),rhsMax =  -1.15802129102674E+02  1.22132622120606E+00
(PID.TID 0000.0001)  ploadbar=  1.01089233883513E+05
 cg2d: Sum(rhs),rhsMax =  -1.18675877188839E+02  1.19174281795820E+00
(PID.TID 0000.0001)  ploadbar=  1.01089062729232E+05
 cg2d: Sum(rhs),rhsMax =  -1.22027162037113E+02  1.15897790025761E+00
(PID.TID 0000.0001)  ploadbar=  1.01088891574952E+05
 cg2d: Sum(rhs),rhsMax =  -1.23890347804956E+02  1.14152205584406E+00
(PID.TID 0000.0001)  ploadbar=  1.01087897234371E+05
 cg2d: Sum(rhs),rhsMax =  -1.24484279662240E+02  1.13604941849708E+00
(PID.TID 0000.0001)  ploadbar=  1.01086902893790E+05
 cg2d: Sum(rhs),rhsMax =  -1.25210676313988E+02  1.12943057820927E+00
(PID.TID 0000.0001)  ploadbar=  1.01085908553209E+05
 cg2d: Sum(rhs),rhsMax =  -1.25991899656583E+02  1.12238785724898E+00
(PID.TID 0000.0001)  ploadbar=  1.01084914212628E+05
 cg2d: Sum(rhs),rhsMax =  -1.26701269423126E+02  1.11604274391422E+00
(PID.TID 0000.0001)  ploadbar=  1.01083919872048E+05
 cg2d: Sum(rhs),rhsMax =  -1.27122868346742E+02  1.11225378453212E+00
(PID.TID 0000.0001)  ploadbar=  1.01082925531467E+05
 cg2d: Sum(rhs),rhsMax =  -1.27853951186054E+02  1.10584076535673E+00
(PID.TID 0000.0001)  ploadbar=  1.01082320228132E+05
 cg2d: Sum(rhs),rhsMax =  -1.28226045794407E+02  1.10259347569951E+00
(PID.TID 0000.0001)  ploadbar=  1.01081714924797E+05
 cg2d: Sum(rhs),rhsMax =  -1.28645926602316E+02  1.09896694723194E+00
(PID.TID 0000.0001)  ploadbar=  1.01081109621463E+05
 cg2d: Sum(rhs),rhsMax =  -1.29198269715170E+02  1.09425143115125E+00
(PID.TID 0000.0001)  ploadbar=  1.01080504318128E+05
 cg2d: Sum(rhs),rhsMax =  -1.30079559724281E+02  1.08683104538731E+00
(PID.TID 0000.0001)  ploadbar=  1.01079899014793E+05
 cg2d: Sum(rhs),rhsMax =  -1.31541472556982E+02  1.07475558411482E+00
(PID.TID 0000.0001)  ploadbar=  1.01079293711459E+05
 cg2d: Sum(rhs),rhsMax =  -1.32659226662129E+02  1.06571886555092E+00
(PID.TID 0000.0001)  ploadbar=  1.01078429904125E+05
 cg2d: Sum(rhs),rhsMax =  -1.33047499788857E+02  1.06263649388649E+00
(PID.TID 0000.0001)  ploadbar=  1.01077566096792E+05
 cg2d: Sum(rhs),rhsMax =  -1.33095095102819E+02  1.06229068345621E+00
(PID.TID 0000.0001)  ploadbar=  1.01076702289458E+05
 cg2d: Sum(rhs),rhsMax =  -1.31959067484902E+02  1.07147326723271E+00
(PID.TID 0000.0001)  ploadbar=  1.01075838482125E+05
 cg2d: Sum(rhs),rhsMax =  -1.29826906684050E+02  1.08910861475388E+00
(PID.TID 0000.0001)  ploadbar=  1.01074974674791E+05
 cg2d: Sum(rhs),rhsMax =  -1.27345871801419E+02  1.11036302229087E+00
(PID.TID 0000.0001)  ploadbar=  1.01074110867458E+05
 cg2d: Sum(rhs),rhsMax =  -1.24665944849393E+02  1.13425949278950E+00
(PID.TID 0000.0001)  ploadbar=  1.01073057279495E+05
 cg2d: Sum(rhs),rhsMax =  -1.22100458891695E+02  1.15809706806205E+00
(PID.TID 0000.0001)  ploadbar=  1.01072003691532E+05
 cg2d: Sum(rhs),rhsMax =  -1.19622609480430E+02  1.18205843441489E+00
(PID.TID 0000.0001)  ploadbar=  1.01070950103569E+05
 cg2d: Sum(rhs),rhsMax =  -1.19123273910517E+02  1.18694882428370E+00
(PID.TID 0000.0001)  ploadbar=  1.01069896515607E+05
 cg2d: Sum(rhs),rhsMax =  -1.18450750572002E+02  1.19358387581326E+00
(PID.TID 0000.0001)  ploadbar=  1.01068842927644E+05
 cg2d: Sum(rhs),rhsMax =  -1.17704008993985E+02  1.20100790923587E+00
(PID.TID 0000.0001)  ploadbar=  1.01067789339681E+05
 cg2d: Sum(rhs),rhsMax =  -1.17594872153616E+02  1.20196539931569E+00
(PID.TID 0000.0001)  ploadbar=  1.01067341780322E+05
 cg2d: Sum(rhs),rhsMax =  -1.17878149005251E+02  1.19890819481983E+00
(PID.TID 0000.0001)  ploadbar=  1.01066894220962E+05
 cg2d: Sum(rhs),rhsMax =  -1.18240648118355E+02  1.19504592363510E+00
(PID.TID 0000.0001)  ploadbar=  1.01066446661603E+05
 cg2d: Sum(rhs),rhsMax =  -1.16135885075969E+02  1.21649149388711E+00
(PID.TID 0000.0001)  ploadbar=  1.01065999102244E+05
 cg2d: Sum(rhs),rhsMax =  -1.13762013233991E+02  1.24163184060470E+00
(PID.TID 0000.0001)  ploadbar=  1.01065551542884E+05
 cg2d: Sum(rhs),rhsMax =  -1.11760715049533E+02  1.26358725765034E+00
(PID.TID 0000.0001)  ploadbar=  1.01065103983525E+05
 cg2d: Sum(rhs),rhsMax =  -1.09980270073273E+02  1.28380461542803E+00
(PID.TID 0000.0001)  ploadbar=  1.01064135629359E+05
 cg2d: Sum(rhs),rhsMax =  -1.08476712103639E+02  1.30138480619284E+00
(PID.TID 0000.0001)  ploadbar=  1.01063167275193E+05
 cg2d: Sum(rhs),rhsMax =  -1.07154657530956E+02  1.31724748694929E+00
(PID.TID 0000.0001)  ploadbar=  1.01062198921027E+05
 cg2d: Sum(rhs),rhsMax =  -1.05992786891775E+02  1.33150947455388E+00
(PID.TID 0000.0001)  ploadbar=  1.01061230566860E+05
 cg2d: Sum(rhs),rhsMax =  -1.04976657210955E+02  1.34423426287933E+00
(PID.TID 0000.0001)  ploadbar=  1.01060262212694E+05
 cg2d: Sum(rhs),rhsMax =  -1.04102969975369E+02  1.35536984614796E+00
(PID.TID 0000.0001)  ploadbar=  1.01059293858528E+05
 cg2d: Sum(rhs),rhsMax =  -1.03386796784101E+02  1.36463311221127E+00
(PID.TID 0000.0001)  ploadbar=  1.01058827564707E+05
 cg2d: Sum(rhs),rhsMax =  -1.02817961198150E+02  1.37207248263169E+00
(PID.TID 0000.0001)  ploadbar=  1.01058361270887E+05
 cg2d: Sum(rhs),rhsMax =  -1.02364660655508E+02  1.37805124877460E+00
(PID.TID 0000.0001)  ploadbar=  1.01057894977066E+05
 cg2d: Sum(rhs),rhsMax =  -1.02003689437060E+02  1.38283819000812E+00
(PID.TID 0000.0001)  ploadbar=  1.01057428683246E+05
 cg2d: Sum(rhs),rhsMax =  -1.01752462878617E+02  1.38616598911999E+00
(PID.TID 0000.0001)  ploadbar=  1.01056962389425E+05
 cg2d: Sum(rhs),rhsMax =  -1.01627996858072E+02  1.38777813082010E+00
(PID.TID 0000.0001)  ploadbar=  1.01056496095605E+05
 cg2d: Sum(rhs),rhsMax =  -1.01677537018350E+02  1.38703236893333E+00
(PID.TID 0000.0001)  ploadbar=  1.01055692146475E+05
 cg2d: Sum(rhs),rhsMax =  -1.01890164801988E+02  1.38407400650995E+00
(PID.TID 0000.0001)  ploadbar=  1.01054888197346E+05
 cg2d: Sum(rhs),rhsMax =  -1.00651043292288E+02  1.40105032969333E+00
(PID.TID 0000.0001)  ploadbar=  1.01054084248216E+05
 cg2d: Sum(rhs),rhsMax =  -9.86662587515298E+01  1.42917292178863E+00
(PID.TID 0000.0001)  ploadbar=  1.01053280299087E+05
 cg2d: Sum(rhs),rhsMax =  -9.67290363600989E+01  1.45773523431206E+00
(PID.TID 0000.0001)  ploadbar=  1.01052476349957E+05
 cg2d: Sum(rhs),rhsMax =  -9.48285530978501E+01  1.48687904982256E+00
(PID.TID 0000.0001)  ploadbar=  1.01051672400828E+05
 cg2d: Sum(rhs),rhsMax =  -9.29599525942859E+01  1.51668901060085E+00
(PID.TID 0000.0001)  ploadbar=  1.01050797868151E+05
 cg2d: Sum(rhs),rhsMax =  -9.11781782222599E+01  1.54623510398280E+00
(PID.TID 0000.0001)  ploadbar=  1.01049923335473E+05
 cg2d: Sum(rhs),rhsMax =  -8.95224657891910E+01  1.57471848469129E+00
(PID.TID 0000.0001)  ploadbar=  1.01049048802796E+05
 cg2d: Sum(rhs),rhsMax =  -8.77950543855944E+01  1.60556551331516E+00
(PID.TID 0000.0001)  ploadbar=  1.01048174270119E+05
 cg2d: Sum(rhs),rhsMax =  -8.61876173780765E+01  1.63535164510522E+00
(PID.TID 0000.0001)  ploadbar=  1.01047299737441E+05
 cg2d: Sum(rhs),rhsMax =  -8.47101659683562E+01  1.66369159578425E+00
(PID.TID 0000.0001)  ploadbar=  1.01046425204764E+05
 cg2d: Sum(rhs),rhsMax =  -8.33150163399205E+01  1.69143436779519E+00
(PID.TID 0000.0001)  ploadbar=  1.01044666812121E+05
 cg2d: Sum(rhs),rhsMax =  -8.20079209548876E+01  1.71831846015054E+00
(PID.TID 0000.0001)  ploadbar=  1.01042908419478E+05
 cg2d: Sum(rhs),rhsMax =  -8.07690627673628E+01  1.74462815640667E+00
(PID.TID 0000.0001)  ploadbar=  1.01041150026835E+05
 cg2d: Sum(rhs),rhsMax =  -7.95945249176748E+01  1.77034916092439E+00
(PID.TID 0000.0001)  ploadbar=  1.01039391634191E+05
 cg2d: Sum(rhs),rhsMax =  -7.85126000131665E+01  1.79473765619923E+00
(PID.TID 0000.0001)  ploadbar=  1.01037633241548E+05
 cg2d: Sum(rhs),rhsMax =  -7.75665196984460E+01  1.81663644252947E+00
(PID.TID 0000.0001)  ploadbar=  1.01035874848905E+05
 cg2d: Sum(rhs),rhsMax =  -7.67891598244014E+01  1.83505091988673E+00
(PID.TID 0000.0001)  ploadbar=  1.01035761598783E+05
 cg2d: Sum(rhs),rhsMax =  -7.62262604655414E+01  1.84863260309930E+00
(PID.TID 0000.0001)  ploadbar=  1.01035648348661E+05
 cg2d: Sum(rhs),rhsMax =  -7.59242281617478E+01  1.85602226303402E+00
(PID.TID 0000.0001)  ploadbar=  1.01035535098540E+05
 cg2d: Sum(rhs),rhsMax =  -7.42872083904600E+01  1.89695664731532E+00
(PID.TID 0000.0001)  ploadbar=  1.01035421848418E+05
 cg2d: Sum(rhs),rhsMax =  -7.20064898861457E+01  1.95707602905243E+00
(PID.TID 0000.0001)  ploadbar=  1.01035308598296E+05
 cg2d: Sum(rhs),rhsMax =  -7.00687745125803E+01  2.01123236054281E+00
(PID.TID 0000.0001)  ploadbar=  1.01035195348174E+05
 cg2d: Sum(rhs),rhsMax =  -6.84351048384926E+01  2.05930218141338E+00
(PID.TID 0000.0001)  ploadbar=  1.01034248035384E+05
 cg2d: Sum(rhs),rhsMax =  -6.70062016304865E+01  2.10328624740964E+00
(PID.TID 0000.0001)  ploadbar=  1.01033300722593E+05
 cg2d: Sum(rhs),rhsMax =  -6.57723672768017E+01  2.14280872839534E+00
(PID.TID 0000.0001)  ploadbar=  1.01032353409803E+05
 cg2d: Sum(rhs),rhsMax =  -6.47021942660929E+01  2.17829565122309E+00
(PID.TID 0000.0001)  ploadbar=  1.01031406097013E+05
 cg2d: Sum(rhs),rhsMax =  -6.37738424783321E+01  2.21001071767708E+00
(PID.TID 0000.0001)  ploadbar=  1.01030458784222E+05
 cg2d: Sum(rhs),rhsMax =  -6.29649912101688E+01  2.23835030567331E+00
(PID.TID 0000.0001)  ploadbar=  1.01029511471432E+05
 cg2d: Sum(rhs),rhsMax =  -6.22180614925255E+01  2.26514680951320E+00
(PID.TID 0000.0001)  ploadbar=  1.01030461059375E+05
 cg2d: Sum(rhs),rhsMax =  -6.15301201451866E+01  2.29036279684331E+00
(PID.TID 0000.0001)  ploadbar=  1.01031410647319E+05
 cg2d: Sum(rhs),rhsMax =  -6.08855652426252E+01  2.31446279292822E+00
(PID.TID 0000.0001)  ploadbar=  1.01032360235262E+05
 cg2d: Sum(rhs),rhsMax =  -6.02813216224366E+01  2.33747161009206E+00
(PID.TID 0000.0001)  ploadbar=  1.01033309823206E+05
 cg2d: Sum(rhs),rhsMax =  -5.98186388354651E+01  2.35531493153119E+00
(PID.TID 0000.0001)  ploadbar=  1.01034259411149E+05
 cg2d: Sum(rhs),rhsMax =  -5.95565731321394E+01  2.36539473096557E+00
(PID.TID 0000.0001)  ploadbar=  1.01035208999093E+05
 cg2d: Sum(rhs),rhsMax =  -5.94371903452916E+01  2.36994219549847E+00
(PID.TID 0000.0001)  ploadbar=  1.01037263178513E+05
 cg2d: Sum(rhs),rhsMax =  -5.94815015418674E+01  2.36803005073780E+00
(PID.TID 0000.0001)  ploadbar=  1.01039317357933E+05
 cg2d: Sum(rhs),rhsMax =  -5.96679230048495E+01  2.36052413157426E+00
(PID.TID 0000.0001)  ploadbar=  1.01041371537353E+05
 cg2d: Sum(rhs),rhsMax =  -5.99975228642885E+01  2.34747404654433E+00
(PID.TID 0000.0001)  ploadbar=  1.01043425716773E+05
 cg2d: Sum(rhs),rhsMax =  -6.04576288942477E+01  2.32954466465646E+00
(PID.TID 0000.0001)  ploadbar=  1.01045479896193E+05
 cg2d: Sum(rhs),rhsMax =  -6.09745950609357E+01  2.30975222922601E+00
(PID.TID 0000.0001)  ploadbar=  1.01047534075613E+05
 cg2d: Sum(rhs),rhsMax =  -6.14452646917267E+01  2.29203259074863E+00
(PID.TID 0000.0001)  ploadbar=  1.01049022910155E+05
 cg2d: Sum(rhs),rhsMax =  -6.18782189181352E+01  2.27596443389463E+00
(PID.TID 0000.0001)  ploadbar=  1.01050511744697E+05
 cg2d: Sum(rhs),rhsMax =  -6.22724962272134E+01  2.26151768200292E+00
(PID.TID 0000.0001)  ploadbar=  1.01052000579239E+05
 cg2d: Sum(rhs),rhsMax =  -6.26430448847716E+01  2.24810272677543E+00
(PID.TID 0000.0001)  ploadbar=  1.01053489413780E+05
 cg2d: Sum(rhs),rhsMax =  -6.30010210668440E+01  2.23529421971921E+00
(PID.TID 0000.0001)  ploadbar=  1.01054978248322E+05
 cg2d: Sum(rhs),rhsMax =  -6.33396761956821E+01  2.22330685572507E+00
(PID.TID 0000.0001)  ploadbar=  1.01056467082864E+05
 cg2d: Sum(rhs),rhsMax =  -6.35053652596364E+01  2.21753142959060E+00
(PID.TID 0000.0001)  ploadbar=  1.01057784765472E+05
 cg2d: Sum(rhs),rhsMax =  -6.34362247570254E+01  2.22000013846688E+00
(PID.TID 0000.0001)  ploadbar=  1.01059102448081E+05
 cg2d: Sum(rhs),rhsMax =  -6.31043004806551E+01  2.23174188770715E+00
(PID.TID 0000.0001)  ploadbar=  1.01060420130689E+05
 cg2d: Sum(rhs),rhsMax =  -6.25230163859683E+01  2.25256301131248E+00
(PID.TID 0000.0001)  ploadbar=  1.01061737813297E+05
 cg2d: Sum(rhs),rhsMax =  -6.18931412079255E+01  2.27555628397131E+00
(PID.TID 0000.0001)  ploadbar=  1.01063055495906E+05
 cg2d: Sum(rhs),rhsMax =  -6.12329780914281E+01  2.30016486073884E+00
(PID.TID 0000.0001)  ploadbar=  1.01064373178514E+05
 cg2d: Sum(rhs),rhsMax =  -6.05683904535275E+01  2.32548381925246E+00
(PID.TID 0000.0001)  ploadbar=  1.01065924456343E+05
 cg2d: Sum(rhs),rhsMax =  -6.00842792455043E+01  2.34428381605693E+00
(PID.TID 0000.0001)  ploadbar=  1.01067475734173E+05
 cg2d: Sum(rhs),rhsMax =  -5.97792757291713E+01  2.35628031650895E+00
(PID.TID 0000.0001)  ploadbar=  1.01069027012002E+05
 cg2d: Sum(rhs),rhsMax =  -5.96026719395382E+01  2.36326968683334E+00
(PID.TID 0000.0001)  ploadbar=  1.01070578289831E+05
 cg2d: Sum(rhs),rhsMax =  -5.93701838518517E+01  2.37249986796755E+00
(PID.TID 0000.0001)  ploadbar=  1.01072129567661E+05
 cg2d: Sum(rhs),rhsMax =  -5.91975826758636E+01  2.37935166753473E+00
(PID.TID 0000.0001)  ploadbar=  1.01073680845490E+05
 cg2d: Sum(rhs),rhsMax =  -5.90752688919288E+01  2.38432522561506E+00
(PID.TID 0000.0001)  ploadbar=  1.01075478000331E+05
 cg2d: Sum(rhs),rhsMax =  -5.89782717688611E+01  2.38837842600278E+00
(PID.TID 0000.0001)  ploadbar=  1.01077275155173E+05
 cg2d: Sum(rhs),rhsMax =  -5.89234322198118E+01  2.39079928937099E+00
(PID.TID 0000.0001)  ploadbar=  1.01079072310015E+05
 cg2d: Sum(rhs),rhsMax =  -5.89077692478199E+01  2.39168722673947E+00
(PID.TID 0000.0001)  ploadbar=  1.01080869464856E+05
 cg2d: Sum(rhs),rhsMax =  -5.89364863903222E+01  2.39081839621608E+00
(PID.TID 0000.0001)  ploadbar=  1.01082666619698E+05
 cg2d: Sum(rhs),rhsMax =  -5.90238479703064E+01  2.38761031334449E+00
(PID.TID 0000.0001)  ploadbar=  1.01084463774540E+05
 cg2d: Sum(rhs),rhsMax =  -5.92005310281347E+01  2.38079825964931E+00
(PID.TID 0000.0001)  ploadbar=  1.01085328530702E+05
 cg2d: Sum(rhs),rhsMax =  -5.94427394896523E+01  2.37138649826343E+00
(PID.TID 0000.0001)  ploadbar=  1.01086193286865E+05
 cg2d: Sum(rhs),rhsMax =  -5.97524435283086E+01  2.35936471686880E+00
(PID.TID 0000.0001)  ploadbar=  1.01087058043027E+05
 cg2d: Sum(rhs),rhsMax =  -6.01177143595196E+01  2.34527606226981E+00
(PID.TID 0000.0001)  ploadbar=  1.01087922799190E+05
 cg2d: Sum(rhs),rhsMax =  -6.05572717854257E+01  2.32847409944021E+00
(PID.TID 0000.0001)  ploadbar=  1.01088787555352E+05
 cg2d: Sum(rhs),rhsMax =  -6.10610377090000E+01  2.30945879639470E+00
(PID.TID 0000.0001)  ploadbar=  1.01089652311515E+05
 cg2d: Sum(rhs),rhsMax =  -6.16450630110592E+01  2.28782524793870E+00
(PID.TID 0000.0001)  ploadbar=  1.01089881012785E+05
 cg2d: Sum(rhs),rhsMax =  -6.21811155215869E+01  2.26837220173568E+00
(PID.TID 0000.0001)  ploadbar=  1.01090109714055E+05
 cg2d: Sum(rhs),rhsMax =  -6.26378601034787E+01  2.25210640529374E+00
(PID.TID 0000.0001)  ploadbar=  1.01090338415325E+05
 cg2d: Sum(rhs),rhsMax =  -6.29950946690746E+01  2.23960337728498E+00
(PID.TID 0000.0001)  ploadbar=  1.01090567116595E+05
 cg2d: Sum(rhs),rhsMax =  -6.32269807231316E+01  2.23164234583599E+00
(PID.TID 0000.0001)  ploadbar=  1.01090795817864E+05
 cg2d: Sum(rhs),rhsMax =  -6.33393317326367E+01  2.22792060366732E+00
(PID.TID 0000.0001)  ploadbar=  1.01091024519134E+05
 cg2d: Sum(rhs),rhsMax =  -6.33541740433094E+01  2.22760095313479E+00
(PID.TID 0000.0001)  ploadbar=  1.01091407586066E+05
 cg2d: Sum(rhs),rhsMax =  -6.32795144635256E+01  2.23038838903233E+00
(PID.TID 0000.0001)  ploadbar=  1.01091790652997E+05
 cg2d: Sum(rhs),rhsMax =  -6.31053531733969E+01  2.23665637619855E+00
(PID.TID 0000.0001)  ploadbar=  1.01092173719929E+05
 cg2d: Sum(rhs),rhsMax =  -6.29125228092886E+01  2.24357368449936E+00
(PID.TID 0000.0001)  ploadbar=  1.01092556786860E+05
 cg2d: Sum(rhs),rhsMax =  -6.27236790822604E+01  2.25033182872678E+00
(PID.TID 0000.0001)  ploadbar=  1.01092939853791E+05
 cg2d: Sum(rhs),rhsMax =  -6.25635151189856E+01  2.25602990530946E+00
(PID.TID 0000.0001)  ploadbar=  1.01093322920723E+05
 cg2d: Sum(rhs),rhsMax =  -6.23683292107160E+01  2.26311226810972E+00
(PID.TID 0000.0001)  ploadbar=  1.01093234217025E+05
 cg2d: Sum(rhs),rhsMax =  -6.21926228189966E+01  2.26958681134762E+00
(PID.TID 0000.0001)  ploadbar=  1.01093145513328E+05
 cg2d: Sum(rhs),rhsMax =  -6.20361359703297E+01  2.27543308560842E+00
(PID.TID 0000.0001)  ploadbar=  1.01093056809630E+05
 cg2d: Sum(rhs),rhsMax =  -6.18736831177530E+01  2.28155485723226E+00
(PID.TID 0000.0001)  ploadbar=  1.01092968105932E+05
 cg2d: Sum(rhs),rhsMax =  -6.17003118475500E+01  2.28813047009360E+00
(PID.TID 0000.0001)  ploadbar=  1.01092879402235E+05
 cg2d: Sum(rhs),rhsMax =  -6.14960609835233E+01  2.29591274274073E+00
(PID.TID 0000.0001)  ploadbar=  1.01092790698537E+05
 cg2d: Sum(rhs),rhsMax =  -6.12955337622426E+01  2.30356188109669E+00
(PID.TID 0000.0001)  ploadbar=  1.01092998235478E+05
 cg2d: Sum(rhs),rhsMax =  -6.10912110888546E+01  2.31135364460800E+00
(PID.TID 0000.0001)  ploadbar=  1.01093205772418E+05
 cg2d: Sum(rhs),rhsMax =  -6.08611300991791E+01  2.32013105667461E+00
(PID.TID 0000.0001)  ploadbar=  1.01093413309359E+05
 cg2d: Sum(rhs),rhsMax =  -6.06144261058587E+01  2.32955671877494E+00
(PID.TID 0000.0001)  ploadbar=  1.01093620846299E+05
 cg2d: Sum(rhs),rhsMax =  -6.03742359390158E+01  2.33874085179872E+00
(PID.TID 0000.0001)  ploadbar=  1.01093828383239E+05
 cg2d: Sum(rhs),rhsMax =  -6.01623854996753E+01  2.34681855583224E+00
(PID.TID 0000.0001)  ploadbar=  1.01094035920180E+05
 cg2d: Sum(rhs),rhsMax =  -5.99270993834043E+01  2.35586417575566E+00
(PID.TID 0000.0001)  ploadbar=  1.01094666386219E+05
 cg2d: Sum(rhs),rhsMax =  -5.97508923733683E+01  2.36260980514757E+00
(PID.TID 0000.0001)  ploadbar=  1.01095296852258E+05
 cg2d: Sum(rhs),rhsMax =  -5.96467498785032E+01  2.36648684838370E+00
(PID.TID 0000.0001)  ploadbar=  1.01095927318296E+05
 cg2d: Sum(rhs),rhsMax =  -5.96057234468612E+01  2.36781512682966E+00
(PID.TID 0000.0001)  ploadbar=  1.01096557784335E+05
 cg2d: Sum(rhs),rhsMax =  -5.96367138390346E+01  2.36623085392118E+00
(PID.TID 0000.0001)  ploadbar=  1.01097188250374E+05
 cg2d: Sum(rhs),rhsMax =  -5.97341247166824E+01  2.36195544199670E+00
(PID.TID 0000.0001)  ploadbar=  1.01097818716413E+05
 cg2d: Sum(rhs),rhsMax =  -5.98796628685814E+01  2.35579624930411E+00
(PID.TID 0000.0001)  ploadbar=  1.01097639274686E+05
 cg2d: Sum(rhs),rhsMax =  -6.00592407639286E+01  2.34831896279641E+00
(PID.TID 0000.0001)  ploadbar=  1.01097459832959E+05
 cg2d: Sum(rhs),rhsMax =  -6.02969126498576E+01  2.33860605026980E+00
(PID.TID 0000.0001)  ploadbar=  1.01097280391232E+05
 cg2d: Sum(rhs),rhsMax =  -6.05910322689563E+01  2.32676624127628E+00
(PID.TID 0000.0001)  ploadbar=  1.01097100949505E+05
 cg2d: Sum(rhs),rhsMax =  -6.09415268785035E+01  2.31286119835859E+00
(PID.TID 0000.0001)  ploadbar=  1.01096921507778E+05
 cg2d: Sum(rhs),rhsMax =  -6.13461112009221E+01  2.29704821409384E+00
(PID.TID 0000.0001)  ploadbar=  1.01096742066051E+05
 cg2d: Sum(rhs),rhsMax =  -6.18225954344414E+01  2.27888856443462E+00
(PID.TID 0000.0001)  ploadbar=  1.01096834011377E+05
 cg2d: Sum(rhs),rhsMax =  -6.23414062915145E+01  2.25952571937097E+00
(PID.TID 0000.0001)  ploadbar=  1.01096925956702E+05
 cg2d: Sum(rhs),rhsMax =  -6.29161382394988E+01  2.23853270885107E+00
(PID.TID 0000.0001)  ploadbar=  1.01097017902028E+05
 cg2d: Sum(rhs),rhsMax =  -6.35438205863559E+01  2.21610482206798E+00
(PID.TID 0000.0001)  ploadbar=  1.01097109847353E+05
 cg2d: Sum(rhs),rhsMax =  -6.42149821358215E+01  2.19266111048772E+00
(PID.TID 0000.0001)  ploadbar=  1.01097201792679E+05
 cg2d: Sum(rhs),rhsMax =  -6.49280217864278E+01  2.16833780337763E+00
(PID.TID 0000.0001)  ploadbar=  1.01097293738004E+05
 cg2d: Sum(rhs),rhsMax =  -6.56924159180120E+01  2.14288366701919E+00
(PID.TID 0000.0001)  ploadbar=  1.01096573663068E+05
 cg2d: Sum(rhs),rhsMax =  -6.64913713862155E+01  2.11691431359168E+00
(PID.TID 0000.0001)  ploadbar=  1.01095853588132E+05
 cg2d: Sum(rhs),rhsMax =  -6.73215944473701E+01  2.09059469124303E+00
(PID.TID 0000.0001)  ploadbar=  1.01095133513196E+05
 cg2d: Sum(rhs),rhsMax =  -6.82004951439884E+01  2.06344046581841E+00
(PID.TID 0000.0001)  ploadbar=  1.01094413438260E+05
 cg2d: Sum(rhs),rhsMax =  -6.91352122229458E+01  2.03532184579521E+00
(PID.TID 0000.0001)  ploadbar=  1.01093693363324E+05
 cg2d: Sum(rhs),rhsMax =  -7.01357957323678E+01  2.00605129005395E+00
(PID.TID 0000.0001)  ploadbar=  1.01092973288388E+05
 cg2d: Sum(rhs),rhsMax =  -7.12383003448967E+01  1.97477851327408E+00
(PID.TID 0000.0001)  ploadbar=  1.01091358429383E+05
 cg2d: Sum(rhs),rhsMax =  -7.23951411457760E+01  1.94298785713379E+00
(PID.TID 0000.0001)  ploadbar=  1.01089743570377E+05
 cg2d: Sum(rhs),rhsMax =  -7.35840833963430E+01  1.91134996927949E+00
(PID.TID 0000.0001)  ploadbar=  1.01088128711372E+05
 cg2d: Sum(rhs),rhsMax =  -7.47779691524741E+01  1.88057765689471E+00
(PID.TID 0000.0001)  ploadbar=  1.01086513852367E+05
 cg2d: Sum(rhs),rhsMax =  -7.59479970207769E+01  1.85132884905931E+00
(PID.TID 0000.0001)  ploadbar=  1.01084898993362E+05
 cg2d: Sum(rhs),rhsMax =  -7.70669748389106E+01  1.82413512914403E+00
(PID.TID 0000.0001)  ploadbar=  1.01083284134357E+05
 cg2d: Sum(rhs),rhsMax =  -7.80912304936588E+01  1.79990482383090E+00
(PID.TID 0000.0001)  ploadbar=  1.01081496680891E+05
 cg2d: Sum(rhs),rhsMax =  -7.89795651513950E+01  1.77935714059673E+00
(PID.TID 0000.0001)  ploadbar=  1.01079709227424E+05
 cg2d: Sum(rhs),rhsMax =  -7.97461455510291E+01  1.76194172206751E+00
(PID.TID 0000.0001)  ploadbar=  1.01077921773958E+05
 cg2d: Sum(rhs),rhsMax =  -8.03847820209283E+01  1.74761634577505E+00
(PID.TID 0000.0001)  ploadbar=  1.01076134320492E+05
 cg2d: Sum(rhs),rhsMax =  -8.04251394866417E+01  1.74638397305035E+00
(PID.TID 0000.0001)  ploadbar=  1.01074346867026E+05
 cg2d: Sum(rhs),rhsMax =  -7.97767195243439E+01  1.76018583351475E+00
(PID.TID 0000.0001)  ploadbar=  1.01072559413560E+05
 cg2d: Sum(rhs),rhsMax =  -7.92924952177903E+01  1.77060731532263E+00
(PID.TID 0000.0001)  ploadbar=  1.01069915658318E+05
 cg2d: Sum(rhs),rhsMax =  -7.90039223859191E+01  1.77679010278347E+00
(PID.TID 0000.0001)  ploadbar=  1.01067271903075E+05
 cg2d: Sum(rhs),rhsMax =  -7.89127674480818E+01  1.77859349622074E+00
(PID.TID 0000.0001)  ploadbar=  1.01064628147833E+05
 cg2d: Sum(rhs),rhsMax =  -7.89863011962214E+01  1.77671919496747E+00
(PID.TID 0000.0001)  ploadbar=  1.01061984392591E+05
 cg2d: Sum(rhs),rhsMax =  -7.91850949391208E+01  1.77206712235765E+00
(PID.TID 0000.0001)  ploadbar=  1.01059340637349E+05
 cg2d: Sum(rhs),rhsMax =  -7.96366700100212E+01  1.76185902434218E+00
(PID.TID 0000.0001)  ploadbar=  1.01056696882106E+05
 cg2d: Sum(rhs),rhsMax =  -8.01811533848177E+01  1.74978178018821E+00
(PID.TID 0000.0001)  ploadbar=  1.01055037477589E+05
 cg2d: Sum(rhs),rhsMax =  -8.08394276801709E+01  1.73544273285722E+00
(PID.TID 0000.0001)  ploadbar=  1.01053378073072E+05
 cg2d: Sum(rhs),rhsMax =  -8.16096538618986E+01  1.71899103925863E+00
(PID.TID 0000.0001)  ploadbar=  1.01051718668554E+05
 cg2d: Sum(rhs),rhsMax =  -8.25249703196558E+01  1.69986308339077E+00
(PID.TID 0000.0001)  ploadbar=  1.01050059264037E+05
 cg2d: Sum(rhs),rhsMax =  -8.35571910147828E+01  1.67880768946600E+00
(PID.TID 0000.0001)  ploadbar=  1.01048399859520E+05
 cg2d: Sum(rhs),rhsMax =  -8.46990792937895E+01  1.65611992613231E+00
(PID.TID 0000.0001)  ploadbar=  1.01046740455003E+05
 cg2d: Sum(rhs),rhsMax =  -8.59012246932828E+01  1.63291440532405E+00
(PID.TID 0000.0001)  ploadbar=  1.01044243121800E+05
 cg2d: Sum(rhs),rhsMax =  -8.70830197636956E+01  1.61073546519277E+00
(PID.TID 0000.0001)  ploadbar=  1.01041745788598E+05
 cg2d: Sum(rhs),rhsMax =  -8.82007641602335E+01  1.59030184624402E+00
(PID.TID 0000.0001)  ploadbar=  1.01039248455395E+05
 cg2d: Sum(rhs),rhsMax =  -8.92374442827476E+01  1.57179665717800E+00
(PID.TID 0000.0001)  ploadbar=  1.01036751122193E+05
 cg2d: Sum(rhs),rhsMax =  -9.01970562705606E+01  1.55502807711596E+00
(PID.TID 0000.0001)  ploadbar=  1.01034253788990E+05
 cg2d: Sum(rhs),rhsMax =  -9.10935539242615E+01  1.53965628673376E+00
(PID.TID 0000.0001)  ploadbar=  1.01031756455788E+05
 cg2d: Sum(rhs),rhsMax =  -9.20063287013542E+01  1.52430087097777E+00
(PID.TID 0000.0001)  ploadbar=  1.01029637118681E+05
 cg2d: Sum(rhs),rhsMax =  -9.29455499043927E+01  1.50879793212467E+00
(PID.TID 0000.0001)  ploadbar=  1.01027517781575E+05
 cg2d: Sum(rhs),rhsMax =  -9.39200661353084E+01  1.49301831834249E+00
(PID.TID 0000.0001)  ploadbar=  1.01025398444468E+05
 cg2d: Sum(rhs),rhsMax =  -9.49330499052751E+01  1.47693425145653E+00
(PID.TID 0000.0001)  ploadbar=  1.01023279107362E+05
 cg2d: Sum(rhs),rhsMax =  -9.60780429818709E+01  1.45914974476284E+00
(PID.TID 0000.0001)  ploadbar=  1.01021159770255E+05
 cg2d: Sum(rhs),rhsMax =  -9.73190623349711E+01  1.44032897413455E+00
(PID.TID 0000.0001)  ploadbar=  1.01019040433148E+05
 cg2d: Sum(rhs),rhsMax =  -9.72483118872282E+01  1.44121459277071E+00
(PID.TID 0000.0001)  ploadbar=  1.01018256923231E+05
 cg2d: Sum(rhs),rhsMax =  -9.71765410962096E+01  1.44214326781288E+00
(PID.TID 0000.0001)  ploadbar=  1.01017473413314E+05
 cg2d: Sum(rhs),rhsMax =  -9.72367614697056E+01  1.44112544671794E+00
(PID.TID 0000.0001)  ploadbar=  1.01016689903397E+05
 cg2d: Sum(rhs),rhsMax =  -9.73896261609140E+01  1.43874765877029E+00
(PID.TID 0000.0001)  ploadbar=  1.01015906393480E+05
 cg2d: Sum(rhs),rhsMax =  -9.76300406110041E+01  1.43509864040551E+00
(PID.TID 0000.0001)  ploadbar=  1.01015122883563E+05
 cg2d: Sum(rhs),rhsMax =  -9.79857956668006E+01  1.42979246921149E+00
(PID.TID 0000.0001)  ploadbar=  1.01014339373646E+05
 cg2d: Sum(rhs),rhsMax =  -9.83407696961004E+01  1.42455195220710E+00
(PID.TID 0000.0001)  ploadbar=  1.01013563305015E+05
 cg2d: Sum(rhs),rhsMax =  -9.87592593644845E+01  1.41844857398259E+00
(PID.TID 0000.0001)  ploadbar=  1.01012787236384E+05
 cg2d: Sum(rhs),rhsMax =  -9.92345107069914E+01  1.41160137780971E+00
(PID.TID 0000.0001)  ploadbar=  1.01012011167753E+05
 cg2d: Sum(rhs),rhsMax =  -9.97737067337930E+01  1.40392801316904E+00
(PID.TID 0000.0001)  ploadbar=  1.01011235099122E+05
 cg2d: Sum(rhs),rhsMax =  -1.00387313702304E+02  1.39530402166519E+00
(PID.TID 0000.0001)  ploadbar=  1.01010459030491E+05
 cg2d: Sum(rhs),rhsMax =  -1.01073059876690E+02  1.38578918866361E+00
(PID.TID 0000.0001)  ploadbar=  1.01009682961859E+05
 cg2d: Sum(rhs),rhsMax =  -1.01910373610726E+02  1.37437183958544E+00
(PID.TID 0000.0001)  ploadbar=  1.01009900955962E+05
 cg2d: Sum(rhs),rhsMax =  -1.02895474193978E+02  1.36118560177336E+00
(PID.TID 0000.0001)  ploadbar=  1.01010118950065E+05
 cg2d: Sum(rhs),rhsMax =  -1.03934916375303E+02  1.34754437781154E+00
(PID.TID 0000.0001)  ploadbar=  1.01010336944168E+05
 cg2d: Sum(rhs),rhsMax =  -1.04956616426775E+02  1.33439512488913E+00
(PID.TID 0000.0001)  ploadbar=  1.01010554938271E+05
 cg2d: Sum(rhs),rhsMax =  -1.05962722253227E+02  1.32168297219819E+00
(PID.TID 0000.0001)  ploadbar=  1.01010772932374E+05
 cg2d: Sum(rhs),rhsMax =  -1.06945302371788E+02  1.30948322744445E+00
(PID.TID 0000.0001)  ploadbar=  1.01010990926477E+05
 cg2d: Sum(rhs),rhsMax =  -1.07729795358440E+02  1.29990787086269E+00
(PID.TID 0000.0001)  ploadbar=  1.01010086997080E+05
 cg2d: Sum(rhs),rhsMax =  -1.08299743002095E+02  1.29303467737247E+00
(PID.TID 0000.0001)  ploadbar=  1.01009183067684E+05
 cg2d: Sum(rhs),rhsMax =  -1.08737829392373E+02  1.28779630789124E+00
(PID.TID 0000.0001)  ploadbar=  1.01008279138287E+05
 cg2d: Sum(rhs),rhsMax =  -1.09126216327266E+02  1.28318520928464E+00
(PID.TID 0000.0001)  ploadbar=  1.01007375208891E+05
 cg2d: Sum(rhs),rhsMax =  -1.09514893118236E+02  1.27860292663013E+00
(PID.TID 0000.0001)  ploadbar=  1.01006471279494E+05
 cg2d: Sum(rhs),rhsMax =  -1.09924944825162E+02  1.27380174972096E+00
(PID.TID 0000.0001)  ploadbar=  1.01005567350098E+05
 cg2d: Sum(rhs),rhsMax =  -1.10483464857227E+02  1.26737341202848E+00
(PID.TID 0000.0001)  ploadbar=  1.01004998860418E+05
 cg2d: Sum(rhs),rhsMax =  -1.11232305259980E+02  1.25887195866077E+00
(PID.TID 0000.0001)  ploadbar=  1.01004430370738E+05
 cg2d: Sum(rhs),rhsMax =  -1.12194700134910E+02  1.24811816827823E+00
(PID.TID 0000.0001)  ploadbar=  1.01003861881058E+05
 cg2d: Sum(rhs),rhsMax =  -1.13311809409323E+02  1.23586845590356E+00
(PID.TID 0000.0001)  ploadbar=  1.01003293391378E+05
 cg2d: Sum(rhs),rhsMax =  -1.12404645709694E+02  1.24591142875495E+00
(PID.TID 0000.0001)  ploadbar=  1.01002724901698E+05
 cg2d: Sum(rhs),rhsMax =  -1.10424022559329E+02  1.26835218714721E+00
(PID.TID 0000.0001)  ploadbar=  1.01002156412018E+05
 cg2d: Sum(rhs),rhsMax =  -1.08175990650633E+02  1.29481498079484E+00
(PID.TID 0000.0001)  ploadbar=  1.01001961978017E+05
 cg2d: Sum(rhs),rhsMax =  -1.05889992323507E+02  1.32287598093795E+00
(PID.TID 0000.0001)  ploadbar=  1.01001767544015E+05
 cg2d: Sum(rhs),rhsMax =  -1.04099965116828E+02  1.34573308683701E+00
(PID.TID 0000.0001)  ploadbar=  1.01001573110014E+05
 cg2d: Sum(rhs),rhsMax =  -1.02680816493897E+02  1.36444060449197E+00
(PID.TID 0000.0001)  ploadbar=  1.01001378676013E+05
 cg2d: Sum(rhs),rhsMax =  -1.01628842307668E+02  1.37866194750145E+00
(PID.TID 0000.0001)  ploadbar=  1.01001184242011E+05
 cg2d: Sum(rhs),rhsMax =  -1.00853867313417E+02  1.38933448029677E+00
(PID.TID 0000.0001)  ploadbar=  1.01000989808010E+05
 cg2d: Sum(rhs),rhsMax =  -1.00262725945093E+02  1.39761752296563E+00
(PID.TID 0000.0001)  ploadbar=  1.01002179554155E+05
 cg2d: Sum(rhs),rhsMax =  -9.97722903500615E+01  1.40458464185098E+00
(PID.TID 0000.0001)  ploadbar=  1.01003369300300E+05
 cg2d: Sum(rhs),rhsMax =  -9.93514432509394E+01  1.41063928264610E+00
(PID.TID 0000.0001)  ploadbar=  1.01004559046446E+05
 cg2d: Sum(rhs),rhsMax =  -9.89664400712838E+01  1.41624688004563E+00
(PID.TID 0000.0001)  ploadbar=  1.01005748792591E+05
 cg2d: Sum(rhs),rhsMax =  -9.86061251312809E+01  1.42156035597601E+00
(PID.TID 0000.0001)  ploadbar=  1.01006938538736E+05
 cg2d: Sum(rhs),rhsMax =  -9.82782645845457E+01  1.42645052727721E+00
(PID.TID 0000.0001)  ploadbar=  1.01008128284881E+05
 cg2d: Sum(rhs),rhsMax =  -9.78852867232100E+01  1.43231003480971E+00
(PID.TID 0000.0001)  ploadbar=  1.01008532541168E+05
 cg2d: Sum(rhs),rhsMax =  -9.75174573318194E+01  1.43781268144442E+00
(PID.TID 0000.0001)  ploadbar=  1.01008936797454E+05
 cg2d: Sum(rhs),rhsMax =  -9.71939145192872E+01  1.44266011459245E+00
(PID.TID 0000.0001)  ploadbar=  1.01009341053741E+05
 cg2d: Sum(rhs),rhsMax =  -9.68900303891774E+01  1.44720066224704E+00
(PID.TID 0000.0001)  ploadbar=  1.01009745310027E+05
 cg2d: Sum(rhs),rhsMax =  -9.65937135793698E+01  1.45160831389571E+00
(PID.TID 0000.0001)  ploadbar=  1.01010149566314E+05
 cg2d: Sum(rhs),rhsMax =  -9.63055090176026E+01  1.45586884061354E+00
(PID.TID 0000.0001)  ploadbar=  1.01010553822600E+05
 cg2d: Sum(rhs),rhsMax =  -9.59795833069143E+01  1.46075887407149E+00
(PID.TID 0000.0001)  ploadbar=  1.01011167914075E+05
 cg2d: Sum(rhs),rhsMax =  -9.55963702657430E+01  1.46657210751072E+00
(PID.TID 0000.0001)  ploadbar=  1.01011782005549E+05
 cg2d: Sum(rhs),rhsMax =  -9.52310665696106E+01  1.47215821546444E+00
(PID.TID 0000.0001)  ploadbar=  1.01012396097023E+05
 cg2d: Sum(rhs),rhsMax =  -9.48985752059673E+01  1.47727739591763E+00
(PID.TID 0000.0001)  ploadbar=  1.01013010188498E+05
 cg2d: Sum(rhs),rhsMax =  -9.45842304881855E+01  1.48215228251486E+00
(PID.TID 0000.0001)  ploadbar=  1.01013624279972E+05
 cg2d: Sum(rhs),rhsMax =  -9.43127494823737E+01  1.48639484707726E+00
(PID.TID 0000.0001)  ploadbar=  1.01014238371447E+05
 cg2d: Sum(rhs),rhsMax =  -9.40797131128691E+01  1.49006381388546E+00
(PID.TID 0000.0001)  ploadbar=  1.01015712500994E+05
 cg2d: Sum(rhs),rhsMax =  -9.39085305205082E+01  1.49277239041909E+00
(PID.TID 0000.0001)  ploadbar=  1.01017186630542E+05
 cg2d: Sum(rhs),rhsMax =  -9.37887333708833E+01  1.49467836400624E+00
(PID.TID 0000.0001)  ploadbar=  1.01018660760089E+05
 cg2d: Sum(rhs),rhsMax =  -9.37117910790551E+01  1.49591190332533E+00
(PID.TID 0000.0001)  ploadbar=  1.01020134889637E+05
 cg2d: Sum(rhs),rhsMax =  -9.36836826486778E+01  1.49636827410809E+00
(PID.TID 0000.0001)  ploadbar=  1.01021609019184E+05
 cg2d: Sum(rhs),rhsMax =  -9.37328813415939E+01  1.49558343680631E+00
(PID.TID 0000.0001)  ploadbar=  1.01023083148732E+05
 cg2d: Sum(rhs),rhsMax =  -9.37899518637235E+01  1.49467632702814E+00
(PID.TID 0000.0001)  ploadbar=  1.01024949051396E+05
 cg2d: Sum(rhs),rhsMax =  -9.38017306149504E+01  1.49448364656277E+00
(PID.TID 0000.0001)  ploadbar=  1.01026814954059E+05
 cg2d: Sum(rhs),rhsMax =  -9.37871500685678E+01  1.49470204297909E+00
(PID.TID 0000.0001)  ploadbar=  1.01028680856723E+05
 cg2d: Sum(rhs),rhsMax =  -9.37984254183897E+01  1.49450146803572E+00
(PID.TID 0000.0001)  ploadbar=  1.01030546759387E+05
 cg2d: Sum(rhs),rhsMax =  -9.38708361228491E+01  1.49331708433522E+00
(PID.TID 0000.0001)  ploadbar=  1.01032412662050E+05
 cg2d: Sum(rhs),rhsMax =  -9.40726292708785E+01  1.49006651210256E+00
(PID.TID 0000.0001)  ploadbar=  1.01034278564714E+05
 cg2d: Sum(rhs),rhsMax =  -9.43841234213789E+01  1.48507840251943E+00
(PID.TID 0000.0001)  ploadbar=  1.01034960584166E+05
 cg2d: Sum(rhs),rhsMax =  -9.48026148029646E+01  1.47841037518276E+00
(PID.TID 0000.0001)  ploadbar=  1.01035642603617E+05
 cg2d: Sum(rhs),rhsMax =  -9.53078133786203E+01  1.47041457452213E+00
(PID.TID 0000.0001)  ploadbar=  1.01036324623069E+05
 cg2d: Sum(rhs),rhsMax =  -9.58497522249544E+01  1.46189172983847E+00
(PID.TID 0000.0001)  ploadbar=  1.01037006642520E+05
 cg2d: Sum(rhs),rhsMax =  -9.63836328302933E+01  1.45353407571883E+00
(PID.TID 0000.0001)  ploadbar=  1.01037688661972E+05
 cg2d: Sum(rhs),rhsMax =  -9.68682532834003E+01  1.44595242147223E+00
(PID.TID 0000.0001)  ploadbar=  1.01038370681424E+05
 cg2d: Sum(rhs),rhsMax =  -9.74406639513395E+01  1.43721214960995E+00
(PID.TID 0000.0001)  ploadbar=  1.01037815520526E+05
 cg2d: Sum(rhs),rhsMax =  -9.81433945045260E+01  1.42672198962631E+00
(PID.TID 0000.0001)  ploadbar=  1.01037260359627E+05
 cg2d: Sum(rhs),rhsMax =  -9.90237063321135E+01  1.41387640718545E+00
(PID.TID 0000.0001)  ploadbar=  1.01036705198729E+05
 cg2d: Sum(rhs),rhsMax =  -1.00111200023196E+02  1.39839359765433E+00
(PID.TID 0000.0001)  ploadbar=  1.01036150037831E+05
 cg2d: Sum(rhs),rhsMax =  -1.01416799536271E+02  1.38030967729177E+00
(PID.TID 0000.0001)  ploadbar=  1.01035594876933E+05
 cg2d: Sum(rhs),rhsMax =  -1.02988125070048E+02  1.35922286575857E+00
(PID.TID 0000.0001)  ploadbar=  1.01035039716035E+05
 cg2d: Sum(rhs),rhsMax =  -1.04767186574133E+02  1.33614076847875E+00
(PID.TID 0000.0001)  ploadbar=  1.01035274606822E+05
 cg2d: Sum(rhs),rhsMax =  -1.06680374965119E+02  1.31218796563884E+00
(PID.TID 0000.0001)  ploadbar=  1.01035509497610E+05
 cg2d: Sum(rhs),rhsMax =  -1.08708480702454E+02  1.28772669756906E+00
(PID.TID 0000.0001)  ploadbar=  1.01035744388397E+05
 cg2d: Sum(rhs),rhsMax =  -1.10823193017002E+02  1.26318015976998E+00
(PID.TID 0000.0001)  ploadbar=  1.01035979279184E+05
 cg2d: Sum(rhs),rhsMax =  -1.12821200152233E+02  1.24083799881899E+00
(PID.TID 0000.0001)  ploadbar=  1.01036214169972E+05
 cg2d: Sum(rhs),rhsMax =  -1.13662207499978E+02  1.23168799132281E+00
(PID.TID 0000.0001)  ploadbar=  1.01036449060759E+05
 cg2d: Sum(rhs),rhsMax =  -1.13604620175387E+02  1.23236639528048E+00
(PID.TID 0000.0001)  ploadbar=  1.01034725440858E+05
 cg2d: Sum(rhs),rhsMax =  -1.13551620837409E+02  1.23300735172076E+00
(PID.TID 0000.0001)  ploadbar=  1.01033001820957E+05
 cg2d: Sum(rhs),rhsMax =  -1.13531736592652E+02  1.23329804931283E+00
(PID.TID 0000.0001)  ploadbar=  1.01031278201056E+05
 cg2d: Sum(rhs),rhsMax =  -1.13558408215726E+02  1.23308984382854E+00
(PID.TID 0000.0001)  ploadbar=  1.01029554581155E+05
 cg2d: Sum(rhs),rhsMax =  -1.13640000918730E+02  1.23229149205343E+00
(PID.TID 0000.0001)  ploadbar=  1.01027830961254E+05
 cg2d: Sum(rhs),rhsMax =  -1.13774909956760E+02  1.23091153247027E+00
(PID.TID 0000.0001)  ploadbar=  1.01026107341354E+05
 cg2d: Sum(rhs),rhsMax =  -1.13399301595163E+02  1.23505627542407E+00
(PID.TID 0000.0001)  ploadbar=  1.01024373580336E+05
 cg2d: Sum(rhs),rhsMax =  -1.12420207094656E+02  1.24585945122351E+00
(PID.TID 0000.0001)  ploadbar=  1.01022639819319E+05
 cg2d: Sum(rhs),rhsMax =  -1.11477391599424E+02  1.25642178460928E+00
(PID.TID 0000.0001)  ploadbar=  1.01020906058302E+05
 cg2d: Sum(rhs),rhsMax =  -1.10575963079606E+02  1.26666905846429E+00
(PID.TID 0000.0001)  ploadbar=  1.01019172297285E+05
 cg2d: Sum(rhs),rhsMax =  -1.09717267365465E+02  1.27656409544597E+00
(PID.TID 0000.0001)  ploadbar=  1.01017438536267E+05
 cg2d: Sum(rhs),rhsMax =  -1.08898298962508E+02  1.28612085097933E+00
(PID.TID 0000.0001)  ploadbar=  1.01015704775250E+05
 cg2d: Sum(rhs),rhsMax =  -1.08057750398582E+02  1.29613471909626E+00
(PID.TID 0000.0001)  ploadbar=  1.01013556491227E+05
 cg2d: Sum(rhs),rhsMax =  -1.07265711358183E+02  1.30574312309442E+00
(PID.TID 0000.0001)  ploadbar=  1.01011408207204E+05
 cg2d: Sum(rhs),rhsMax =  -1.06467108303462E+02  1.31559786343805E+00
(PID.TID 0000.0001)  ploadbar=  1.01009259923181E+05
 cg2d: Sum(rhs),rhsMax =  -1.05693826860818E+02  1.32530661350702E+00
(PID.TID 0000.0001)  ploadbar=  1.01007111639157E+05
 cg2d: Sum(rhs),rhsMax =  -1.04966663911683E+02  1.33459908604955E+00
(PID.TID 0000.0001)  ploadbar=  1.01004963355134E+05
 cg2d: Sum(rhs),rhsMax =  -1.04297993636648E+02  1.34330268438194E+00
(PID.TID 0000.0001)  ploadbar=  1.01002815071111E+05
 cg2d: Sum(rhs),rhsMax =  -1.03714308078640E+02  1.35100638130918E+00
(PID.TID 0000.0001)  ploadbar=  1.01002100758710E+05
 cg2d: Sum(rhs),rhsMax =  -1.03191681860575E+02  1.35797330144051E+00
(PID.TID 0000.0001)  ploadbar=  1.01001386446310E+05
 cg2d: Sum(rhs),rhsMax =  -1.02740785581308E+02  1.36403282543978E+00
(PID.TID 0000.0001)  ploadbar=  1.01000672133909E+05
 cg2d: Sum(rhs),rhsMax =  -1.02388870449328E+02  1.36879268517191E+00
(PID.TID 0000.0001)  ploadbar=  1.00999957821509E+05
 cg2d: Sum(rhs),rhsMax =  -1.02155958474713E+02  1.37195601667486E+00
(PID.TID 0000.0001)  ploadbar=  1.00999243509108E+05
 cg2d: Sum(rhs),rhsMax =  -1.02056486913553E+02  1.37330528013446E+00
(PID.TID 0000.0001)  ploadbar=  1.00998529196708E+05
 cg2d: Sum(rhs),rhsMax =  -1.02062486928787E+02  1.37326202018357E+00
(PID.TID 0000.0001)  ploadbar=  1.00996871790978E+05
 cg2d: Sum(rhs),rhsMax =  -1.02219682219739E+02  1.37120587156143E+00
(PID.TID 0000.0001)  ploadbar=  1.00995214385247E+05
 cg2d: Sum(rhs),rhsMax =  -1.02490252311022E+02  1.36765499115204E+00
(PID.TID 0000.0001)  ploadbar=  1.00993556979517E+05
 cg2d: Sum(rhs),rhsMax =  -1.02859380159945E+02  1.36282187774492E+00
(PID.TID 0000.0001)  ploadbar=  1.00991899573787E+05
 cg2d: Sum(rhs),rhsMax =  -1.03304570698604E+02  1.35702212941251E+00
(PID.TID 0000.0001)  ploadbar=  1.00990242168057E+05
 cg2d: Sum(rhs),rhsMax =  -1.03845651818228E+02  1.35001740557176E+00
(PID.TID 0000.0001)  ploadbar=  1.00988584762327E+05
 cg2d: Sum(rhs),rhsMax =  -1.04440661911649E+02  1.34238544481397E+00
(PID.TID 0000.0001)  ploadbar=  1.00986630479484E+05
 cg2d: Sum(rhs),rhsMax =  -1.05106605676886E+02  1.33392295266504E+00
(PID.TID 0000.0001)  ploadbar=  1.00984676196641E+05
 cg2d: Sum(rhs),rhsMax =  -1.05823067750547E+02  1.32491706348088E+00
(PID.TID 0000.0001)  ploadbar=  1.00982721913799E+05
 cg2d: Sum(rhs),rhsMax =  -1.06571336731470E+02  1.31561813511022E+00
(PID.TID 0000.0001)  ploadbar=  1.00980767630956E+05
 cg2d: Sum(rhs),rhsMax =  -1.07348862718981E+02  1.30606586344242E+00
(PID.TID 0000.0001)  ploadbar=  1.00978813348113E+05
 cg2d: Sum(rhs),rhsMax =  -1.08153921423090E+02  1.29628709069578E+00
(PID.TID 0000.0001)  ploadbar=  1.00976859065270E+05
 cg2d: Sum(rhs),rhsMax =  -1.09017748812085E+02  1.28600824227283E+00
(PID.TID 0000.0001)  ploadbar=  1.00975125326769E+05
 cg2d: Sum(rhs),rhsMax =  -1.09919868342586E+02  1.27548078868115E+00
(PID.TID 0000.0001)  ploadbar=  1.00973391588268E+05
 cg2d: Sum(rhs),rhsMax =  -1.10899162658738E+02  1.26427465830048E+00
(PID.TID 0000.0001)  ploadbar=  1.00971657849768E+05
 cg2d: Sum(rhs),rhsMax =  -1.11810921266522E+02  1.25405080115078E+00
(PID.TID 0000.0001)  ploadbar=  1.00969924111267E+05
 cg2d: Sum(rhs),rhsMax =  -1.11816781206410E+02  1.25410299905474E+00
(PID.TID 0000.0001)  ploadbar=  1.00968190372766E+05
 cg2d: Sum(rhs),rhsMax =  -1.11934159492099E+02  1.25294433644790E+00
(PID.TID 0000.0001)  ploadbar=  1.00966456634265E+05
 cg2d: Sum(rhs),rhsMax =  -1.11412337021186E+02  1.25896864964068E+00
(PID.TID 0000.0001)  ploadbar=  1.00965739105134E+05
 cg2d: Sum(rhs),rhsMax =  -1.10290743763213E+02  1.27191835768495E+00
(PID.TID 0000.0001)  ploadbar=  1.00965021576004E+05
 cg2d: Sum(rhs),rhsMax =  -1.09185850887117E+02  1.28492399048872E+00
(PID.TID 0000.0001)  ploadbar=  1.00964304046873E+05
 cg2d: Sum(rhs),rhsMax =  -1.08098490236303E+02  1.29796816639030E+00
(PID.TID 0000.0001)  ploadbar=  1.00963586517742E+05
 cg2d: Sum(rhs),rhsMax =  -1.07027118390134E+02  1.31106012319542E+00
(PID.TID 0000.0001)  ploadbar=  1.00962868988611E+05
 cg2d: Sum(rhs),rhsMax =  -1.05971769352036E+02  1.32418973900685E+00
(PID.TID 0000.0001)  ploadbar=  1.00962151459481E+05
 cg2d: Sum(rhs),rhsMax =  -1.05012499669194E+02  1.33636980143694E+00
(PID.TID 0000.0001)  ploadbar=  1.00962245858398E+05
 cg2d: Sum(rhs),rhsMax =  -1.04183270755528E+02  1.34709178550051E+00
(PID.TID 0000.0001)  ploadbar=  1.00962340257315E+05
 cg2d: Sum(rhs),rhsMax =  -1.03492911664446E+02  1.35616131907386E+00
(PID.TID 0000.0001)  ploadbar=  1.00962434656232E+05
 cg2d: Sum(rhs),rhsMax =  -1.02933832357036E+02  1.36360623974120E+00
(PID.TID 0000.0001)  ploadbar=  1.00962529055148E+05
 cg2d: Sum(rhs),rhsMax =  -1.02495248492913E+02  1.36951703534805E+00
(PID.TID 0000.0001)  ploadbar=  1.00962623454065E+05
 cg2d: Sum(rhs),rhsMax =  -1.02166594320605E+02  1.37399303109801E+00
(PID.TID 0000.0001)  ploadbar=  1.00962717852982E+05
 cg2d: Sum(rhs),rhsMax =  -1.01867670579692E+02  1.37809062276569E+00
(PID.TID 0000.0001)  ploadbar=  1.00962100775949E+05
 cg2d: Sum(rhs),rhsMax =  -1.01559738926065E+02  1.38231899054425E+00
(PID.TID 0000.0001)  ploadbar=  1.00961483698916E+05
 cg2d: Sum(rhs),rhsMax =  -1.01249749425512E+02  1.38657578065354E+00
(PID.TID 0000.0001)  ploadbar=  1.00960866621883E+05
 cg2d: Sum(rhs),rhsMax =  -1.01087406235129E+02  1.38879782863990E+00
(PID.TID 0000.0001)  ploadbar=  1.00960249544850E+05
 cg2d: Sum(rhs),rhsMax =  -1.01189047581369E+02  1.38736516293524E+00
(PID.TID 0000.0001)  ploadbar=  1.00959632467817E+05
 cg2d: Sum(rhs),rhsMax =  -1.01527504087754E+02  1.38266802622846E+00
(PID.TID 0000.0001)  ploadbar=  1.00959015390784E+05
 cg2d: Sum(rhs),rhsMax =  -1.02061471484599E+02  1.37541155040724E+00
(PID.TID 0000.0001)  ploadbar=  1.00958758632445E+05
 cg2d: Sum(rhs),rhsMax =  -1.02613558690213E+02  1.36802298296844E+00
(PID.TID 0000.0001)  ploadbar=  1.00958501874106E+05
 cg2d: Sum(rhs),rhsMax =  -1.03375964091577E+02  1.35797347760450E+00
(PID.TID 0000.0001)  ploadbar=  1.00958245115767E+05
 cg2d: Sum(rhs),rhsMax =  -1.04318144070036E+02  1.34577348746862E+00
(PID.TID 0000.0001)  ploadbar=  1.00957988357429E+05
 cg2d: Sum(rhs),rhsMax =  -1.05402330730344E+02  1.33202441724663E+00
(PID.TID 0000.0001)  ploadbar=  1.00957731599090E+05
 cg2d: Sum(rhs),rhsMax =  -1.06611562111393E+02  1.31704233078129E+00
(PID.TID 0000.0001)  ploadbar=  1.00957474840751E+05
 cg2d: Sum(rhs),rhsMax =  -1.07892554492258E+02  1.30152526413988E+00
(PID.TID 0000.0001)  ploadbar=  1.00958372071887E+05
 cg2d: Sum(rhs),rhsMax =  -1.09247773706740E+02  1.28547284050316E+00
(PID.TID 0000.0001)  ploadbar=  1.00959269303024E+05
 cg2d: Sum(rhs),rhsMax =  -1.10705925371179E+02  1.26860950903632E+00
(PID.TID 0000.0001)  ploadbar=  1.00960166534160E+05
 cg2d: Sum(rhs),rhsMax =  -1.12341067300170E+02  1.25018755414444E+00
(PID.TID 0000.0001)  ploadbar=  1.00961063765297E+05
 cg2d: Sum(rhs),rhsMax =  -1.13397670949565E+02  1.23855381122167E+00
(PID.TID 0000.0001)  ploadbar=  1.00961960996433E+05
 cg2d: Sum(rhs),rhsMax =  -1.13155301269055E+02  1.24119230231631E+00
(PID.TID 0000.0001)  ploadbar=  1.00962858227570E+05
 cg2d: Sum(rhs),rhsMax =  -1.12882723652165E+02  1.24418477339413E+00
(PID.TID 0000.0001)  ploadbar=  1.00963504467155E+05
 cg2d: Sum(rhs),rhsMax =  -1.12574184084850E+02  1.24759114042693E+00
(PID.TID 0000.0001)  ploadbar=  1.00964150706740E+05
 cg2d: Sum(rhs),rhsMax =  -1.12249464243479E+02  1.25119870348158E+00
(PID.TID 0000.0001)  ploadbar=  1.00964796946326E+05
 cg2d: Sum(rhs),rhsMax =  -1.11936114252592E+02  1.25470594605507E+00
(PID.TID 0000.0001)  ploadbar=  1.00965443185911E+05
 cg2d: Sum(rhs),rhsMax =  -1.11660605615968E+02  1.25781102994185E+00
(PID.TID 0000.0001)  ploadbar=  1.00966089425497E+05
 cg2d: Sum(rhs),rhsMax =  -1.11489986564169E+02  1.25974049419681E+00
(PID.TID 0000.0001)  ploadbar=  1.00966735665082E+05
 cg2d: Sum(rhs),rhsMax =  -1.11454426772692E+02  1.26014119238119E+00
(PID.TID 0000.0001)  ploadbar=  1.00967849196375E+05
 cg2d: Sum(rhs),rhsMax =  -1.10666450078492E+02  1.26909005774020E+00
(PID.TID 0000.0001)  ploadbar=  1.00968962727668E+05
 cg2d: Sum(rhs),rhsMax =  -1.09912077889311E+02  1.27774761504598E+00
(PID.TID 0000.0001)  ploadbar=  1.00970076258960E+05
 cg2d: Sum(rhs),rhsMax =  -1.09172176020029E+02  1.28632301341372E+00
(PID.TID 0000.0001)  ploadbar=  1.00971189790253E+05
 cg2d: Sum(rhs),rhsMax =  -1.08440275223553E+02  1.29488784489980E+00
(PID.TID 0000.0001)  ploadbar=  1.00972303321546E+05
 cg2d: Sum(rhs),rhsMax =  -1.07770994682338E+02  1.30277886036962E+00
(PID.TID 0000.0001)  ploadbar=  1.00973416852839E+05
 cg2d: Sum(rhs),rhsMax =  -1.06899254504388E+02  1.31331508963478E+00
(PID.TID 0000.0001)  ploadbar=  1.00974583684650E+05
 cg2d: Sum(rhs),rhsMax =  -1.05875843797969E+02  1.32597254434380E+00
(PID.TID 0000.0001)  ploadbar=  1.00975750516461E+05
 cg2d: Sum(rhs),rhsMax =  -1.04822174527872E+02  1.33931121822177E+00
(PID.TID 0000.0001)  ploadbar=  1.00976917348273E+05
 cg2d: Sum(rhs),rhsMax =  -1.03791960842554E+02  1.35266416625654E+00
(PID.TID 0000.0001)  ploadbar=  1.00978084180084E+05
 cg2d: Sum(rhs),rhsMax =  -1.02836803147057E+02  1.36533832877929E+00
(PID.TID 0000.0001)  ploadbar=  1.00979251011895E+05
 cg2d: Sum(rhs),rhsMax =  -1.02021778813086E+02  1.37640768892128E+00
(PID.TID 0000.0001)  ploadbar=  1.00980417843707E+05
 cg2d: Sum(rhs),rhsMax =  -1.00697280474868E+02  1.39466792425938E+00
(PID.TID 0000.0001)  ploadbar=  1.00981159009481E+05
 cg2d: Sum(rhs),rhsMax =  -9.92186969168894E+01  1.41558666338243E+00
(PID.TID 0000.0001)  ploadbar=  1.00981900175255E+05
 cg2d: Sum(rhs),rhsMax =  -9.78048789184550E+01  1.43616108414664E+00
(PID.TID 0000.0001)  ploadbar=  1.00982641341029E+05
 cg2d: Sum(rhs),rhsMax =  -9.63029205579832E+01  1.45864689151774E+00
(PID.TID 0000.0001)  ploadbar=  1.00983382506803E+05
 cg2d: Sum(rhs),rhsMax =  -9.48611449240460E+01  1.48088053194408E+00
(PID.TID 0000.0001)  ploadbar=  1.00984123672577E+05
 cg2d: Sum(rhs),rhsMax =  -9.34632275312565E+01  1.50306473105959E+00
(PID.TID 0000.0001)  ploadbar=  1.00984864838351E+05
 cg2d: Sum(rhs),rhsMax =  -9.21992515863435E+01  1.52372553026548E+00
(PID.TID 0000.0001)  ploadbar=  1.00985202528938E+05
 cg2d: Sum(rhs),rhsMax =  -9.11259203699347E+01  1.54173629990218E+00
(PID.TID 0000.0001)  ploadbar=  1.00985540219525E+05
 cg2d: Sum(rhs),rhsMax =  -9.02367780210913E+01  1.55699508255109E+00
(PID.TID 0000.0001)  ploadbar=  1.00985877910112E+05
 cg2d: Sum(rhs),rhsMax =  -8.94993473763622E+01  1.56989244308579E+00
(PID.TID 0000.0001)  ploadbar=  1.00986215600699E+05
 cg2d: Sum(rhs),rhsMax =  -8.88792056723850E+01  1.58090532496461E+00
(PID.TID 0000.0001)  ploadbar=  1.00986553291286E+05
 cg2d: Sum(rhs),rhsMax =  -8.84018983303737E+01  1.58946776594402E+00
(PID.TID 0000.0001)  ploadbar=  1.00986890981873E+05
 cg2d: Sum(rhs),rhsMax =  -8.80011562372351E+01  1.59671109795180E+00
(PID.TID 0000.0001)  ploadbar=  1.00987642909215E+05
 cg2d: Sum(rhs),rhsMax =  -8.76836419069062E+01  1.60246231041567E+00
(PID.TID 0000.0001)  ploadbar=  1.00988394836557E+05
 cg2d: Sum(rhs),rhsMax =  -8.74660005200347E+01  1.60637480726389E+00
(PID.TID 0000.0001)  ploadbar=  1.00989146763898E+05
 cg2d: Sum(rhs),rhsMax =  -8.73523230812046E+01  1.60834395560948E+00
(PID.TID 0000.0001)  ploadbar=  1.00989898691240E+05
 cg2d: Sum(rhs),rhsMax =  -8.73498144574232E+01  1.60822492729038E+00
(PID.TID 0000.0001)  ploadbar=  1.00990650618582E+05
 cg2d: Sum(rhs),rhsMax =  -8.74597683430220E+01  1.60599921684346E+00
(PID.TID 0000.0001)  ploadbar=  1.00991402545924E+05
 cg2d: Sum(rhs),rhsMax =  -8.76148531238975E+01  1.60301347713753E+00
(PID.TID 0000.0001)  ploadbar=  1.00992140637129E+05
 cg2d: Sum(rhs),rhsMax =  -8.77906893116701E+01  1.59969244157986E+00
(PID.TID 0000.0001)  ploadbar=  1.00992878728335E+05
 cg2d: Sum(rhs),rhsMax =  -8.80050398640614E+01  1.59570439259679E+00
(PID.TID 0000.0001)  ploadbar=  1.00993616819540E+05
 cg2d: Sum(rhs),rhsMax =  -8.82515710047167E+01  1.59116997653976E+00
(PID.TID 0000.0001)  ploadbar=  1.00994354910746E+05
 cg2d: Sum(rhs),rhsMax =  -8.85341343321892E+01  1.58602500427070E+00
(PID.TID 0000.0001)  ploadbar=  1.00995093001951E+05
 cg2d: Sum(rhs),rhsMax =  -8.88631136405305E+01  1.58009343186584E+00
(PID.TID 0000.0001)  ploadbar=  1.00995831093156E+05
 cg2d: Sum(rhs),rhsMax =  -8.91688374926135E+01  1.57460820041789E+00
(PID.TID 0000.0001)  ploadbar=  1.00997480277912E+05
 cg2d: Sum(rhs),rhsMax =  -8.94888769307353E+01  1.56889356409076E+00
(PID.TID 0000.0001)  ploadbar=  1.00999129462667E+05
 cg2d: Sum(rhs),rhsMax =  -8.99657823936507E+01  1.56047810478743E+00
(PID.TID 0000.0001)  ploadbar=  1.01000778647422E+05
 cg2d: Sum(rhs),rhsMax =  -9.06002576663178E+01  1.54943602460333E+00
(PID.TID 0000.0001)  ploadbar=  1.01002427832178E+05
 cg2d: Sum(rhs),rhsMax =  -9.13924411649720E+01  1.53587412163485E+00
(PID.TID 0000.0001)  ploadbar=  1.01004077016933E+05
 cg2d: Sum(rhs),rhsMax =  -9.23380486462735E+01  1.51999583685974E+00
(PID.TID 0000.0001)  ploadbar=  1.01005726201688E+05
 cg2d: Sum(rhs),rhsMax =  -9.33569855944399E+01  1.50328916409834E+00
(PID.TID 0000.0001)  ploadbar=  1.01006788109150E+05
 cg2d: Sum(rhs),rhsMax =  -9.43919954311760E+01  1.48670723229659E+00
(PID.TID 0000.0001)  ploadbar=  1.01007850016612E+05
 cg2d: Sum(rhs),rhsMax =  -9.54322420934419E+01  1.47042047279547E+00
(PID.TID 0000.0001)  ploadbar=  1.01008911924074E+05
 cg2d: Sum(rhs),rhsMax =  -9.64876466483006E+01  1.45427063321928E+00
(PID.TID 0000.0001)  ploadbar=  1.01009973831536E+05
 cg2d: Sum(rhs),rhsMax =  -9.75530105737950E+01  1.43832782952025E+00
(PID.TID 0000.0001)  ploadbar=  1.01011035738998E+05
 cg2d: Sum(rhs),rhsMax =  -9.86553840958530E+01  1.42218270583862E+00
(PID.TID 0000.0001)  ploadbar=  1.01012097646460E+05
 cg2d: Sum(rhs),rhsMax =  -9.97843274187335E+01  1.40602114829368E+00
(PID.TID 0000.0001)  ploadbar=  1.01013008242109E+05
 cg2d: Sum(rhs),rhsMax =  -1.00944791039571E+02  1.38977248407604E+00
(PID.TID 0000.0001)  ploadbar=  1.01013918837757E+05
 cg2d: Sum(rhs),rhsMax =  -1.02136172925651E+02  1.37345524791383E+00
(PID.TID 0000.0001)  ploadbar=  1.01014829433406E+05
 cg2d: Sum(rhs),rhsMax =  -1.03367540557154E+02  1.35696996151866E+00
(PID.TID 0000.0001)  ploadbar=  1.01015740029055E+05
 cg2d: Sum(rhs),rhsMax =  -1.04633638999464E+02  1.34040862764748E+00
(PID.TID 0000.0001)  ploadbar=  1.01016650624703E+05
 cg2d: Sum(rhs),rhsMax =  -1.05924719556115E+02  1.32391275128128E+00
(PID.TID 0000.0001)  ploadbar=  1.01017561220352E+05
 cg2d: Sum(rhs),rhsMax =  -1.07269814663962E+02  1.30721190538598E+00
(PID.TID 0000.0001)  ploadbar=  1.01018482032866E+05
 cg2d: Sum(rhs),rhsMax =  -1.08624248868266E+02  1.29085123665552E+00
(PID.TID 0000.0001)  ploadbar=  1.01019402845380E+05
 cg2d: Sum(rhs),rhsMax =  -1.10010322059259E+02  1.27455383003977E+00
(PID.TID 0000.0001)  ploadbar=  1.01020323657894E+05
 cg2d: Sum(rhs),rhsMax =  -1.11433465064397E+02  1.25826812403885E+00
(PID.TID 0000.0001)  ploadbar=  1.01021244470408E+05
 cg2d: Sum(rhs),rhsMax =  -1.12902028899098E+02  1.24191907038329E+00
(PID.TID 0000.0001)  ploadbar=  1.01022165282922E+05
 cg2d: Sum(rhs),rhsMax =  -1.13828232777879E+02  1.23185637445592E+00
(PID.TID 0000.0001)  ploadbar=  1.01023086095436E+05
 cg2d: Sum(rhs),rhsMax =  -1.13813969301676E+02  1.23205753699392E+00
(PID.TID 0000.0001)  ploadbar=  1.01023125635523E+05
 cg2d: Sum(rhs),rhsMax =  -1.14144508669757E+02  1.22853225339968E+00
(PID.TID 0000.0001)  ploadbar=  1.01023165175611E+05
 cg2d: Sum(rhs),rhsMax =  -1.14802366000695E+02  1.22153576537151E+00
(PID.TID 0000.0001)  ploadbar=  1.01023204715698E+05
 cg2d: Sum(rhs),rhsMax =  -1.15723875704595E+02  1.21185383549685E+00
(PID.TID 0000.0001)  ploadbar=  1.01023244255786E+05
 cg2d: Sum(rhs),rhsMax =  -1.16855966426136E+02  1.20015554340048E+00
(PID.TID 0000.0001)  ploadbar=  1.01023283795873E+05
 cg2d: Sum(rhs),rhsMax =  -1.18172979950743E+02  1.18681459253239E+00
(PID.TID 0000.0001)  ploadbar=  1.01023323335961E+05
 cg2d: Sum(rhs),rhsMax =  -1.18625129557323E+02  1.18233108005994E+00
(PID.TID 0000.0001)  ploadbar=  1.01023021048700E+05
 cg2d: Sum(rhs),rhsMax =  -1.18740435406066E+02  1.18122012407709E+00
(PID.TID 0000.0001)  ploadbar=  1.01022718761439E+05
 cg2d: Sum(rhs),rhsMax =  -1.18950067669710E+02  1.17916948887170E+00
(PID.TID 0000.0001)  ploadbar=  1.01022416474178E+05
 cg2d: Sum(rhs),rhsMax =  -1.19246980479769E+02  1.17625761457755E+00
(PID.TID 0000.0001)  ploadbar=  1.01022114186918E+05
 cg2d: Sum(rhs),rhsMax =  -1.18384659593759E+02  1.18483596174658E+00
(PID.TID 0000.0001)  ploadbar=  1.01021811899657E+05
 cg2d: Sum(rhs),rhsMax =  -1.17017948328929E+02  1.19867791494929E+00
(PID.TID 0000.0001)  ploadbar=  1.01021509612396E+05
 cg2d: Sum(rhs),rhsMax =  -1.15780462940267E+02  1.21148528920073E+00
(PID.TID 0000.0001)  ploadbar=  1.01021851840618E+05
 cg2d: Sum(rhs),rhsMax =  -1.14686714933045E+02  1.22299761053042E+00
(PID.TID 0000.0001)  ploadbar=  1.01022194068840E+05
 cg2d: Sum(rhs),rhsMax =  -1.13732360954347E+02  1.23317604708774E+00
(PID.TID 0000.0001)  ploadbar=  1.01022536297061E+05
 cg2d: Sum(rhs),rhsMax =  -1.12891363516944E+02  1.24223837530191E+00
(PID.TID 0000.0001)  ploadbar=  1.01022878525283E+05
 cg2d: Sum(rhs),rhsMax =  -1.12150497674666E+02  1.25028290446701E+00
(PID.TID 0000.0001)  ploadbar=  1.01023220753505E+05
 cg2d: Sum(rhs),rhsMax =  -1.11491486524318E+02  1.25747637773403E+00
(PID.TID 0000.0001)  ploadbar=  1.01023562981726E+05
 cg2d: Sum(rhs),rhsMax =  -1.10814962937199E+02  1.26500209881175E+00
(PID.TID 0000.0001)  ploadbar=  1.01023835710298E+05
 cg2d: Sum(rhs),rhsMax =  -1.10079963317138E+02  1.27332542562173E+00
(PID.TID 0000.0001)  ploadbar=  1.01024108438870E+05
 cg2d: Sum(rhs),rhsMax =  -1.09265762274079E+02  1.28271446443637E+00
(PID.TID 0000.0001)  ploadbar=  1.01024381167442E+05
 cg2d: Sum(rhs),rhsMax =  -1.08429834251627E+02  1.29253196832577E+00
(PID.TID 0000.0001)  ploadbar=  1.01024653896013E+05
 cg2d: Sum(rhs),rhsMax =  -1.07617578077436E+02  1.30224478574078E+00
(PID.TID 0000.0001)  ploadbar=  1.01024926624585E+05
 cg2d: Sum(rhs),rhsMax =  -1.06856045444634E+02  1.31150870056328E+00
(PID.TID 0000.0001)  ploadbar=  1.01025199353157E+05
 cg2d: Sum(rhs),rhsMax =  -1.06192691183035E+02  1.31970547020156E+00
(PID.TID 0000.0001)  ploadbar=  1.01026171224154E+05
 cg2d: Sum(rhs),rhsMax =  -1.05638525343577E+02  1.32664279913719E+00
(PID.TID 0000.0001)  ploadbar=  1.01027143095150E+05
 cg2d: Sum(rhs),rhsMax =  -1.05166740932294E+02  1.33261444689003E+00
(PID.TID 0000.0001)  ploadbar=  1.01028114966147E+05
 cg2d: Sum(rhs),rhsMax =  -1.04744288151712E+02  1.33801650452485E+00
(PID.TID 0000.0001)  ploadbar=  1.01029086837144E+05
 cg2d: Sum(rhs),rhsMax =  -1.04326256681555E+02  1.34341259335538E+00
(PID.TID 0000.0001)  ploadbar=  1.01030058708141E+05
 cg2d: Sum(rhs),rhsMax =  -1.03896646062183E+02  1.34900721456552E+00
(PID.TID 0000.0001)  ploadbar=  1.01031030579138E+05
 cg2d: Sum(rhs),rhsMax =  -1.03432146357770E+02  1.35509548286738E+00
(PID.TID 0000.0001)  ploadbar=  1.01031954661854E+05
 cg2d: Sum(rhs),rhsMax =  -1.02912776185120E+02  1.36194301760775E+00
(PID.TID 0000.0001)  ploadbar=  1.01032878744570E+05
 cg2d: Sum(rhs),rhsMax =  -1.02352000556307E+02  1.36938750642925E+00
(PID.TID 0000.0001)  ploadbar=  1.01033802827286E+05
 cg2d: Sum(rhs),rhsMax =  -1.01756989684045E+02  1.37734991872576E+00
(PID.TID 0000.0001)  ploadbar=  1.01034726910001E+05
 cg2d: Sum(rhs),rhsMax =  -1.01151473987018E+02  1.38551337946555E+00
(PID.TID 0000.0001)  ploadbar=  1.01035650992717E+05
 cg2d: Sum(rhs),rhsMax =  -1.00595293483016E+02  1.39305471065123E+00
(PID.TID 0000.0001)  ploadbar=  1.01036575075433E+05
 cg2d: Sum(rhs),rhsMax =  -1.00031963069527E+02  1.40076666122042E+00
(PID.TID 0000.0001)  ploadbar=  1.01037786881868E+05
 cg2d: Sum(rhs),rhsMax =  -9.95490451217908E+01  1.40739098568134E+00
(PID.TID 0000.0001)  ploadbar=  1.01038998688302E+05
 cg2d: Sum(rhs),rhsMax =  -9.91637809842271E+01  1.41264406329740E+00
(PID.TID 0000.0001)  ploadbar=  1.01040210494737E+05
 cg2d: Sum(rhs),rhsMax =  -9.88767508059083E+01  1.41648451818661E+00
(PID.TID 0000.0001)  ploadbar=  1.01041422301172E+05
 cg2d: Sum(rhs),rhsMax =  -9.86595249835920E+01  1.41929916085235E+00
(PID.TID 0000.0001)  ploadbar=  1.01042634107607E+05
 cg2d: Sum(rhs),rhsMax =  -9.84891322967386E+01  1.42141098807771E+00
(PID.TID 0000.0001)  ploadbar=  1.01043845914042E+05
 cg2d: Sum(rhs),rhsMax =  -9.83305578221487E+01  1.42341443457021E+00
(PID.TID 0000.0001)  ploadbar=  1.01044941467327E+05
 cg2d: Sum(rhs),rhsMax =  -9.81863607905071E+01  1.42525092169470E+00
(PID.TID 0000.0001)  ploadbar=  1.01046037020612E+05
 cg2d: Sum(rhs),rhsMax =  -9.80617601380374E+01  1.42684072506700E+00
(PID.TID 0000.0001)  ploadbar=  1.01047132573897E+05
 cg2d: Sum(rhs),rhsMax =  -9.79630107684294E+01  1.42809459917450E+00
(PID.TID 0000.0001)  ploadbar=  1.01048228127182E+05
 cg2d: Sum(rhs),rhsMax =  -9.79038264618865E+01  1.42882172333248E+00
(PID.TID 0000.0001)  ploadbar=  1.01049323680466E+05
 cg2d: Sum(rhs),rhsMax =  -9.79006958843412E+01  1.42879023019494E+00
(PID.TID 0000.0001)  ploadbar=  1.01050419233751E+05
 cg2d: Sum(rhs),rhsMax =  -9.80877704051376E+01  1.42603073326451E+00
(PID.TID 0000.0001)  ploadbar=  1.01050632295125E+05
 cg2d: Sum(rhs),rhsMax =  -9.82545579776216E+01  1.42359560634265E+00
(PID.TID 0000.0001)  ploadbar=  1.01050845356499E+05
 cg2d: Sum(rhs),rhsMax =  -9.84812867371681E+01  1.42031739362179E+00
(PID.TID 0000.0001)  ploadbar=  1.01051058417872E+05
 cg2d: Sum(rhs),rhsMax =  -9.87971972399056E+01  1.41578572521519E+00
(PID.TID 0000.0001)  ploadbar=  1.01051271479246E+05
 cg2d: Sum(rhs),rhsMax =  -9.91462717697689E+01  1.41081645516032E+00
(PID.TID 0000.0001)  ploadbar=  1.01051484540619E+05
 cg2d: Sum(rhs),rhsMax =  -9.95107890562165E+01  1.40566514379148E+00
(PID.TID 0000.0001)  ploadbar=  1.01051697601993E+05
 cg2d: Sum(rhs),rhsMax =  -9.98216715887845E+01  1.40130765928164E+00
(PID.TID 0000.0001)  ploadbar=  1.01052125351764E+05
 cg2d: Sum(rhs),rhsMax =  -1.00016599104913E+02  1.39859134981727E+00
(PID.TID 0000.0001)  ploadbar=  1.01052553101535E+05
 cg2d: Sum(rhs),rhsMax =  -1.00116055568306E+02  1.39721122848125E+00
(PID.TID 0000.0001)  ploadbar=  1.01052980851306E+05
 cg2d: Sum(rhs),rhsMax =  -1.00136967495558E+02  1.39691925017283E+00
(PID.TID 0000.0001)  ploadbar=  1.01053408601077E+05
 cg2d: Sum(rhs),rhsMax =  -1.00110029772671E+02  1.39728206124170E+00
(PID.TID 0000.0001)  ploadbar=  1.01053836350848E+05
 cg2d: Sum(rhs),rhsMax =  -1.00089341862880E+02  1.39754211966559E+00
(PID.TID 0000.0001)  ploadbar=  1.01054264100619E+05
 cg2d: Sum(rhs),rhsMax =  -1.00109574380243E+02  1.39721777895126E+00
(PID.TID 0000.0001)  ploadbar=  1.01054417503460E+05
 cg2d: Sum(rhs),rhsMax =  -1.00187281825008E+02  1.39606118238518E+00
(PID.TID 0000.0001)  ploadbar=  1.01054570906301E+05
 cg2d: Sum(rhs),rhsMax =  -1.00304315516541E+02  1.39432402045241E+00
(PID.TID 0000.0001)  ploadbar=  1.01054724309143E+05
 cg2d: Sum(rhs),rhsMax =  -1.00438714756383E+02  1.39231408949852E+00
(PID.TID 0000.0001)  ploadbar=  1.01054877711984E+05
 cg2d: Sum(rhs),rhsMax =  -1.00560537959544E+02  1.39044522456830E+00
(PID.TID 0000.0001)  ploadbar=  1.01055031114825E+05
 cg2d: Sum(rhs),rhsMax =  -1.00646217750909E+02  1.38903991332865E+00
(PID.TID 0000.0001)  ploadbar=  1.01055184517667E+05
 cg2d: Sum(rhs),rhsMax =  -1.00705837714734E+02  1.38804106357219E+00
(PID.TID 0000.0001)  ploadbar=  1.01055832862900E+05
 cg2d: Sum(rhs),rhsMax =  -1.00679160669766E+02  1.38826035737720E+00
(PID.TID 0000.0001)  ploadbar=  1.01056481208134E+05
 cg2d: Sum(rhs),rhsMax =  -1.00559337416985E+02  1.38979312557542E+00
(PID.TID 0000.0001)  ploadbar=  1.01057129553368E+05
 cg2d: Sum(rhs),rhsMax =  -1.00385796455277E+02  1.39210467122069E+00
(PID.TID 0000.0001)  ploadbar=  1.01057777898602E+05
 cg2d: Sum(rhs),rhsMax =  -1.00194973927915E+02  1.39470839538861E+00
(PID.TID 0000.0001)  ploadbar=  1.01058426243835E+05
 cg2d: Sum(rhs),rhsMax =  -1.00035783795253E+02  1.39693557754412E+00
(PID.TID 0000.0001)  ploadbar=  1.01059074589069E+05
 cg2d: Sum(rhs),rhsMax =  -1.00003061673989E+02  1.39744294724582E+00
(PID.TID 0000.0001)  ploadbar=  1.01060024701810E+05
 cg2d: Sum(rhs),rhsMax =  -1.00081087307161E+02  1.39641463429269E+00
(PID.TID 0000.0001)  ploadbar=  1.01060974814551E+05
 cg2d: Sum(rhs),rhsMax =  -1.00282728051366E+02  1.39367932547952E+00
(PID.TID 0000.0001)  ploadbar=  1.01061924927292E+05
 cg2d: Sum(rhs),rhsMax =  -1.00670206594132E+02  1.38839904741296E+00
(PID.TID 0000.0001)  ploadbar=  1.01062875040033E+05
 cg2d: Sum(rhs),rhsMax =  -1.01240884540298E+02  1.38066958632225E+00
(PID.TID 0000.0001)  ploadbar=  1.01063825152774E+05
 cg2d: Sum(rhs),rhsMax =  -1.01932528568363E+02  1.37140007461429E+00
(PID.TID 0000.0001)  ploadbar=  1.01064775265514E+05
 cg2d: Sum(rhs),rhsMax =  -1.02674992233302E+02  1.36156646853906E+00
(PID.TID 0000.0001)  ploadbar=  1.01065732532221E+05
 cg2d: Sum(rhs),rhsMax =  -1.02453778664588E+02  1.36456655926014E+00
(PID.TID 0000.0001)  ploadbar=  1.01066689798928E+05
 cg2d: Sum(rhs),rhsMax =  -1.01403182380783E+02  1.37874248715164E+00
(PID.TID 0000.0001)  ploadbar=  1.01067647065634E+05
 cg2d: Sum(rhs),rhsMax =  -1.00521616657519E+02  1.39085302653357E+00
(PID.TID 0000.0001)  ploadbar=  1.01068604332341E+05
 cg2d: Sum(rhs),rhsMax =  -9.98016485207541E+01  1.40088356226281E+00
(PID.TID 0000.0001)  ploadbar=  1.01069561599048E+05
 cg2d: Sum(rhs),rhsMax =  -9.92189054019905E+01  1.40907686799461E+00
(PID.TID 0000.0001)  ploadbar=  1.01070518865754E+05
 cg2d: Sum(rhs),rhsMax =  -9.90176814858694E+01  1.41188982822413E+00
(PID.TID 0000.0001)  ploadbar=  1.01071487658011E+05
 cg2d: Sum(rhs),rhsMax =  -9.91567797658959E+01  1.40983090080904E+00
(PID.TID 0000.0001)  ploadbar=  1.01072456450268E+05
 cg2d: Sum(rhs),rhsMax =  -9.95922325952366E+01  1.40355532933377E+00
(PID.TID 0000.0001)  ploadbar=  1.01073425242526E+05
 cg2d: Sum(rhs),rhsMax =  -1.00278685774290E+02  1.39380886884484E+00
(PID.TID 0000.0001)  ploadbar=  1.01074394034783E+05
 cg2d: Sum(rhs),rhsMax =  -1.01169269212786E+02  1.38137763338847E+00
(PID.TID 0000.0001)  ploadbar=  1.01075362827040E+05
 cg2d: Sum(rhs),rhsMax =  -1.02237046287315E+02  1.36676257429006E+00
(PID.TID 0000.0001)  ploadbar=  1.01076331619297E+05
 cg2d: Sum(rhs),rhsMax =  -1.03502483765447E+02  1.34991707627026E+00
(PID.TID 0000.0001)  ploadbar=  1.01077076329857E+05
 cg2d: Sum(rhs),rhsMax =  -1.05057925303936E+02  1.32982687333654E+00
(PID.TID 0000.0001)  ploadbar=  1.01077821040416E+05
 cg2d: Sum(rhs),rhsMax =  -1.06755498468948E+02  1.30860153474894E+00
(PID.TID 0000.0001)  ploadbar=  1.01078565750976E+05
 cg2d: Sum(rhs),rhsMax =  -1.06580155183122E+02  1.31069850703243E+00
(PID.TID 0000.0001)  ploadbar=  1.01079310461536E+05
 cg2d: Sum(rhs),rhsMax =  -1.06200401226539E+02  1.31536758354727E+00
(PID.TID 0000.0001)  ploadbar=  1.01080055172095E+05
 cg2d: Sum(rhs),rhsMax =  -1.05784048758356E+02  1.32058792741208E+00
(PID.TID 0000.0001)  ploadbar=  1.01080799882655E+05
 cg2d: Sum(rhs),rhsMax =  -1.05421624327592E+02  1.32519166251557E+00
(PID.TID 0000.0001)  ploadbar=  1.01081911663028E+05
 cg2d: Sum(rhs),rhsMax =  -1.05174427173479E+02  1.32837255851017E+00
(PID.TID 0000.0001)  ploadbar=  1.01083023443400E+05
 cg2d: Sum(rhs),rhsMax =  -1.05076560777214E+02  1.32968243444327E+00
(PID.TID 0000.0001)  ploadbar=  1.01084135223773E+05
 cg2d: Sum(rhs),rhsMax =  -1.05091247076308E+02  1.32958122990019E+00
(PID.TID 0000.0001)  ploadbar=  1.01085247004145E+05
 cg2d: Sum(rhs),rhsMax =  -1.05162308644112E+02  1.32877689132597E+00
(PID.TID 0000.0001)  ploadbar=  1.01086358784518E+05
 cg2d: Sum(rhs),rhsMax =  -1.05231427831961E+02  1.32799824023498E+00
(PID.TID 0000.0001)  ploadbar=  1.01087470564890E+05
 cg2d: Sum(rhs),rhsMax =  -1.05261112120363E+02  1.32773484165576E+00
(PID.TID 0000.0001)  ploadbar=  1.01088679107958E+05
 cg2d: Sum(rhs),rhsMax =  -1.05198040671589E+02  1.32865158940650E+00
(PID.TID 0000.0001)  ploadbar=  1.01089887651027E+05
 cg2d: Sum(rhs),rhsMax =  -1.05027711658602E+02  1.33093852933334E+00
(PID.TID 0000.0001)  ploadbar=  1.01091096194095E+05
 cg2d: Sum(rhs),rhsMax =  -1.04731891184514E+02  1.33483599177680E+00
(PID.TID 0000.0001)  ploadbar=  1.01092304737163E+05
 cg2d: Sum(rhs),rhsMax =  -1.04375094086216E+02  1.33953536698153E+00
(PID.TID 0000.0001)  ploadbar=  1.01093513280232E+05
 cg2d: Sum(rhs),rhsMax =  -1.03997556254532E+02  1.34452491478744E+00
(PID.TID 0000.0001)  ploadbar=  1.01094721823300E+05
 cg2d: Sum(rhs),rhsMax =  -1.03665907768279E+02  1.34893433896473E+00
(PID.TID 0000.0001)  ploadbar=  1.01095371102940E+05
 cg2d: Sum(rhs),rhsMax =  -1.03396184569451E+02  1.35252982901662E+00
(PID.TID 0000.0001)  ploadbar=  1.01096020382580E+05
 cg2d: Sum(rhs),rhsMax =  -1.03227857511858E+02  1.35477404188452E+00
(PID.TID 0000.0001)  ploadbar=  1.01096669662220E+05
 cg2d: Sum(rhs),rhsMax =  -1.03168322898196E+02  1.35555655606546E+00
(PID.TID 0000.0001)  ploadbar=  1.01097318941861E+05
 cg2d: Sum(rhs),rhsMax =  -1.03185817191958E+02  1.35529141228069E+00
(PID.TID 0000.0001)  ploadbar=  1.01097968221501E+05
 cg2d: Sum(rhs),rhsMax =  -1.03273468238624E+02  1.35407098977552E+00
(PID.TID 0000.0001)  ploadbar=  1.01098617501141E+05
 cg2d: Sum(rhs),rhsMax =  -1.03456582450556E+02  1.35165318886199E+00
(PID.TID 0000.0001)  ploadbar=  1.01099430925222E+05
 cg2d: Sum(rhs),rhsMax =  -1.03670459390242E+02  1.34887115033509E+00
(PID.TID 0000.0001)  ploadbar=  1.01100244349304E+05
 cg2d: Sum(rhs),rhsMax =  -1.03857826528459E+02  1.34647335136245E+00
(PID.TID 0000.0001)  ploadbar=  1.01101057773385E+05
 cg2d: Sum(rhs),rhsMax =  -1.04013371143848E+02  1.34452946618887E+00
(PID.TID 0000.0001)  ploadbar=  1.01101871197466E+05
 cg2d: Sum(rhs),rhsMax =  -1.04126470420362E+02  1.34317750858090E+00
(PID.TID 0000.0001)  ploadbar=  1.01102684621547E+05
 cg2d: Sum(rhs),rhsMax =  -1.04204415963366E+02  1.34231853010165E+00
(PID.TID 0000.0001)  ploadbar=  1.01103498045629E+05
 cg2d: Sum(rhs),rhsMax =  -1.04268857324027E+02  1.34165173903809E+00
(PID.TID 0000.0001)  ploadbar=  1.01103703119546E+05
 cg2d: Sum(rhs),rhsMax =  -1.04328585235735E+02  1.34104697150269E+00
(PID.TID 0000.0001)  ploadbar=  1.01103908193462E+05
 cg2d: Sum(rhs),rhsMax =  -1.04380289112530E+02  1.34055166937482E+00
(PID.TID 0000.0001)  ploadbar=  1.01104113267379E+05
 cg2d: Sum(rhs),rhsMax =  -1.04479311874629E+02  1.33945510654085E+00
(PID.TID 0000.0001)  ploadbar=  1.01104318341296E+05
 cg2d: Sum(rhs),rhsMax =  -1.04685716426373E+02  1.33698762015301E+00
(PID.TID 0000.0001)  ploadbar=  1.01104523415213E+05
 cg2d: Sum(rhs),rhsMax =  -1.04953141728831E+02  1.33374820901488E+00
(PID.TID 0000.0001)  ploadbar=  1.01104728489130E+05
 cg2d: Sum(rhs),rhsMax =  -1.05184686402520E+02  1.33097151084805E+00
(PID.TID 0000.0001)  ploadbar=  1.01105199167165E+05
 cg2d: Sum(rhs),rhsMax =  -1.05370669958848E+02  1.32876535364967E+00
(PID.TID 0000.0001)  ploadbar=  1.01105669845201E+05
 cg2d: Sum(rhs),rhsMax =  -1.05458733115330E+02  1.32778215119470E+00
(PID.TID 0000.0001)  ploadbar=  1.01106140523236E+05
 cg2d: Sum(rhs),rhsMax =  -1.05431965605339E+02  1.32822802128763E+00
(PID.TID 0000.0001)  ploadbar=  1.01106611201272E+05
 cg2d: Sum(rhs),rhsMax =  -1.05290120897854E+02  1.33010456533921E+00
(PID.TID 0000.0001)  ploadbar=  1.01107081879307E+05
 cg2d: Sum(rhs),rhsMax =  -1.05025914358165E+02  1.33350365186663E+00
(PID.TID 0000.0001)  ploadbar=  1.01107552557343E+05
 cg2d: Sum(rhs),rhsMax =  -1.04666926889512E+02  1.33812219467762E+00
(PID.TID 0000.0001)  ploadbar=  1.01107038172342E+05
 cg2d: Sum(rhs),rhsMax =  -1.04327869130212E+02  1.34249841699337E+00
(PID.TID 0000.0001)  ploadbar=  1.01106523787342E+05
 cg2d: Sum(rhs),rhsMax =  -1.04007123500722E+02  1.34664451782747E+00
(PID.TID 0000.0001)  ploadbar=  1.01106009402342E+05
 cg2d: Sum(rhs),rhsMax =  -1.03681689179899E+02  1.35085564452088E+00
(PID.TID 0000.0001)  ploadbar=  1.01105495017342E+05
 cg2d: Sum(rhs),rhsMax =  -1.03370001100397E+02  1.35489161082183E+00
(PID.TID 0000.0001)  ploadbar=  1.01104980632342E+05
 cg2d: Sum(rhs),rhsMax =  -1.03113301074849E+02  1.35820398927559E+00
(PID.TID 0000.0001)  ploadbar=  1.01104466247342E+05
 cg2d: Sum(rhs),rhsMax =  -1.02917115874822E+02  1.36079508792782E+00
(PID.TID 0000.0001)  ploadbar=  1.01104112476018E+05
 cg2d: Sum(rhs),rhsMax =  -1.02753525896946E+02  1.36300186065051E+00
(PID.TID 0000.0001)  ploadbar=  1.01103758704693E+05
 cg2d: Sum(rhs),rhsMax =  -1.02625954079012E+02  1.36477323463140E+00
(PID.TID 0000.0001)  ploadbar=  1.01103404933368E+05
 cg2d: Sum(rhs),rhsMax =  -1.02520027747189E+02  1.36629766734620E+00
(PID.TID 0000.0001)  ploadbar=  1.01103051162044E+05
 cg2d: Sum(rhs),rhsMax =  -1.02432267962770E+02  1.36762141892975E+00
(PID.TID 0000.0001)  ploadbar=  1.01102697390719E+05
 cg2d: Sum(rhs),rhsMax =  -1.02378439880274E+02  1.36854988395457E+00
(PID.TID 0000.0001)  ploadbar=  1.01102343619395E+05
 cg2d: Sum(rhs),rhsMax =  -1.02374292390875E+02  1.36883690302949E+00
(PID.TID 0000.0001)  ploadbar=  1.01101332667425E+05
 cg2d: Sum(rhs),rhsMax =  -1.02413910741707E+02  1.36854510775089E+00
(PID.TID 0000.0001)  ploadbar=  1.01100321715456E+05
 cg2d: Sum(rhs),rhsMax =  -1.02523404729310E+02  1.36732839057079E+00
(PID.TID 0000.0001)  ploadbar=  1.01099310763487E+05
 cg2d: Sum(rhs),rhsMax =  -1.02685682073689E+02  1.36541635752877E+00
(PID.TID 0000.0001)  ploadbar=  1.01098299811517E+05
 cg2d: Sum(rhs),rhsMax =  -1.02875870818265E+02  1.36313470017739E+00
(PID.TID 0000.0001)  ploadbar=  1.01097288859548E+05
 cg2d: Sum(rhs),rhsMax =  -1.03074055616861E+02  1.36074414998755E+00
(PID.TID 0000.0001)  ploadbar=  1.01096277907579E+05
 cg2d: Sum(rhs),rhsMax =  -1.03331935357155E+02  1.35756777376487E+00
(PID.TID 0000.0001)  ploadbar=  1.01094518388269E+05
 cg2d: Sum(rhs),rhsMax =  -1.03568719030291E+02  1.35466520399308E+00
(PID.TID 0000.0001)  ploadbar=  1.01092758868959E+05
 cg2d: Sum(rhs),rhsMax =  -1.03761058696297E+02  1.35233768706055E+00
(PID.TID 0000.0001)  ploadbar=  1.01090999349649E+05
 cg2d: Sum(rhs),rhsMax =  -1.03892027540660E+02  1.35079915405586E+00
(PID.TID 0000.0001)  ploadbar=  1.01089239830339E+05
 cg2d: Sum(rhs),rhsMax =  -1.03974649608632E+02  1.34986790647270E+00
(PID.TID 0000.0001)  ploadbar=  1.01087480311030E+05
 cg2d: Sum(rhs),rhsMax =  -1.04123596275645E+02  1.34804811139304E+00
(PID.TID 0000.0001)  ploadbar=  1.01085720791720E+05
 cg2d: Sum(rhs),rhsMax =  -1.04251228336256E+02  1.34650998792510E+00
(PID.TID 0000.0001)  ploadbar=  1.01084030024133E+05
 cg2d: Sum(rhs),rhsMax =  -1.04330238452915E+02  1.34559323360931E+00
(PID.TID 0000.0001)  ploadbar=  1.01082339256547E+05
 cg2d: Sum(rhs),rhsMax =  -1.04399833755477E+02  1.34478552385393E+00
(PID.TID 0000.0001)  ploadbar=  1.01080648488960E+05
 cg2d: Sum(rhs),rhsMax =  -1.04542101968624E+02  1.34302876953958E+00
(PID.TID 0000.0001)  ploadbar=  1.01078957721374E+05
 cg2d: Sum(rhs),rhsMax =  -1.04785116880716E+02  1.33996768173842E+00
(PID.TID 0000.0001)  ploadbar=  1.01077266953787E+05
 cg2d: Sum(rhs),rhsMax =  -1.05152700524163E+02  1.33531323073479E+00
(PID.TID 0000.0001)  ploadbar=  1.01075576186201E+05
 cg2d: Sum(rhs),rhsMax =  -1.05628601020455E+02  1.32937499300142E+00
(PID.TID 0000.0001)  ploadbar=  1.01074345200349E+05
 cg2d: Sum(rhs),rhsMax =  -1.06281455029660E+02  1.32131258832998E+00
(PID.TID 0000.0001)  ploadbar=  1.01073114214496E+05
 cg2d: Sum(rhs),rhsMax =  -1.05855811271850E+02  1.32675384752013E+00
(PID.TID 0000.0001)  ploadbar=  1.01071883228644E+05
 cg2d: Sum(rhs),rhsMax =  -1.05007829601857E+02  1.33762016428443E+00
(PID.TID 0000.0001)  ploadbar=  1.01070652242792E+05
 cg2d: Sum(rhs),rhsMax =  -1.04215023302949E+02  1.34796833479843E+00
(PID.TID 0000.0001)  ploadbar=  1.01069421256940E+05
 cg2d: Sum(rhs),rhsMax =  -1.03505048868687E+02  1.35741029387048E+00
(PID.TID 0000.0001)  ploadbar=  1.01068190271088E+05
 cg2d: Sum(rhs),rhsMax =  -1.02918192208633E+02  1.36537662251584E+00
(PID.TID 0000.0001)  ploadbar=  1.01068201800849E+05
 cg2d: Sum(rhs),rhsMax =  -1.02475314761286E+02  1.37152408351244E+00
(PID.TID 0000.0001)  ploadbar=  1.01068213330611E+05
 cg2d: Sum(rhs),rhsMax =  -1.02185682852914E+02  1.37567587256599E+00
(PID.TID 0000.0001)  ploadbar=  1.01068224860372E+05
 cg2d: Sum(rhs),rhsMax =  -1.02096426571584E+02  1.37715768531826E+00
(PID.TID 0000.0001)  ploadbar=  1.01068236390134E+05
 cg2d: Sum(rhs),rhsMax =  -1.02172116519846E+02  1.37642432438901E+00
(PID.TID 0000.0001)  ploadbar=  1.01068247919895E+05
 cg2d: Sum(rhs),rhsMax =  -1.02400336237879E+02  1.37364028505650E+00
(PID.TID 0000.0001)  ploadbar=  1.01068259449657E+05
 cg2d: Sum(rhs),rhsMax =  -1.02701122245362E+02  1.36988882741410E+00
(PID.TID 0000.0001)  ploadbar=  1.01067693816830E+05
 cg2d: Sum(rhs),rhsMax =  -1.03022292753361E+02  1.36586731124890E+00
(PID.TID 0000.0001)  ploadbar=  1.01067128184004E+05
 cg2d: Sum(rhs),rhsMax =  -1.03364080213471E+02  1.36157445151531E+00
(PID.TID 0000.0001)  ploadbar=  1.01066562551178E+05
 cg2d: Sum(rhs),rhsMax =  -1.03763522583863E+02  1.35653127772607E+00
(PID.TID 0000.0001)  ploadbar=  1.01065996918351E+05
 cg2d: Sum(rhs),rhsMax =  -1.04206647978936E+02  1.35093226007506E+00
(PID.TID 0000.0001)  ploadbar=  1.01065431285525E+05
 cg2d: Sum(rhs),rhsMax =  -1.04680576489044E+02  1.34495399586748E+00
(PID.TID 0000.0001)  ploadbar=  1.01064865652699E+05
 cg2d: Sum(rhs),rhsMax =  -1.05139647030685E+02  1.33920962650362E+00
(PID.TID 0000.0001)  ploadbar=  1.01065165672544E+05
 cg2d: Sum(rhs),rhsMax =  -1.05522326676065E+02  1.33445556136685E+00
(PID.TID 0000.0001)  ploadbar=  1.01065465692388E+05
 cg2d: Sum(rhs),rhsMax =  -1.05815815262092E+02  1.33082716721785E+00
(PID.TID 0000.0001)  ploadbar=  1.01065765712233E+05
 cg2d: Sum(rhs),rhsMax =  -1.06095470533446E+02  1.32736211438404E+00
(PID.TID 0000.0001)  ploadbar=  1.01066065732078E+05
 cg2d: Sum(rhs),rhsMax =  -1.06469107293341E+02  1.32271332074136E+00
(PID.TID 0000.0001)  ploadbar=  1.01066365751923E+05
 cg2d: Sum(rhs),rhsMax =  -1.06935703010314E+02  1.31691329511727E+00
(PID.TID 0000.0001)  ploadbar=  1.01066665771768E+05
 cg2d: Sum(rhs),rhsMax =  -1.07314028563556E+02  1.31228095541061E+00
(PID.TID 0000.0001)  ploadbar=  1.01067705448289E+05
 cg2d: Sum(rhs),rhsMax =  -1.07537643120113E+02  1.30958101142595E+00
(PID.TID 0000.0001)  ploadbar=  1.01068745124810E+05
 cg2d: Sum(rhs),rhsMax =  -1.07679614520222E+02  1.30790145187962E+00
(PID.TID 0000.0001)  ploadbar=  1.01069784801331E+05
 cg2d: Sum(rhs),rhsMax =  -1.07775486349497E+02  1.30680375379161E+00
(PID.TID 0000.0001)  ploadbar=  1.01070824477851E+05
 cg2d: Sum(rhs),rhsMax =  -1.07913120083560E+02  1.30521709918287E+00
(PID.TID 0000.0001)  ploadbar=  1.01071864154372E+05
 cg2d: Sum(rhs),rhsMax =  -1.08092850877001E+02  1.30313790947006E+00
(PID.TID 0000.0001)  ploadbar=  1.01072903830893E+05
 cg2d: Sum(rhs),rhsMax =  -1.08358240261722E+02  1.30004632090884E+00
(PID.TID 0000.0001)  ploadbar=  1.01073676514122E+05
 cg2d: Sum(rhs),rhsMax =  -1.08696854211341E+02  1.29609781745833E+00
(PID.TID 0000.0001)  ploadbar=  1.01074449197350E+05
 cg2d: Sum(rhs),rhsMax =  -1.09098520916448E+02  1.29142683220865E+00
(PID.TID 0000.0001)  ploadbar=  1.01075221880579E+05
 cg2d: Sum(rhs),rhsMax =  -1.09544070876018E+02  1.28626999794487E+00
(PID.TID 0000.0001)  ploadbar=  1.01075994563807E+05
 cg2d: Sum(rhs),rhsMax =  -1.10031854751403E+02  1.28064869020995E+00
(PID.TID 0000.0001)  ploadbar=  1.01076767247035E+05
 cg2d: Sum(rhs),rhsMax =  -1.10619887719886E+02  1.27390094521269E+00
(PID.TID 0000.0001)  ploadbar=  1.01077539930264E+05
 cg2d: Sum(rhs),rhsMax =  -1.11210356269961E+02  1.26719441403264E+00
(PID.TID 0000.0001)  ploadbar=  1.01077942405293E+05
 cg2d: Sum(rhs),rhsMax =  -1.11745098993821E+02  1.26117605112681E+00
(PID.TID 0000.0001)  ploadbar=  1.01078344880322E+05
 cg2d: Sum(rhs),rhsMax =  -1.12212570951946E+02  1.25595663847163E+00
(PID.TID 0000.0001)  ploadbar=  1.01078747355350E+05
 cg2d: Sum(rhs),rhsMax =  -1.12331028047377E+02  1.25465485155794E+00
(PID.TID 0000.0001)  ploadbar=  1.01079149830379E+05
 cg2d: Sum(rhs),rhsMax =  -1.12453532201258E+02  1.25329500828553E+00
(PID.TID 0000.0001)  ploadbar=  1.01079552305408E+05
 cg2d: Sum(rhs),rhsMax =  -1.12596662238806E+02  1.25168785509298E+00
(PID.TID 0000.0001)  ploadbar=  1.01079954780437E+05
 cg2d: Sum(rhs),rhsMax =  -1.12668049210136E+02  1.25086714493696E+00
(PID.TID 0000.0001)  ploadbar=  1.01080394725756E+05
 cg2d: Sum(rhs),rhsMax =  -1.12757001685380E+02  1.24982675127088E+00
(PID.TID 0000.0001)  ploadbar=  1.01080834671075E+05
 cg2d: Sum(rhs),rhsMax =  -1.12893534793842E+02  1.24822945710028E+00
(PID.TID 0000.0001)  ploadbar=  1.01081274616394E+05
 cg2d: Sum(rhs),rhsMax =  -1.13185813513469E+02  1.24488166644193E+00
(PID.TID 0000.0001)  ploadbar=  1.01081714561713E+05
 cg2d: Sum(rhs),rhsMax =  -1.13596117680015E+02  1.24021936275565E+00
(PID.TID 0000.0001)  ploadbar=  1.01082154507031E+05
 cg2d: Sum(rhs),rhsMax =  -1.14221434331888E+02  1.23322298224112E+00
(PID.TID 0000.0001)  ploadbar=  1.01082594452350E+05
 cg2d: Sum(rhs),rhsMax =  -1.14738118898496E+02  1.22752701201063E+00
(PID.TID 0000.0001)  ploadbar=  1.01082372582597E+05
 cg2d: Sum(rhs),rhsMax =  -1.15136441707191E+02  1.22318364323307E+00
(PID.TID 0000.0001)  ploadbar=  1.01082150712844E+05
 cg2d: Sum(rhs),rhsMax =  -1.15410539461538E+02  1.22022257335204E+00
(PID.TID 0000.0001)  ploadbar=  1.01081928843090E+05
 cg2d: Sum(rhs),rhsMax =  -1.15536860397327E+02  1.21887194096790E+00
(PID.TID 0000.0001)  ploadbar=  1.01081706973337E+05
 cg2d: Sum(rhs),rhsMax =  -1.15331197143854E+02  1.22106494869435E+00
(PID.TID 0000.0001)  ploadbar=  1.01081485103584E+05
 cg2d: Sum(rhs),rhsMax =  -1.15095979850229E+02  1.22361069845576E+00
(PID.TID 0000.0001)  ploadbar=  1.01081263233831E+05
 cg2d: Sum(rhs),rhsMax =  -1.14835480346189E+02  1.22642670813289E+00
(PID.TID 0000.0001)  ploadbar=  1.01081386952650E+05
 cg2d: Sum(rhs),rhsMax =  -1.14534873152793E+02  1.22966236091645E+00
(PID.TID 0000.0001)  ploadbar=  1.01081510671469E+05
 cg2d: Sum(rhs),rhsMax =  -1.14210658549681E+02  1.23314092334081E+00
(PID.TID 0000.0001)  ploadbar=  1.01081634390288E+05
 cg2d: Sum(rhs),rhsMax =  -1.13870400020976E+02  1.23678028750840E+00
(PID.TID 0000.0001)  ploadbar=  1.01081758109107E+05
 cg2d: Sum(rhs),rhsMax =  -1.13539294458371E+02  1.24030687535122E+00
(PID.TID 0000.0001)  ploadbar=  1.01081881827926E+05
 cg2d: Sum(rhs),rhsMax =  -1.13275682912646E+02  1.24308381709948E+00
(PID.TID 0000.0001)  ploadbar=  1.01082005546745E+05
 cg2d: Sum(rhs),rhsMax =  -1.12986258306138E+02  1.24617729982964E+00
(PID.TID 0000.0001)  ploadbar=  1.01082080134388E+05
 cg2d: Sum(rhs),rhsMax =  -1.12682242014428E+02  1.24945047006521E+00
(PID.TID 0000.0001)  ploadbar=  1.01082154722030E+05
 cg2d: Sum(rhs),rhsMax =  -1.12462986456001E+02  1.25180085914151E+00
(PID.TID 0000.0001)  ploadbar=  1.01082229309673E+05
 cg2d: Sum(rhs),rhsMax =  -1.12345090116622E+02  1.25303436737334E+00
(PID.TID 0000.0001)  ploadbar=  1.01082303897315E+05
 cg2d: Sum(rhs),rhsMax =  -1.12318486292139E+02  1.25325469115221E+00
(PID.TID 0000.0001)  ploadbar=  1.01082378484958E+05
 cg2d: Sum(rhs),rhsMax =  -1.12371613879592E+02  1.25258631956604E+00
(PID.TID 0000.0001)  ploadbar=  1.01082453072600E+05
 cg2d: Sum(rhs),rhsMax =  -1.12489374177972E+02  1.25119136072351E+00
(PID.TID 0000.0001)  ploadbar=  1.01081947699879E+05
 cg2d: Sum(rhs),rhsMax =  -1.12637654267354E+02  1.24942933348211E+00
(PID.TID 0000.0001)  ploadbar=  1.01081442327158E+05
 cg2d: Sum(rhs),rhsMax =  -1.12795177705452E+02  1.24753243752946E+00
(PID.TID 0000.0001)  ploadbar=  1.01080936954437E+05
 cg2d: Sum(rhs),rhsMax =  -1.13017661262865E+02  1.24488171787037E+00
(PID.TID 0000.0001)  ploadbar=  1.01080431581715E+05
 cg2d: Sum(rhs),rhsMax =  -1.13391430175936E+02  1.24053837908292E+00
(PID.TID 0000.0001)  ploadbar=  1.01079926208994E+05
 cg2d: Sum(rhs),rhsMax =  -1.13924000702138E+02  1.23445643968800E+00
(PID.TID 0000.0001)  ploadbar=  1.01079420836273E+05
 cg2d: Sum(rhs),rhsMax =  -1.14434782826285E+02  1.22872667623997E+00
(PID.TID 0000.0001)  ploadbar=  1.01077976153326E+05
 cg2d: Sum(rhs),rhsMax =  -1.14942119132658E+02  1.22313141721093E+00
(PID.TID 0000.0001)  ploadbar=  1.01076531470380E+05
 cg2d: Sum(rhs),rhsMax =  -1.15446944058351E+02  1.21764581214504E+00
(PID.TID 0000.0001)  ploadbar=  1.01075086787433E+05
 cg2d: Sum(rhs),rhsMax =  -1.15933867837287E+02  1.21242011002676E+00
(PID.TID 0000.0001)  ploadbar=  1.01073642104487E+05
 cg2d: Sum(rhs),rhsMax =  -1.16390398900556E+02  1.20757191745227E+00
(PID.TID 0000.0001)  ploadbar=  1.01072197421540E+05
 cg2d: Sum(rhs),rhsMax =  -1.16849372360484E+02  1.20274584617492E+00
(PID.TID 0000.0001)  ploadbar=  1.01070752738593E+05
 cg2d: Sum(rhs),rhsMax =  -1.17286846567481E+02  1.19816803135142E+00
(PID.TID 0000.0001)  ploadbar=  1.01069945020714E+05
 cg2d: Sum(rhs),rhsMax =  -1.17704143858679E+02  1.19381197352203E+00
(PID.TID 0000.0001)  ploadbar=  1.01069137302834E+05
 cg2d: Sum(rhs),rhsMax =  -1.18087840528809E+02  1.18980603633552E+00
(PID.TID 0000.0001)  ploadbar=  1.01068329584954E+05
 cg2d: Sum(rhs),rhsMax =  -1.18426610626825E+02  1.18626139647967E+00
(PID.TID 0000.0001)  ploadbar=  1.01067521867074E+05
 cg2d: Sum(rhs),rhsMax =  -1.18726041864816E+02  1.18311548539543E+00
(PID.TID 0000.0001)  ploadbar=  1.01066714149195E+05
 cg2d: Sum(rhs),rhsMax =  -1.19000437879703E+02  1.18021796848437E+00
(PID.TID 0000.0001)  ploadbar=  1.01065906431315E+05
 cg2d: Sum(rhs),rhsMax =  -1.19254062941427E+02  1.17756002918757E+00
(PID.TID 0000.0001)  ploadbar=  1.01066167916094E+05
 cg2d: Sum(rhs),rhsMax =  -1.19468950334235E+02  1.17530108234116E+00
(PID.TID 0000.0001)  ploadbar=  1.01066429400872E+05
 cg2d: Sum(rhs),rhsMax =  -1.19562654972769E+02  1.17424439851501E+00
(PID.TID 0000.0001)  ploadbar=  1.01066690885651E+05
 cg2d: Sum(rhs),rhsMax =  -1.18879493601178E+02  1.18086190072606E+00
(PID.TID 0000.0001)  ploadbar=  1.01066952370430E+05
 cg2d: Sum(rhs),rhsMax =  -1.18255832604939E+02  1.18696406260622E+00
(PID.TID 0000.0001)  ploadbar=  1.01067213855208E+05
 cg2d: Sum(rhs),rhsMax =  -1.17669569342229E+02  1.19274897949761E+00
(PID.TID 0000.0001)  ploadbar=  1.01067475339987E+05
 cg2d: Sum(rhs),rhsMax =  -1.17260316451839E+02  1.19676845907735E+00
(PID.TID 0000.0001)  ploadbar=  1.01067863952598E+05
 cg2d: Sum(rhs),rhsMax =  -1.16900635925152E+02  1.20027781626067E+00
(PID.TID 0000.0001)  ploadbar=  1.01068252565209E+05
 cg2d: Sum(rhs),rhsMax =  -1.16607793748733E+02  1.20308281115080E+00
(PID.TID 0000.0001)  ploadbar=  1.01068641177819E+05
 cg2d: Sum(rhs),rhsMax =  -1.16422591568935E+02  1.20474864528255E+00
(PID.TID 0000.0001)  ploadbar=  1.01069029790430E+05
 cg2d: Sum(rhs),rhsMax =  -1.16340049790531E+02  1.20531602013731E+00
(PID.TID 0000.0001)  ploadbar=  1.01069418403041E+05
 cg2d: Sum(rhs),rhsMax =  -1.16353172646859E+02  1.20485442444839E+00
(PID.TID 0000.0001)  ploadbar=  1.01069807015652E+05
 cg2d: Sum(rhs),rhsMax =  -1.16270504664960E+02  1.20544271024458E+00
(PID.TID 0000.0001)  ploadbar=  1.01069465936345E+05
 cg2d: Sum(rhs),rhsMax =  -1.16249712679030E+02  1.20542674144054E+00
(PID.TID 0000.0001)  ploadbar=  1.01069124857038E+05
 cg2d: Sum(rhs),rhsMax =  -1.16326922966197E+02  1.20441849156527E+00
(PID.TID 0000.0001)  ploadbar=  1.01068783777731E+05
 cg2d: Sum(rhs),rhsMax =  -1.16506851170230E+02  1.20236993994533E+00
(PID.TID 0000.0001)  ploadbar=  1.01068442698424E+05
 cg2d: Sum(rhs),rhsMax =  -1.16783129375819E+02  1.19935664313519E+00
(PID.TID 0000.0001)  ploadbar=  1.01068101619117E+05
 cg2d: Sum(rhs),rhsMax =  -1.17159457353925E+02  1.19535061188655E+00
(PID.TID 0000.0001)  ploadbar=  1.01067760539810E+05
 cg2d: Sum(rhs),rhsMax =  -1.17661540820046E+02  1.19011726280022E+00
(PID.TID 0000.0001)  ploadbar=  1.01067415606829E+05
 cg2d: Sum(rhs),rhsMax =  -1.18269952188547E+02  1.18387603493495E+00
(PID.TID 0000.0001)  ploadbar=  1.01067070673848E+05
 cg2d: Sum(rhs),rhsMax =  -1.19004483855943E+02  1.17646114209031E+00
(PID.TID 0000.0001)  ploadbar=  1.01066725740868E+05
 cg2d: Sum(rhs),rhsMax =  -1.19883553972881E+02  1.16773779651324E+00
(PID.TID 0000.0001)  ploadbar=  1.01066380807887E+05
 cg2d: Sum(rhs),rhsMax =  -1.20928598324457E+02  1.15755625412309E+00
(PID.TID 0000.0001)  ploadbar=  1.01066035874906E+05
 cg2d: Sum(rhs),rhsMax =  -1.22155656511055E+02  1.14584067660801E+00
(PID.TID 0000.0001)  ploadbar=  1.01065690941925E+05
 cg2d: Sum(rhs),rhsMax =  -1.19840832938260E+02  1.16789576274793E+00
(PID.TID 0000.0001)  ploadbar=  1.01065917913285E+05
 cg2d: Sum(rhs),rhsMax =  -1.17249651098929E+02  1.19362508037406E+00
(PID.TID 0000.0001)  ploadbar=  1.01066144884645E+05
 cg2d: Sum(rhs),rhsMax =  -1.14755839304294E+02  1.21947890736064E+00
(PID.TID 0000.0001)  ploadbar=  1.01066371856005E+05
 cg2d: Sum(rhs),rhsMax =  -1.12573848178810E+02  1.24302658010194E+00
(PID.TID 0000.0001)  ploadbar=  1.01066598827366E+05
 cg2d: Sum(rhs),rhsMax =  -1.11816180520370E+02  1.25135309578816E+00
(PID.TID 0000.0001)  ploadbar=  1.01066825798726E+05
 cg2d: Sum(rhs),rhsMax =  -1.11154903888706E+02  1.25867637590269E+00
(PID.TID 0000.0001)  ploadbar=  1.01067052770086E+05
 cg2d: Sum(rhs),rhsMax =  -1.10451807916933E+02  1.26656535629849E+00
(PID.TID 0000.0001)  ploadbar=  1.01066515449449E+05
 cg2d: Sum(rhs),rhsMax =  -1.09724702176365E+02  1.27482166479461E+00
(PID.TID 0000.0001)  ploadbar=  1.01065978128812E+05
 cg2d: Sum(rhs),rhsMax =  -1.08978378445413E+02  1.28339317178740E+00
(PID.TID 0000.0001)  ploadbar=  1.01065440808176E+05
 cg2d: Sum(rhs),rhsMax =  -1.08212207722709E+02  1.29229632607012E+00
(PID.TID 0000.0001)  ploadbar=  1.01064903487539E+05
 cg2d: Sum(rhs),rhsMax =  -1.07432076751286E+02  1.30147119669696E+00
(PID.TID 0000.0001)  ploadbar=  1.01064366166902E+05
 cg2d: Sum(rhs),rhsMax =  -1.06639013783622E+02  1.31091402643245E+00
(PID.TID 0000.0001)  ploadbar=  1.01063828846265E+05
 cg2d: Sum(rhs),rhsMax =  -1.05849909464816E+02  1.32050900669855E+00
(PID.TID 0000.0001)  ploadbar=  1.01062860813403E+05
 cg2d: Sum(rhs),rhsMax =  -1.05037809302205E+02  1.33057770310231E+00
(PID.TID 0000.0001)  ploadbar=  1.01061892780541E+05
 cg2d: Sum(rhs),rhsMax =  -1.03994945846487E+02  1.34380550873860E+00
(PID.TID 0000.0001)  ploadbar=  1.01060924747679E+05
 cg2d: Sum(rhs),rhsMax =  -1.03087739407290E+02  1.35554102361822E+00
(PID.TID 0000.0001)  ploadbar=  1.01059956714817E+05
 cg2d: Sum(rhs),rhsMax =  -1.02044108174845E+02  1.36933881944195E+00
(PID.TID 0000.0001)  ploadbar=  1.01058988681955E+05
 cg2d: Sum(rhs),rhsMax =  -1.01357554278659E+02  1.37857229177443E+00
(PID.TID 0000.0001)  ploadbar=  1.01058020649092E+05
 cg2d: Sum(rhs),rhsMax =  -1.00775119789538E+02  1.38649359094168E+00
(PID.TID 0000.0001)  ploadbar=  1.01056804770489E+05
 cg2d: Sum(rhs),rhsMax =  -1.00255375633169E+02  1.39362563296571E+00
(PID.TID 0000.0001)  ploadbar=  1.01055588891885E+05
 cg2d: Sum(rhs),rhsMax =  -9.97827602854373E+01  1.40016219954963E+00
(PID.TID 0000.0001)  ploadbar=  1.01054373013282E+05
 cg2d: Sum(rhs),rhsMax =  -9.93305679200142E+01  1.40645902523680E+00
(PID.TID 0000.0001)  ploadbar=  1.01053157134678E+05
 cg2d: Sum(rhs),rhsMax =  -9.88974507521943E+01  1.41252301117550E+00
(PID.TID 0000.0001)  ploadbar=  1.01051941256075E+05
 cg2d: Sum(rhs),rhsMax =  -9.84856462195140E+01  1.41831276348001E+00
(PID.TID 0000.0001)  ploadbar=  1.01050725377471E+05
 cg2d: Sum(rhs),rhsMax =  -9.81074607552997E+01  1.42369147777181E+00
(PID.TID 0000.0001)  ploadbar=  1.01050895725358E+05
 cg2d: Sum(rhs),rhsMax =  -9.77462459389419E+01  1.42888042514344E+00
(PID.TID 0000.0001)  ploadbar=  1.01051066073245E+05
 cg2d: Sum(rhs),rhsMax =  -9.74330243668138E+01  1.43341619552116E+00
(PID.TID 0000.0001)  ploadbar=  1.01051236421132E+05
 cg2d: Sum(rhs),rhsMax =  -9.71748223842992E+01  1.43717950083769E+00
(PID.TID 0000.0001)  ploadbar=  1.01051406769019E+05
 cg2d: Sum(rhs),rhsMax =  -9.69558310038229E+01  1.44038695090136E+00
(PID.TID 0000.0001)  ploadbar=  1.01051577116906E+05
 cg2d: Sum(rhs),rhsMax =  -9.68337636534778E+01  1.44215473862006E+00
(PID.TID 0000.0001)  ploadbar=  1.01051747464793E+05
 cg2d: Sum(rhs),rhsMax =  -9.69949231748009E+01  1.43969403501460E+00
(PID.TID 0000.0001)  ploadbar=  1.01051085321649E+05
 cg2d: Sum(rhs),rhsMax =  -9.74376179986280E+01  1.43305255867409E+00
(PID.TID 0000.0001)  ploadbar=  1.01050423178505E+05
 cg2d: Sum(rhs),rhsMax =  -9.81378567087497E+01  1.42268463685915E+00
(PID.TID 0000.0001)  ploadbar=  1.01049761035361E+05
 cg2d: Sum(rhs),rhsMax =  -9.90788842996558E+01  1.40898812446870E+00
(PID.TID 0000.0001)  ploadbar=  1.01049098892217E+05
 cg2d: Sum(rhs),rhsMax =  -1.00260090244804E+02  1.39216362035982E+00
(PID.TID 0000.0001)  ploadbar=  1.01048436749073E+05
 cg2d: Sum(rhs),rhsMax =  -1.01686092337759E+02  1.37237754217119E+00
(PID.TID 0000.0001)  ploadbar=  1.01047774605929E+05
 cg2d: Sum(rhs),rhsMax =  -1.03292386857747E+02  1.35084521318665E+00
(PID.TID 0000.0001)  ploadbar=  1.01046842045512E+05
 cg2d: Sum(rhs),rhsMax =  -1.05037286913426E+02  1.32825748335069E+00
(PID.TID 0000.0001)  ploadbar=  1.01045909485096E+05
 cg2d: Sum(rhs),rhsMax =  -1.06904407085316E+02  1.30494238383321E+00
(PID.TID 0000.0001)  ploadbar=  1.01044976924680E+05
 cg2d: Sum(rhs),rhsMax =  -1.08900510284987E+02  1.28093328079572E+00
(PID.TID 0000.0001)  ploadbar=  1.01044044364264E+05
 cg2d: Sum(rhs),rhsMax =  -1.11027797999257E+02  1.25632367598376E+00
(PID.TID 0000.0001)  ploadbar=  1.01043111803847E+05
 cg2d: Sum(rhs),rhsMax =  -1.13276490479196E+02  1.23133472807187E+00
(PID.TID 0000.0001)  ploadbar=  1.01042179243431E+05
 cg2d: Sum(rhs),rhsMax =  -1.15612914079923E+02  1.20640911622374E+00
(PID.TID 0000.0001)  ploadbar=  1.01042379809552E+05
 cg2d: Sum(rhs),rhsMax =  -1.18038241293606E+02  1.18158301399531E+00
(PID.TID 0000.0001)  ploadbar=  1.01042580375673E+05
 cg2d: Sum(rhs),rhsMax =  -1.20541470028778E+02  1.15700625438115E+00
(PID.TID 0000.0001)  ploadbar=  1.01042780941794E+05
 cg2d: Sum(rhs),rhsMax =  -1.23108812597811E+02  1.13283703572883E+00
(PID.TID 0000.0001)  ploadbar=  1.01042981507914E+05
 cg2d: Sum(rhs),rhsMax =  -1.25253523241562E+02  1.11339622254470E+00
(PID.TID 0000.0001)  ploadbar=  1.01043182074035E+05
 cg2d: Sum(rhs),rhsMax =  -1.25086299421960E+02  1.11482881502856E+00
(PID.TID 0000.0001)  ploadbar=  1.01043382640156E+05
 cg2d: Sum(rhs),rhsMax =  -1.24968224251512E+02  1.11584746137904E+00
(PID.TID 0000.0001)  ploadbar=  1.01043863461879E+05
 cg2d: Sum(rhs),rhsMax =  -1.24871624393581E+02  1.11668745738010E+00
(PID.TID 0000.0001)  ploadbar=  1.01044344283603E+05
 cg2d: Sum(rhs),rhsMax =  -1.24773431465882E+02  1.11755229489968E+00
(PID.TID 0000.0001)  ploadbar=  1.01044825105326E+05
 cg2d: Sum(rhs),rhsMax =  -1.24637719433605E+02  1.11876238671921E+00
(PID.TID 0000.0001)  ploadbar=  1.01045305927050E+05
 cg2d: Sum(rhs),rhsMax =  -1.24433490283614E+02  1.12059021732844E+00
(PID.TID 0000.0001)  ploadbar=  1.01045786748773E+05
 cg2d: Sum(rhs),rhsMax =  -1.24139119180735E+02  1.12322327854616E+00
(PID.TID 0000.0001)  ploadbar=  1.01046267570497E+05
 cg2d: Sum(rhs),rhsMax =  -1.23792070692162E+02  1.12634065989026E+00
(PID.TID 0000.0001)  ploadbar=  1.01045805334902E+05
 cg2d: Sum(rhs),rhsMax =  -1.23389612933529E+02  1.12996243762361E+00
(PID.TID 0000.0001)  ploadbar=  1.01045343099307E+05
 cg2d: Sum(rhs),rhsMax =  -1.22953816494932E+02  1.13388789813912E+00
(PID.TID 0000.0001)  ploadbar=  1.01044880863712E+05
 cg2d: Sum(rhs),rhsMax =  -1.22548050547797E+02  1.13753300999289E+00
(PID.TID 0000.0001)  ploadbar=  1.01044418628118E+05
 cg2d: Sum(rhs),rhsMax =  -1.22147684285693E+02  1.14112107316573E+00
(PID.TID 0000.0001)  ploadbar=  1.01043956392523E+05
 cg2d: Sum(rhs),rhsMax =  -1.21879854118762E+02  1.14345785088616E+00
(PID.TID 0000.0001)  ploadbar=  1.01043494156928E+05
 cg2d: Sum(rhs),rhsMax =  -1.21884281797432E+02  1.14331971770588E+00
(PID.TID 0000.0001)  ploadbar=  1.01043132874117E+05
 cg2d: Sum(rhs),rhsMax =  -1.21658858883505E+02  1.14539147275811E+00
(PID.TID 0000.0001)  ploadbar=  1.01042771591305E+05
 cg2d: Sum(rhs),rhsMax =  -1.21430808352891E+02  1.14752842839037E+00
(PID.TID 0000.0001)  ploadbar=  1.01042410308493E+05
 cg2d: Sum(rhs),rhsMax =  -1.21312087593758E+02  1.14866654302044E+00
(PID.TID 0000.0001)  ploadbar=  1.01042049025682E+05
 cg2d: Sum(rhs),rhsMax =  -1.21247873976562E+02  1.14932031232149E+00
(PID.TID 0000.0001)  ploadbar=  1.01041687742870E+05
 cg2d: Sum(rhs),rhsMax =  -1.21170405143377E+02  1.15012633805251E+00
(PID.TID 0000.0001)  ploadbar=  1.01041326460059E+05
 cg2d: Sum(rhs),rhsMax =  -1.20951908899433E+02  1.15227398709264E+00
(PID.TID 0000.0001)  ploadbar=  1.01040417344321E+05
 cg2d: Sum(rhs),rhsMax =  -1.20538987377518E+02  1.15628609989020E+00
(PID.TID 0000.0001)  ploadbar=  1.01039508228583E+05
 cg2d: Sum(rhs),rhsMax =  -1.19946699336361E+02  1.16205293840732E+00
(PID.TID 0000.0001)  ploadbar=  1.01038599112845E+05
 cg2d: Sum(rhs),rhsMax =  -1.19158969615501E+02  1.16978670830284E+00
(PID.TID 0000.0001)  ploadbar=  1.01037689997107E+05
 cg2d: Sum(rhs),rhsMax =  -1.18201354197396E+02  1.17930797185772E+00
(PID.TID 0000.0001)  ploadbar=  1.01036780881369E+05
 cg2d: Sum(rhs),rhsMax =  -1.17118686116998E+02  1.19023797985881E+00
(PID.TID 0000.0001)  ploadbar=  1.01035871765631E+05
 cg2d: Sum(rhs),rhsMax =  -1.15837107951560E+02  1.20344099663448E+00
(PID.TID 0000.0001)  ploadbar=  1.01036080816239E+05
 cg2d: Sum(rhs),rhsMax =  -1.14539081491492E+02  1.21710747897533E+00
(PID.TID 0000.0001)  ploadbar=  1.01036289866848E+05
 cg2d: Sum(rhs),rhsMax =  -1.13288703999550E+02  1.23056062965332E+00
(PID.TID 0000.0001)  ploadbar=  1.01036498917456E+05
 cg2d: Sum(rhs),rhsMax =  -1.12155523559143E+02  1.24300010255800E+00
(PID.TID 0000.0001)  ploadbar=  1.01036707968065E+05
 cg2d: Sum(rhs),rhsMax =  -1.11170762502315E+02  1.25399787741738E+00
(PID.TID 0000.0001)  ploadbar=  1.01036917018674E+05
 cg2d: Sum(rhs),rhsMax =  -1.10345275168226E+02  1.26333675535442E+00
(PID.TID 0000.0001)  ploadbar=  1.01037126069282E+05
 cg2d: Sum(rhs),rhsMax =  -1.09688541790225E+02  1.27085565339006E+00
(PID.TID 0000.0001)  ploadbar=  1.01036922753219E+05
 cg2d: Sum(rhs),rhsMax =  -1.09151233100972E+02  1.27705065647931E+00
(PID.TID 0000.0001)  ploadbar=  1.01036719437157E+05
 cg2d: Sum(rhs),rhsMax =  -1.08681658748327E+02  1.28248525243055E+00
(PID.TID 0000.0001)  ploadbar=  1.01036516121094E+05
 cg2d: Sum(rhs),rhsMax =  -1.08279697753350E+02  1.28713755676485E+00
(PID.TID 0000.0001)  ploadbar=  1.01036312805031E+05
 cg2d: Sum(rhs),rhsMax =  -1.08005557015475E+02  1.29026810387158E+00
(PID.TID 0000.0001)  ploadbar=  1.01036109488968E+05
 cg2d: Sum(rhs),rhsMax =  -1.07851800164220E+02  1.29194739720041E+00
(PID.TID 0000.0001)  ploadbar=  1.01035906172906E+05
 cg2d: Sum(rhs),rhsMax =  -1.07598804867840E+02  1.29489532223149E+00
(PID.TID 0000.0001)  ploadbar=  1.01036618913281E+05
 cg2d: Sum(rhs),rhsMax =  -1.07293951407703E+02  1.29853244331993E+00
(PID.TID 0000.0001)  ploadbar=  1.01037331653657E+05
 cg2d: Sum(rhs),rhsMax =  -1.06985869673188E+02  1.30225985687116E+00
(PID.TID 0000.0001)  ploadbar=  1.01038044394032E+05
 cg2d: Sum(rhs),rhsMax =  -1.06701566189702E+02  1.30574413254111E+00
(PID.TID 0000.0001)  ploadbar=  1.01038757134408E+05
 cg2d: Sum(rhs),rhsMax =  -1.06447626938272E+02  1.30890066262316E+00
(PID.TID 0000.0001)  ploadbar=  1.01039469874783E+05
 cg2d: Sum(rhs),rhsMax =  -1.06286618379410E+02  1.31095192657321E+00
(PID.TID 0000.0001)  ploadbar=  1.01040182615159E+05
 cg2d: Sum(rhs),rhsMax =  -1.06278410761945E+02  1.31111466931921E+00
(PID.TID 0000.0001)  ploadbar=  1.01040264423601E+05
 cg2d: Sum(rhs),rhsMax =  -1.06360366734389E+02  1.31014933785939E+00
(PID.TID 0000.0001)  ploadbar=  1.01040346232043E+05
 cg2d: Sum(rhs),rhsMax =  -1.06517481926526E+02  1.30824498302142E+00
(PID.TID 0000.0001)  ploadbar=  1.01040428040485E+05
 cg2d: Sum(rhs),rhsMax =  -1.06729254283517E+02  1.30565899148935E+00
(PID.TID 0000.0001)  ploadbar=  1.01040509848927E+05
 cg2d: Sum(rhs),rhsMax =  -1.07078341398094E+02  1.30139029761143E+00
(PID.TID 0000.0001)  ploadbar=  1.01040591657369E+05
 cg2d: Sum(rhs),rhsMax =  -1.07559013022324E+02  1.29553119355068E+00
(PID.TID 0000.0001)  ploadbar=  1.01040673465811E+05
 cg2d: Sum(rhs),rhsMax =  -1.08038349035716E+02  1.28973754657755E+00
(PID.TID 0000.0001)  ploadbar=  1.01041585981252E+05
 cg2d: Sum(rhs),rhsMax =  -1.08516614273872E+02  1.28399438806037E+00
(PID.TID 0000.0001)  ploadbar=  1.01042498496693E+05
 cg2d: Sum(rhs),rhsMax =  -1.08984989715516E+02  1.27840532391656E+00
(PID.TID 0000.0001)  ploadbar=  1.01043411012134E+05
 cg2d: Sum(rhs),rhsMax =  -1.09438935902927E+02  1.27302290352924E+00
(PID.TID 0000.0001)  ploadbar=  1.01044323527575E+05
 cg2d: Sum(rhs),rhsMax =  -1.09876842563993E+02  1.26785719202282E+00
(PID.TID 0000.0001)  ploadbar=  1.01045236043016E+05
 cg2d: Sum(rhs),rhsMax =  -1.10299106530322E+02  1.26289114913554E+00
(PID.TID 0000.0001)  ploadbar=  1.01046148558457E+05
 cg2d: Sum(rhs),rhsMax =  -1.10686804640614E+02  1.25834242162063E+00
(PID.TID 0000.0001)  ploadbar=  1.01046454642047E+05
 cg2d: Sum(rhs),rhsMax =  -1.11065003322114E+02  1.25390684529614E+00
(PID.TID 0000.0001)  ploadbar=  1.01046760725636E+05
 cg2d: Sum(rhs),rhsMax =  -1.11541213118003E+02  1.24837534789275E+00
(PID.TID 0000.0001)  ploadbar=  1.01047066809225E+05
 cg2d: Sum(rhs),rhsMax =  -1.12142153800933E+02  1.24147540557884E+00
(PID.TID 0000.0001)  ploadbar=  1.01047372892815E+05
 cg2d: Sum(rhs),rhsMax =  -1.12872437138271E+02  1.23319821076253E+00
(PID.TID 0000.0001)  ploadbar=  1.01047678976404E+05
 cg2d: Sum(rhs),rhsMax =  -1.13734780411978E+02  1.22356896705976E+00
(PID.TID 0000.0001)  ploadbar=  1.01047985059993E+05
 cg2d: Sum(rhs),rhsMax =  -1.14563494843644E+02  1.21450232796015E+00
(PID.TID 0000.0001)  ploadbar=  1.01048631539130E+05
 cg2d: Sum(rhs),rhsMax =  -1.15344494553208E+02  1.20610861525117E+00
(PID.TID 0000.0001)  ploadbar=  1.01049278018267E+05
 cg2d: Sum(rhs),rhsMax =  -1.14972003331909E+02  1.20988075967105E+00
(PID.TID 0000.0001)  ploadbar=  1.01049924497404E+05
 cg2d: Sum(rhs),rhsMax =  -1.15483784967685E+02  1.20441822681437E+00
(PID.TID 0000.0001)  ploadbar=  1.01050570976541E+05
 cg2d: Sum(rhs),rhsMax =  -1.16527322465221E+02  1.19356572332179E+00
(PID.TID 0000.0001)  ploadbar=  1.01051217455678E+05
 cg2d: Sum(rhs),rhsMax =  -1.16011169283184E+02  1.19883873903776E+00
(PID.TID 0000.0001)  ploadbar=  1.01051863934815E+05
 cg2d: Sum(rhs),rhsMax =  -1.15632408875807E+02  1.20275204223478E+00
(PID.TID 0000.0001)  ploadbar=  1.01052582578949E+05
 cg2d: Sum(rhs),rhsMax =  -1.15409478630342E+02  1.20507056401952E+00
(PID.TID 0000.0001)  ploadbar=  1.01053301223084E+05
 cg2d: Sum(rhs),rhsMax =  -1.15348192746056E+02  1.20571374256362E+00
(PID.TID 0000.0001)  ploadbar=  1.01054019867219E+05
 cg2d: Sum(rhs),rhsMax =  -1.15447001812678E+02  1.20468971281332E+00
(PID.TID 0000.0001)  ploadbar=  1.01054738511354E+05
 cg2d: Sum(rhs),rhsMax =  -1.15685111091264E+02  1.20221828486094E+00
(PID.TID 0000.0001)  ploadbar=  1.01055457155489E+05
 cg2d: Sum(rhs),rhsMax =  -1.16050785082239E+02  1.19843713605321E+00
(PID.TID 0000.0001)  ploadbar=  1.01056175799623E+05
 cg2d: Sum(rhs),rhsMax =  -1.16531135066826E+02  1.19350850030307E+00
(PID.TID 0000.0001)  ploadbar=  1.01056132929999E+05
 cg2d: Sum(rhs),rhsMax =  -1.17061957214079E+02  1.18810436930438E+00
(PID.TID 0000.0001)  ploadbar=  1.01056090060374E+05
 cg2d: Sum(rhs),rhsMax =  -1.17641791007659E+02  1.18225402836085E+00
(PID.TID 0000.0001)  ploadbar=  1.01056047190749E+05
 cg2d: Sum(rhs),rhsMax =  -1.18257849961036E+02  1.17610049914615E+00
(PID.TID 0000.0001)  ploadbar=  1.01056004321124E+05
 cg2d: Sum(rhs),rhsMax =  -1.18669133285991E+02  1.17202911925798E+00
(PID.TID 0000.0001)  ploadbar=  1.01055961451499E+05
 cg2d: Sum(rhs),rhsMax =  -1.19126600781805E+02  1.16751929029536E+00
(PID.TID 0000.0001)  ploadbar=  1.01055918581874E+05
 cg2d: Sum(rhs),rhsMax =  -1.19606638167396E+02  1.16279660105717E+00
(PID.TID 0000.0001)  ploadbar=  1.01055445224146E+05
 cg2d: Sum(rhs),rhsMax =  -1.20107788398098E+02  1.15786826290508E+00
(PID.TID 0000.0001)  ploadbar=  1.01054971866419E+05
 cg2d: Sum(rhs),rhsMax =  -1.20633568582873E+02  1.15270055148245E+00
(PID.TID 0000.0001)  ploadbar=  1.01054498508691E+05
 cg2d: Sum(rhs),rhsMax =  -1.21200544486435E+02  1.14713763853168E+00
(PID.TID 0000.0001)  ploadbar=  1.01054025150963E+05
 cg2d: Sum(rhs),rhsMax =  -1.21793024133749E+02  1.14133589246776E+00
(PID.TID 0000.0001)  ploadbar=  1.01053551793236E+05
 cg2d: Sum(rhs),rhsMax =  -1.22390400283892E+02  1.13549314546055E+00
(PID.TID 0000.0001)  ploadbar=  1.01053078435508E+05
 cg2d: Sum(rhs),rhsMax =  -1.23079148069213E+02  1.12891538239632E+00
(PID.TID 0000.0001)  ploadbar=  1.01053642942400E+05
 cg2d: Sum(rhs),rhsMax =  -1.23842625298139E+02  1.12176191956277E+00
(PID.TID 0000.0001)  ploadbar=  1.01054207449292E+05
 cg2d: Sum(rhs),rhsMax =  -1.24711992989105E+02  1.11377012396104E+00
(PID.TID 0000.0001)  ploadbar=  1.01054771956185E+05
 cg2d: Sum(rhs),rhsMax =  -1.25707876896976E+02  1.10479458209829E+00
(PID.TID 0000.0001)  ploadbar=  1.01055336463077E+05
 cg2d: Sum(rhs),rhsMax =  -1.26855037318840E+02  1.09466999247565E+00
(PID.TID 0000.0001)  ploadbar=  1.01055900969969E+05
 cg2d: Sum(rhs),rhsMax =  -1.28179425071636E+02  1.08324234816698E+00
(PID.TID 0000.0001)  ploadbar=  1.01056465476861E+05
 cg2d: Sum(rhs),rhsMax =  -1.29689071537338E+02  1.07053267114439E+00
(PID.TID 0000.0001)  ploadbar=  1.01056323533534E+05
 cg2d: Sum(rhs),rhsMax =  -1.31281034348234E+02  1.05745765101465E+00
(PID.TID 0000.0001)  ploadbar=  1.01056181590206E+05
 cg2d: Sum(rhs),rhsMax =  -1.32877022080731E+02  1.04467187549365E+00
(PID.TID 0000.0001)  ploadbar=  1.01056039646879E+05
 cg2d: Sum(rhs),rhsMax =  -1.34412911954767E+02  1.03265716410677E+00
(PID.TID 0000.0001)  ploadbar=  1.01055897703552E+05
 cg2d: Sum(rhs),rhsMax =  -1.35812725521944E+02  1.02194308903360E+00
(PID.TID 0000.0001)  ploadbar=  1.01055755760224E+05
 cg2d: Sum(rhs),rhsMax =  -1.37022928299677E+02  1.01285184765834E+00
(PID.TID 0000.0001)  ploadbar=  1.01055613816897E+05
 cg2d: Sum(rhs),rhsMax =  -1.38088388694137E+02  1.00498806788233E+00
(PID.TID 0000.0001)  ploadbar=  1.01056246452686E+05
 cg2d: Sum(rhs),rhsMax =  -1.38940336597311E+02  9.98786133084805E-01
(PID.TID 0000.0001)  ploadbar=  1.01056879088474E+05
 cg2d: Sum(rhs),rhsMax =  -1.39548560322242E+02  9.94404757066509E-01
(PID.TID 0000.0001)  ploadbar=  1.01057511724263E+05
 cg2d: Sum(rhs),rhsMax =  -1.39970478668292E+02  9.91390364302949E-01
(PID.TID 0000.0001)  ploadbar=  1.01058144360051E+05
 cg2d: Sum(rhs),rhsMax =  -1.40262675087662E+02  9.89315982657268E-01
(PID.TID 0000.0001)  ploadbar=  1.01058776995840E+05
 cg2d: Sum(rhs),rhsMax =  -1.40414591743323E+02  9.88235618984376E-01
(PID.TID 0000.0001)  ploadbar=  1.01059409631628E+05
 cg2d: Sum(rhs),rhsMax =  -1.40552856664588E+02  9.87243944948906E-01
(PID.TID 0000.0001)  ploadbar=  1.01058252609993E+05
 cg2d: Sum(rhs),rhsMax =  -1.40723652753555E+02  9.86005258842459E-01
(PID.TID 0000.0001)  ploadbar=  1.01057095588358E+05
 cg2d: Sum(rhs),rhsMax =  -1.40972020544667E+02  9.84201114061032E-01
(PID.TID 0000.0001)  ploadbar=  1.01055938566723E+05
 cg2d: Sum(rhs),rhsMax =  -1.40037785032819E+02  9.90667460094837E-01
(PID.TID 0000.0001)  ploadbar=  1.01054781545087E+05
 cg2d: Sum(rhs),rhsMax =  -1.38811445439366E+02  9.99286628982930E-01
(PID.TID 0000.0001)  ploadbar=  1.01053624523452E+05
 cg2d: Sum(rhs),rhsMax =  -1.37755345950955E+02  1.00678149558358E+00
(PID.TID 0000.0001)  ploadbar=  1.01052467501817E+05
 cg2d: Sum(rhs),rhsMax =  -1.36842234017731E+02  1.01337845174429E+00
(PID.TID 0000.0001)  ploadbar=  1.01052208954381E+05
 cg2d: Sum(rhs),rhsMax =  -1.35984468821585E+02  1.01967736794802E+00
(PID.TID 0000.0001)  ploadbar=  1.01051950406944E+05
 cg2d: Sum(rhs),rhsMax =  -1.35169294044380E+02  1.02575357847309E+00
(PID.TID 0000.0001)  ploadbar=  1.01051691859508E+05
 cg2d: Sum(rhs),rhsMax =  -1.34403372599512E+02  1.03154474246390E+00
(PID.TID 0000.0001)  ploadbar=  1.01051433312072E+05
 cg2d: Sum(rhs),rhsMax =  -1.33697847389479E+02  1.03695032420365E+00
(PID.TID 0000.0001)  ploadbar=  1.01051174764635E+05
 cg2d: Sum(rhs),rhsMax =  -1.33063818416078E+02  1.04187255635593E+00
(PID.TID 0000.0001)  ploadbar=  1.01050916217199E+05
 cg2d: Sum(rhs),rhsMax =  -1.32351240131305E+02  1.04745887471821E+00
(PID.TID 0000.0001)  ploadbar=  1.01049009407789E+05
 cg2d: Sum(rhs),rhsMax =  -1.31696476958124E+02  1.05262550933614E+00
(PID.TID 0000.0001)  ploadbar=  1.01047102598380E+05
 cg2d: Sum(rhs),rhsMax =  -1.31095224670161E+02  1.05739400105791E+00
(PID.TID 0000.0001)  ploadbar=  1.01045195788970E+05
 cg2d: Sum(rhs),rhsMax =  -1.30537333085523E+02  1.06183635291567E+00
(PID.TID 0000.0001)  ploadbar=  1.01043288979560E+05
 cg2d: Sum(rhs),rhsMax =  -1.30010945848498E+02  1.06604333675324E+00
(PID.TID 0000.0001)  ploadbar=  1.01041382170151E+05
 cg2d: Sum(rhs),rhsMax =  -1.29501063156864E+02  1.07012815188518E+00
(PID.TID 0000.0001)  ploadbar=  1.01039475360741E+05
 cg2d: Sum(rhs),rhsMax =  -1.28965566235490E+02  1.07447012170333E+00
(PID.TID 0000.0001)  ploadbar=  1.01037809244421E+05
 cg2d: Sum(rhs),rhsMax =  -1.28377111135676E+02  1.07930034702694E+00
(PID.TID 0000.0001)  ploadbar=  1.01036143128102E+05
 cg2d: Sum(rhs),rhsMax =  -1.27586377809017E+02  1.08590319034401E+00
(PID.TID 0000.0001)  ploadbar=  1.01034477011782E+05
 cg2d: Sum(rhs),rhsMax =  -1.26624092220698E+02  1.09407760255653E+00
(PID.TID 0000.0001)  ploadbar=  1.01032810895462E+05
 cg2d: Sum(rhs),rhsMax =  -1.26616789332573E+02  1.09406429970015E+00
(PID.TID 0000.0001)  ploadbar=  1.01031144779143E+05
 cg2d: Sum(rhs),rhsMax =  -1.26619941471509E+02  1.09394932388758E+00
(PID.TID 0000.0001)  ploadbar=  1.01029478662823E+05
 cg2d: Sum(rhs),rhsMax =  -1.25756573995116E+02  1.10135905912314E+00
(PID.TID 0000.0001)  ploadbar=  1.01028370399071E+05
 cg2d: Sum(rhs),rhsMax =  -1.24955495058673E+02  1.10829731490756E+00
(PID.TID 0000.0001)  ploadbar=  1.01027262135319E+05
 cg2d: Sum(rhs),rhsMax =  -1.24224298875857E+02  1.11467055584076E+00
(PID.TID 0000.0001)  ploadbar=  1.01026153871567E+05
 cg2d: Sum(rhs),rhsMax =  -1.23558117744843E+02  1.12049761276173E+00
(PID.TID 0000.0001)  ploadbar=  1.01025045607815E+05
 cg2d: Sum(rhs),rhsMax =  -1.23150230156997E+02  1.12399069978400E+00
(PID.TID 0000.0001)  ploadbar=  1.01023937344063E+05
 cg2d: Sum(rhs),rhsMax =  -1.22989720149105E+02  1.12520445403213E+00
(PID.TID 0000.0001)  ploadbar=  1.01022829080311E+05
 cg2d: Sum(rhs),rhsMax =  -1.22936076927952E+02  1.12548957066390E+00
(PID.TID 0000.0001)  ploadbar=  1.01021673389524E+05
 cg2d: Sum(rhs),rhsMax =  -1.23032479671899E+02  1.12442851683428E+00
(PID.TID 0000.0001)  ploadbar=  1.01020517698738E+05
 cg2d: Sum(rhs),rhsMax =  -1.23292335387586E+02  1.12189584262762E+00
(PID.TID 0000.0001)  ploadbar=  1.01019362007952E+05
 cg2d: Sum(rhs),rhsMax =  -1.23704335622893E+02  1.11801299907070E+00
(PID.TID 0000.0001)  ploadbar=  1.01018206317166E+05
 cg2d: Sum(rhs),rhsMax =  -1.24239665204474E+02  1.11306659614522E+00
(PID.TID 0000.0001)  ploadbar=  1.01017050626379E+05
 cg2d: Sum(rhs),rhsMax =  -1.24856714181125E+02  1.10745985553479E+00
(PID.TID 0000.0001)  ploadbar=  1.01015894935593E+05
 cg2d: Sum(rhs),rhsMax =  -1.25520511409622E+02  1.10150884927343E+00
(PID.TID 0000.0001)  ploadbar=  1.01015263631564E+05
 cg2d: Sum(rhs),rhsMax =  -1.25444687050383E+02  1.10207546881602E+00
(PID.TID 0000.0001)  ploadbar=  1.01014632327536E+05
 cg2d: Sum(rhs),rhsMax =  -1.25114826042268E+02  1.10487472648912E+00
(PID.TID 0000.0001)  ploadbar=  1.01014001023508E+05
 cg2d: Sum(rhs),rhsMax =  -1.24881903551574E+02  1.10682306731490E+00
(PID.TID 0000.0001)  ploadbar=  1.01013369719479E+05
 cg2d: Sum(rhs),rhsMax =  -1.24683719985326E+02  1.10846998362434E+00
(PID.TID 0000.0001)  ploadbar=  1.01012738415451E+05
 cg2d: Sum(rhs),rhsMax =  -1.24631593047939E+02  1.10881795318478E+00
(PID.TID 0000.0001)  ploadbar=  1.01012107111422E+05
 cg2d: Sum(rhs),rhsMax =  -1.24544965252963E+02  1.10948322302427E+00
(PID.TID 0000.0001)  ploadbar=  1.01012453831508E+05
 cg2d: Sum(rhs),rhsMax =  -1.24416388941514E+02  1.11052522834808E+00
(PID.TID 0000.0001)  ploadbar=  1.01012800551594E+05
 cg2d: Sum(rhs),rhsMax =  -1.24230732828420E+02  1.11208366753375E+00
(PID.TID 0000.0001)  ploadbar=  1.01013147271680E+05
 cg2d: Sum(rhs),rhsMax =  -1.23997265691510E+02  1.11408151527413E+00
(PID.TID 0000.0001)  ploadbar=  1.01013493991766E+05
 cg2d: Sum(rhs),rhsMax =  -1.23735492111752E+02  1.11634126209088E+00
(PID.TID 0000.0001)  ploadbar=  1.01013840711852E+05
 cg2d: Sum(rhs),rhsMax =  -1.23476846912893E+02  1.11856875337259E+00
(PID.TID 0000.0001)  ploadbar=  1.01014187431938E+05
 cg2d: Sum(rhs),rhsMax =  -1.23401673484657E+02  1.11914710700538E+00
(PID.TID 0000.0001)  ploadbar=  1.01013760089539E+05
 cg2d: Sum(rhs),rhsMax =  -1.23334424256911E+02  1.11965374131914E+00
(PID.TID 0000.0001)  ploadbar=  1.01013332747141E+05
 cg2d: Sum(rhs),rhsMax =  -1.23263368483060E+02  1.12018901000592E+00
(PID.TID 0000.0001)  ploadbar=  1.01012905404742E+05
 cg2d: Sum(rhs),rhsMax =  -1.23215704012425E+02  1.12050108407061E+00
(PID.TID 0000.0001)  ploadbar=  1.01012478062344E+05
 cg2d: Sum(rhs),rhsMax =  -1.23248615360395E+02  1.12006592430193E+00
(PID.TID 0000.0001)  ploadbar=  1.01012050719945E+05
 cg2d: Sum(rhs),rhsMax =  -1.23382378025284E+02  1.11870072042329E+00
(PID.TID 0000.0001)  ploadbar=  1.01011623377547E+05
 cg2d: Sum(rhs),rhsMax =  -1.23553181153900E+02  1.11705696153721E+00
(PID.TID 0000.0001)  ploadbar=  1.01011018917170E+05
 cg2d: Sum(rhs),rhsMax =  -1.23788059158003E+02  1.11487050383359E+00
(PID.TID 0000.0001)  ploadbar=  1.01010414456793E+05
 cg2d: Sum(rhs),rhsMax =  -1.24103877250902E+02  1.11198412282547E+00
(PID.TID 0000.0001)  ploadbar=  1.01009809996416E+05
 cg2d: Sum(rhs),rhsMax =  -1.24517297338298E+02  1.10826343856058E+00
(PID.TID 0000.0001)  ploadbar=  1.01009205536039E+05
 cg2d: Sum(rhs),rhsMax =  -1.24514252536695E+02  1.10828326596634E+00
(PID.TID 0000.0001)  ploadbar=  1.01008601075662E+05
 cg2d: Sum(rhs),rhsMax =  -1.23802546630469E+02  1.11467090142725E+00
(PID.TID 0000.0001)  ploadbar=  1.01007996615285E+05
 cg2d: Sum(rhs),rhsMax =  -1.23057677680226E+02  1.12143702224774E+00
(PID.TID 0000.0001)  ploadbar=  1.01007217889016E+05
 cg2d: Sum(rhs),rhsMax =  -1.22382484861695E+02  1.12763386456872E+00
(PID.TID 0000.0001)  ploadbar=  1.01006439162746E+05
 cg2d: Sum(rhs),rhsMax =  -1.21786705715729E+02  1.13314833306735E+00
(PID.TID 0000.0001)  ploadbar=  1.01005660436477E+05
 cg2d: Sum(rhs),rhsMax =  -1.21266799474575E+02  1.13799184912400E+00
(PID.TID 0000.0001)  ploadbar=  1.01004881710208E+05
 cg2d: Sum(rhs),rhsMax =  -1.20785596909214E+02  1.14249441324076E+00
(PID.TID 0000.0001)  ploadbar=  1.01004102983939E+05
 cg2d: Sum(rhs),rhsMax =  -1.20253915257720E+02  1.14749113055000E+00
(PID.TID 0000.0001)  ploadbar=  1.01003324257669E+05
 cg2d: Sum(rhs),rhsMax =  -1.19773654709898E+02  1.15204632140828E+00
(PID.TID 0000.0001)  ploadbar=  1.01002906949403E+05
 cg2d: Sum(rhs),rhsMax =  -1.19226281289216E+02  1.15729423979508E+00
(PID.TID 0000.0001)  ploadbar=  1.01002489641137E+05
 cg2d: Sum(rhs),rhsMax =  -1.18545366892740E+02  1.16390945374924E+00
(PID.TID 0000.0001)  ploadbar=  1.01002072332871E+05
 cg2d: Sum(rhs),rhsMax =  -1.17718191394423E+02  1.17206506415644E+00
(PID.TID 0000.0001)  ploadbar=  1.01001655024605E+05
 cg2d: Sum(rhs),rhsMax =  -1.16875628950645E+02  1.18049717638868E+00
(PID.TID 0000.0001)  ploadbar=  1.01001237716339E+05
 cg2d: Sum(rhs),rhsMax =  -1.16018307959528E+02  1.18919484697773E+00
(PID.TID 0000.0001)  ploadbar=  1.01000820408073E+05
 cg2d: Sum(rhs),rhsMax =  -1.15093179670315E+02  1.19872288531059E+00
(PID.TID 0000.0001)  ploadbar=  1.01000380218780E+05
 cg2d: Sum(rhs),rhsMax =  -1.14184148663743E+02  1.20821812935315E+00
(PID.TID 0000.0001)  ploadbar=  1.00999940029486E+05
 cg2d: Sum(rhs),rhsMax =  -1.13923265162748E+02  1.21091424382676E+00
(PID.TID 0000.0001)  ploadbar=  1.00999499840192E+05
 cg2d: Sum(rhs),rhsMax =  -1.14937681775216E+02  1.20013147734877E+00
(PID.TID 0000.0001)  ploadbar=  1.00999059650898E+05
 cg2d: Sum(rhs),rhsMax =  -1.14569968518661E+02  1.20385983235660E+00
(PID.TID 0000.0001)  ploadbar=  1.00998619461604E+05
 cg2d: Sum(rhs),rhsMax =  -1.13570151316266E+02  1.21430697248462E+00
(PID.TID 0000.0001)  ploadbar=  1.00998179272311E+05
 cg2d: Sum(rhs),rhsMax =  -1.12619860815089E+02  1.22445504444878E+00
(PID.TID 0000.0001)  ploadbar=  1.00997429241027E+05
 cg2d: Sum(rhs),rhsMax =  -1.11641025163213E+02  1.23512449513441E+00
(PID.TID 0000.0001)  ploadbar=  1.00996679209743E+05
 cg2d: Sum(rhs),rhsMax =  -1.11157503936837E+02  1.24045499503067E+00
(PID.TID 0000.0001)  ploadbar=  1.00995929178459E+05
 cg2d: Sum(rhs),rhsMax =  -1.11410809707376E+02  1.23761664919763E+00
(PID.TID 0000.0001)  ploadbar=  1.00995179147176E+05
 cg2d: Sum(rhs),rhsMax =  -1.11641980559372E+02  1.23506247598495E+00
(PID.TID 0000.0001)  ploadbar=  1.00994429115892E+05
 cg2d: Sum(rhs),rhsMax =  -1.11855077185620E+02  1.23274394712760E+00
(PID.TID 0000.0001)  ploadbar=  1.00993679084608E+05
 cg2d: Sum(rhs),rhsMax =  -1.12070767205404E+02  1.23040996804455E+00
(PID.TID 0000.0001)  ploadbar=  1.00992390280835E+05
 cg2d: Sum(rhs),rhsMax =  -1.12308570406705E+02  1.22783573505835E+00
(PID.TID 0000.0001)  ploadbar=  1.00991101477061E+05
 cg2d: Sum(rhs),rhsMax =  -1.12402311289497E+02  1.22683305769000E+00
(PID.TID 0000.0001)  ploadbar=  1.00989812673288E+05
 cg2d: Sum(rhs),rhsMax =  -1.11824748800780E+02  1.23317887194736E+00
(PID.TID 0000.0001)  ploadbar=  1.00988523869514E+05
 cg2d: Sum(rhs),rhsMax =  -1.11381429624398E+02  1.23808751295003E+00
(PID.TID 0000.0001)  ploadbar=  1.00987235065741E+05
 cg2d: Sum(rhs),rhsMax =  -1.11024843408253E+02  1.24205135839181E+00
(PID.TID 0000.0001)  ploadbar=  1.00985946261968E+05
 cg2d: Sum(rhs),rhsMax =  -1.10706559155722E+02  1.24561488155599E+00
(PID.TID 0000.0001)  ploadbar=  1.00985760661640E+05
 cg2d: Sum(rhs),rhsMax =  -1.10367822484398E+02  1.24942653877763E+00
(PID.TID 0000.0001)  ploadbar=  1.00985575061313E+05
 cg2d: Sum(rhs),rhsMax =  -1.09956172575645E+02  1.25408811276641E+00
(PID.TID 0000.0001)  ploadbar=  1.00985389460985E+05
 cg2d: Sum(rhs),rhsMax =  -1.09458541681007E+02  1.25977028425038E+00
(PID.TID 0000.0001)  ploadbar=  1.00985203860658E+05
 cg2d: Sum(rhs),rhsMax =  -1.08898793543915E+02  1.26621641478110E+00
(PID.TID 0000.0001)  ploadbar=  1.00985018260330E+05
 cg2d: Sum(rhs),rhsMax =  -1.08315022474966E+02  1.27298854409113E+00
(PID.TID 0000.0001)  ploadbar=  1.00984832660003E+05
 cg2d: Sum(rhs),rhsMax =  -1.07717593532346E+02  1.27999575529393E+00
(PID.TID 0000.0001)  ploadbar=  1.00985015638335E+05
 cg2d: Sum(rhs),rhsMax =  -1.07154039416063E+02  1.28666193532189E+00
(PID.TID 0000.0001)  ploadbar=  1.00985198616666E+05
 cg2d: Sum(rhs),rhsMax =  -1.06664592268734E+02  1.29248052429641E+00
(PID.TID 0000.0001)  ploadbar=  1.00985381594998E+05
 cg2d: Sum(rhs),rhsMax =  -1.06271791433475E+02  1.29714615963627E+00
(PID.TID 0000.0001)  ploadbar=  1.00985564573330E+05
 cg2d: Sum(rhs),rhsMax =  -1.05973903624373E+02  1.30065193988804E+00
(PID.TID 0000.0001)  ploadbar=  1.00985747551662E+05
 cg2d: Sum(rhs),rhsMax =  -1.05767746914066E+02  1.30301593353896E+00
(PID.TID 0000.0001)  ploadbar=  1.00985930529994E+05
 cg2d: Sum(rhs),rhsMax =  -1.05576177386688E+02  1.30526796060211E+00
(PID.TID 0000.0001)  ploadbar=  1.00988615966424E+05
 cg2d: Sum(rhs),rhsMax =  -1.05366106258127E+02  1.30779875197240E+00
(PID.TID 0000.0001)  ploadbar=  1.00991301402855E+05
 cg2d: Sum(rhs),rhsMax =  -1.05102699303927E+02  1.31103936924542E+00
(PID.TID 0000.0001)  ploadbar=  1.00993986839285E+05
 cg2d: Sum(rhs),rhsMax =  -1.04763748642499E+02  1.31527637776492E+00
(PID.TID 0000.0001)  ploadbar=  1.00996672275715E+05
 cg2d: Sum(rhs),rhsMax =  -1.04350078266422E+02  1.32050956324948E+00
(PID.TID 0000.0001)  ploadbar=  1.00999357712146E+05
 cg2d: Sum(rhs),rhsMax =  -1.03883993327431E+02  1.32647612103534E+00
(PID.TID 0000.0001)  ploadbar=  1.01002043148576E+05
 cg2d: Sum(rhs),rhsMax =  -1.03510281624140E+02  1.33129660549790E+00
(PID.TID 0000.0001)  ploadbar=  1.01003057525310E+05
 cg2d: Sum(rhs),rhsMax =  -1.03551019770104E+02  1.33078165969427E+00
(PID.TID 0000.0001)  ploadbar=  1.01004071902044E+05
 cg2d: Sum(rhs),rhsMax =  -1.03643259971081E+02  1.32958497534201E+00
(PID.TID 0000.0001)  ploadbar=  1.01005086278778E+05
 cg2d: Sum(rhs),rhsMax =  -1.03766988533670E+02  1.32796409860833E+00
(PID.TID 0000.0001)  ploadbar=  1.01006100655511E+05
 cg2d: Sum(rhs),rhsMax =  -1.03926518548220E+02  1.32586740915353E+00
(PID.TID 0000.0001)  ploadbar=  1.01007115032245E+05
 cg2d: Sum(rhs),rhsMax =  -1.04130040012161E+02  1.32318634519922E+00
(PID.TID 0000.0001)  ploadbar=  1.01008129408979E+05
 cg2d: Sum(rhs),rhsMax =  -1.04386555038982E+02  1.31987688354739E+00
(PID.TID 0000.0001)  ploadbar=  1.01008252946371E+05
 cg2d: Sum(rhs),rhsMax =  -1.04685075377464E+02  1.31607839738119E+00
(PID.TID 0000.0001)  ploadbar=  1.01008376483763E+05
 cg2d: Sum(rhs),rhsMax =  -1.05012090721307E+02  1.31196624421694E+00
(PID.TID 0000.0001)  ploadbar=  1.01008500021154E+05
 cg2d: Sum(rhs),rhsMax =  -1.05353161818025E+02  1.30772481152688E+00
(PID.TID 0000.0001)  ploadbar=  1.01008623558546E+05
 cg2d: Sum(rhs),rhsMax =  -1.05697455238231E+02  1.30348647363095E+00
(PID.TID 0000.0001)  ploadbar=  1.01008747095938E+05
 cg2d: Sum(rhs),rhsMax =  -1.06040555068892E+02  1.29929489375272E+00
(PID.TID 0000.0001)  ploadbar=  1.01008870633330E+05
 cg2d: Sum(rhs),rhsMax =  -1.06330486780726E+02  1.29577366132942E+00
(PID.TID 0000.0001)  ploadbar=  1.01009855426205E+05
 cg2d: Sum(rhs),rhsMax =  -1.06560041614578E+02  1.29299073771460E+00
(PID.TID 0000.0001)  ploadbar=  1.01010840219081E+05
 cg2d: Sum(rhs),rhsMax =  -1.06731155404587E+02  1.29090447152290E+00
(PID.TID 0000.0001)  ploadbar=  1.01011825011956E+05
 cg2d: Sum(rhs),rhsMax =  -1.06852771653714E+02  1.28939637362186E+00
(PID.TID 0000.0001)  ploadbar=  1.01012809804832E+05
 cg2d: Sum(rhs),rhsMax =  -1.06932440040458E+02  1.28836664089701E+00
(PID.TID 0000.0001)  ploadbar=  1.01013794597708E+05
 cg2d: Sum(rhs),rhsMax =  -1.06978498585066E+02  1.28771045708279E+00
(PID.TID 0000.0001)  ploadbar=  1.01014779390583E+05
 cg2d: Sum(rhs),rhsMax =  -1.07067529922368E+02  1.28658491370310E+00
(PID.TID 0000.0001)  ploadbar=  1.01016828618540E+05
 cg2d: Sum(rhs),rhsMax =  -1.07210283645594E+02  1.28484582836756E+00
(PID.TID 0000.0001)  ploadbar=  1.01018877846497E+05
 cg2d: Sum(rhs),rhsMax =  -1.07413168393224E+02  1.28241603857246E+00
(PID.TID 0000.0001)  ploadbar=  1.01020927074454E+05
 cg2d: Sum(rhs),rhsMax =  -1.07675823997918E+02  1.27930427916839E+00
(PID.TID 0000.0001)  ploadbar=  1.01022976302411E+05
 cg2d: Sum(rhs),rhsMax =  -1.07987528608937E+02  1.27563954029335E+00
(PID.TID 0000.0001)  ploadbar=  1.01025025530368E+05
 cg2d: Sum(rhs),rhsMax =  -1.08334172676418E+02  1.27159340727959E+00
(PID.TID 0000.0001)  ploadbar=  1.01027074758325E+05
 cg2d: Sum(rhs),rhsMax =  -1.08705356014821E+02  1.26728690833228E+00
(PID.TID 0000.0001)  ploadbar=  1.01028938588128E+05
 cg2d: Sum(rhs),rhsMax =  -1.09107851171572E+02  1.26264549540461E+00
(PID.TID 0000.0001)  ploadbar=  1.01030802417932E+05
 cg2d: Sum(rhs),rhsMax =  -1.09594257279422E+02  1.25707264330104E+00
(PID.TID 0000.0001)  ploadbar=  1.01032666247735E+05
 cg2d: Sum(rhs),rhsMax =  -1.10155605907122E+02  1.25069534385391E+00
(PID.TID 0000.0001)  ploadbar=  1.01034530077539E+05
 cg2d: Sum(rhs),rhsMax =  -1.10782933629272E+02  1.24363961977828E+00
(PID.TID 0000.0001)  ploadbar=  1.01036393907342E+05
 cg2d: Sum(rhs),rhsMax =  -1.11482841482393E+02  1.23585103751707E+00
(PID.TID 0000.0001)  ploadbar=  1.01038257737146E+05
 cg2d: Sum(rhs),rhsMax =  -1.12241285750472E+02  1.22752870292008E+00
(PID.TID 0000.0001)  ploadbar=  1.01039974092424E+05
 cg2d: Sum(rhs),rhsMax =  -1.13096256938099E+02  1.21827301552139E+00
(PID.TID 0000.0001)  ploadbar=  1.01041690447702E+05
 cg2d: Sum(rhs),rhsMax =  -1.14055164426816E+02  1.20804462794457E+00
(PID.TID 0000.0001)  ploadbar=  1.01043406802980E+05
 cg2d: Sum(rhs),rhsMax =  -1.15132385150437E+02  1.19674255472742E+00
(PID.TID 0000.0001)  ploadbar=  1.01045123158259E+05
 cg2d: Sum(rhs),rhsMax =  -1.16338812993016E+02  1.18431394676719E+00
(PID.TID 0000.0001)  ploadbar=  1.01046839513537E+05
 cg2d: Sum(rhs),rhsMax =  -1.17687775353719E+02  1.17069391999583E+00
(PID.TID 0000.0001)  ploadbar=  1.01048555868815E+05
 cg2d: Sum(rhs),rhsMax =  -1.19158667486847E+02  1.15618277721661E+00
(PID.TID 0000.0001)  ploadbar=  1.01049774991858E+05
 cg2d: Sum(rhs),rhsMax =  -1.20670043317332E+02  1.14162286502063E+00
(PID.TID 0000.0001)  ploadbar=  1.01050994114901E+05
 cg2d: Sum(rhs),rhsMax =  -1.20606692005148E+02  1.14211849004621E+00
(PID.TID 0000.0001)  ploadbar=  1.01052213237944E+05
 cg2d: Sum(rhs),rhsMax =  -1.20032872741416E+02  1.14744699342273E+00
(PID.TID 0000.0001)  ploadbar=  1.01053432360987E+05
 cg2d: Sum(rhs),rhsMax =  -1.19524823788501E+02  1.15216331833122E+00
(PID.TID 0000.0001)  ploadbar=  1.01054651484030E+05
 cg2d: Sum(rhs),rhsMax =  -1.19103143919319E+02  1.15605177368570E+00
(PID.TID 0000.0001)  ploadbar=  1.01055870607073E+05
 cg2d: Sum(rhs),rhsMax =  -1.18739845274173E+02  1.15945708646632E+00
(PID.TID 0000.0001)  ploadbar=  1.01055835254956E+05
 cg2d: Sum(rhs),rhsMax =  -1.18417587884443E+02  1.16252362054569E+00
(PID.TID 0000.0001)  ploadbar=  1.01055799902839E+05
 cg2d: Sum(rhs),rhsMax =  -1.18120106180502E+02  1.16539288328049E+00
(PID.TID 0000.0001)  ploadbar=  1.01055764550721E+05
 cg2d: Sum(rhs),rhsMax =  -1.17854406182394E+02  1.16798779480655E+00
(PID.TID 0000.0001)  ploadbar=  1.01055729198604E+05
 cg2d: Sum(rhs),rhsMax =  -1.17601061545110E+02  1.17049542473933E+00
(PID.TID 0000.0001)  ploadbar=  1.01055693846487E+05
 cg2d: Sum(rhs),rhsMax =  -1.17373977654292E+02  1.17277327199282E+00
(PID.TID 0000.0001)  ploadbar=  1.01055658494370E+05
 cg2d: Sum(rhs),rhsMax =  -1.16889713014014E+02  1.17763160900264E+00
(PID.TID 0000.0001)  ploadbar=  1.01055708470016E+05
 cg2d: Sum(rhs),rhsMax =  -1.16283451590044E+02  1.18375401261770E+00
(PID.TID 0000.0001)  ploadbar=  1.01055758445662E+05
 cg2d: Sum(rhs),rhsMax =  -1.15513871413810E+02  1.19160536877106E+00
(PID.TID 0000.0001)  ploadbar=  1.01055808421308E+05
 cg2d: Sum(rhs),rhsMax =  -1.14900496348298E+02  1.19791179505331E+00
(PID.TID 0000.0001)  ploadbar=  1.01055858396954E+05
 cg2d: Sum(rhs),rhsMax =  -1.14488370917149E+02  1.20214698934413E+00
(PID.TID 0000.0001)  ploadbar=  1.01055908372600E+05
 cg2d: Sum(rhs),rhsMax =  -1.14350161530072E+02  1.20349481987447E+00
(PID.TID 0000.0001)  ploadbar=  1.01055958348246E+05
 cg2d: Sum(rhs),rhsMax =  -1.14582205269448E+02  1.20097134169508E+00
(PID.TID 0000.0001)  ploadbar=  1.01056354032204E+05
 cg2d: Sum(rhs),rhsMax =  -1.14993313639459E+02  1.19660237817285E+00
(PID.TID 0000.0001)  ploadbar=  1.01056749716162E+05
 cg2d: Sum(rhs),rhsMax =  -1.15533102139126E+02  1.19094348233863E+00
(PID.TID 0000.0001)  ploadbar=  1.01057145400121E+05
 cg2d: Sum(rhs),rhsMax =  -1.16168110679578E+02  1.18436950252956E+00
(PID.TID 0000.0001)  ploadbar=  1.01057541084079E+05
 cg2d: Sum(rhs),rhsMax =  -1.16877627179916E+02  1.17711479022849E+00
(PID.TID 0000.0001)  ploadbar=  1.01057936768038E+05
 cg2d: Sum(rhs),rhsMax =  -1.17660478332944E+02  1.16920868242263E+00
(PID.TID 0000.0001)  ploadbar=  1.01058332451996E+05
 cg2d: Sum(rhs),rhsMax =  -1.18374055230590E+02  1.16206605033391E+00
(PID.TID 0000.0001)  ploadbar=  1.01057373887674E+05
 cg2d: Sum(rhs),rhsMax =  -1.19011381462809E+02  1.15571948593939E+00
(PID.TID 0000.0001)  ploadbar=  1.01056415323353E+05
 cg2d: Sum(rhs),rhsMax =  -1.19568695905358E+02  1.15017637702763E+00
(PID.TID 0000.0001)  ploadbar=  1.01055456759031E+05
 cg2d: Sum(rhs),rhsMax =  -1.18630460101202E+02  1.15908026842157E+00
(PID.TID 0000.0001)  ploadbar=  1.01054498194710E+05
 cg2d: Sum(rhs),rhsMax =  -1.17063021185415E+02  1.17436538186752E+00
(PID.TID 0000.0001)  ploadbar=  1.01053539630389E+05
 cg2d: Sum(rhs),rhsMax =  -1.15810592904659E+02  1.18678653688347E+00
(PID.TID 0000.0001)  ploadbar=  1.01052581066067E+05
 cg2d: Sum(rhs),rhsMax =  -1.14647452165352E+02  1.19860214201470E+00
(PID.TID 0000.0001)  ploadbar=  1.01051234065505E+05
 cg2d: Sum(rhs),rhsMax =  -1.13634509013672E+02  1.20910360497057E+00
(PID.TID 0000.0001)  ploadbar=  1.01049887064942E+05
 cg2d: Sum(rhs),rhsMax =  -1.12783174957351E+02  1.21807877895257E+00
(PID.TID 0000.0001)  ploadbar=  1.01048540064380E+05
 cg2d: Sum(rhs),rhsMax =  -1.12070236400090E+02  1.22570408276793E+00
(PID.TID 0000.0001)  ploadbar=  1.01047193063817E+05
 cg2d: Sum(rhs),rhsMax =  -1.11458648961844E+02  1.23233300340959E+00
(PID.TID 0000.0001)  ploadbar=  1.01045846063255E+05
 cg2d: Sum(rhs),rhsMax =  -1.10900067570225E+02  1.23846694961508E+00
(PID.TID 0000.0001)  ploadbar=  1.01044499062692E+05
 cg2d: Sum(rhs),rhsMax =  -1.10143697371724E+02  1.24688611185267E+00
(PID.TID 0000.0001)  ploadbar=  1.01044991615080E+05
 cg2d: Sum(rhs),rhsMax =  -1.09361476916057E+02  1.25569979022205E+00
(PID.TID 0000.0001)  ploadbar=  1.01045484167468E+05
 cg2d: Sum(rhs),rhsMax =  -1.08533999974092E+02  1.26514740740812E+00
(PID.TID 0000.0001)  ploadbar=  1.01045976719856E+05
 cg2d: Sum(rhs),rhsMax =  -1.07663325249578E+02  1.27523013547026E+00
(PID.TID 0000.0001)  ploadbar=  1.01046469272244E+05
 cg2d: Sum(rhs),rhsMax =  -1.06757997782305E+02  1.28587163017739E+00
(PID.TID 0000.0001)  ploadbar=  1.01046961824632E+05
 cg2d: Sum(rhs),rhsMax =  -1.05831729554975E+02  1.29692271831748E+00
(PID.TID 0000.0001)  ploadbar=  1.01047454377020E+05
 cg2d: Sum(rhs),rhsMax =  -1.04828673450219E+02  1.30915819165874E+00
(PID.TID 0000.0001)  ploadbar=  1.01047919888208E+05
 cg2d: Sum(rhs),rhsMax =  -1.03825495500515E+02  1.32165864374131E+00
(PID.TID 0000.0001)  ploadbar=  1.01048385399395E+05
 cg2d: Sum(rhs),rhsMax =  -1.02451550840431E+02  1.33925916478449E+00
(PID.TID 0000.0001)  ploadbar=  1.01048850910583E+05
 cg2d: Sum(rhs),rhsMax =  -1.01119658752045E+02  1.35680100138614E+00
(PID.TID 0000.0001)  ploadbar=  1.01049316421771E+05
 cg2d: Sum(rhs),rhsMax =  -9.98208264883155E+01  1.37438238646841E+00
(PID.TID 0000.0001)  ploadbar=  1.01049781932958E+05
 cg2d: Sum(rhs),rhsMax =  -9.86575669301791E+01  1.39053444228542E+00
(PID.TID 0000.0001)  ploadbar=  1.01050247444146E+05
 cg2d: Sum(rhs),rhsMax =  -9.75988979284244E+01  1.40554623178201E+00
(PID.TID 0000.0001)  ploadbar=  1.01051559366780E+05
 cg2d: Sum(rhs),rhsMax =  -9.65985317891011E+01  1.42000139504260E+00
(PID.TID 0000.0001)  ploadbar=  1.01052871289415E+05
 cg2d: Sum(rhs),rhsMax =  -9.56359038864124E+01  1.43415693685285E+00
(PID.TID 0000.0001)  ploadbar=  1.01054183212050E+05
 cg2d: Sum(rhs),rhsMax =  -9.46971666900330E+01  1.44819294868724E+00
(PID.TID 0000.0001)  ploadbar=  1.01055495134684E+05
 cg2d: Sum(rhs),rhsMax =  -9.37834559986122E+01  1.46207415586094E+00
(PID.TID 0000.0001)  ploadbar=  1.01056807057319E+05
 cg2d: Sum(rhs),rhsMax =  -9.28972969063697E+01  1.47574495929755E+00
(PID.TID 0000.0001)  ploadbar=  1.01058118979953E+05
 cg2d: Sum(rhs),rhsMax =  -9.20895047337400E+01  1.48846971318956E+00
(PID.TID 0000.0001)  ploadbar=  1.01057715538098E+05
 cg2d: Sum(rhs),rhsMax =  -9.13498988946348E+01  1.50034251213473E+00
(PID.TID 0000.0001)  ploadbar=  1.01057312096241E+05
 cg2d: Sum(rhs),rhsMax =  -9.06874470094447E+01  1.51115792901153E+00
(PID.TID 0000.0001)  ploadbar=  1.01056908654386E+05
 cg2d: Sum(rhs),rhsMax =  -9.00681069772177E+01  1.52143753137962E+00
(PID.TID 0000.0001)  ploadbar=  1.01056505212530E+05
 cg2d: Sum(rhs),rhsMax =  -8.92221447572098E+01  1.53578357000403E+00
(PID.TID 0000.0001)  ploadbar=  1.01056101770674E+05
 cg2d: Sum(rhs),rhsMax =  -8.83536998309527E+01  1.55083088557878E+00
(PID.TID 0000.0001)  ploadbar=  1.01055698328818E+05
 cg2d: Sum(rhs),rhsMax =  -8.74842168290928E+01  1.56616389921523E+00
(PID.TID 0000.0001)  ploadbar=  1.01055194103258E+05
 cg2d: Sum(rhs),rhsMax =  -8.66411101079733E+01  1.58128063233938E+00
(PID.TID 0000.0001)  ploadbar=  1.01054689877699E+05
 cg2d: Sum(rhs),rhsMax =  -8.70689378865664E+01  1.57334147586603E+00
(PID.TID 0000.0001)  ploadbar=  1.01054185652140E+05
 cg2d: Sum(rhs),rhsMax =  -8.80113904244869E+01  1.55628081256824E+00
(PID.TID 0000.0001)  ploadbar=  1.01053681426580E+05
 cg2d: Sum(rhs),rhsMax =  -8.90230189680194E+01  1.53834039902840E+00
(PID.TID 0000.0001)  ploadbar=  1.01053177201021E+05
 cg2d: Sum(rhs),rhsMax =  -9.01116031269329E+01  1.51945540122365E+00
(PID.TID 0000.0001)  ploadbar=  1.01052672975462E+05
 cg2d: Sum(rhs),rhsMax =  -9.11134054268259E+01  1.50247392535084E+00
(PID.TID 0000.0001)  ploadbar=  1.01051988607045E+05
 cg2d: Sum(rhs),rhsMax =  -9.20357008841619E+01  1.48716185563658E+00
(PID.TID 0000.0001)  ploadbar=  1.01051304238629E+05
 cg2d: Sum(rhs),rhsMax =  -9.28701118157179E+01  1.47356406363093E+00
(PID.TID 0000.0001)  ploadbar=  1.01050619870213E+05
 cg2d: Sum(rhs),rhsMax =  -9.35718458230643E+01  1.46229641262464E+00
(PID.TID 0000.0001)  ploadbar=  1.01049935501797E+05
 cg2d: Sum(rhs),rhsMax =  -9.41357036181051E+01  1.45333630829420E+00
(PID.TID 0000.0001)  ploadbar=  1.01049251133381E+05
 cg2d: Sum(rhs),rhsMax =  -9.43623544352817E+01  1.44964427900450E+00
(PID.TID 0000.0001)  ploadbar=  1.01048566764964E+05
 cg2d: Sum(rhs),rhsMax =  -9.35389921824212E+01  1.46220871793625E+00
(PID.TID 0000.0001)  ploadbar=  1.01047491706778E+05
 cg2d: Sum(rhs),rhsMax =  -9.27286817871982E+01  1.47478352771785E+00
(PID.TID 0000.0001)  ploadbar=  1.01046416648591E+05
 cg2d: Sum(rhs),rhsMax =  -9.19339461808062E+01  1.48731475017670E+00
(PID.TID 0000.0001)  ploadbar=  1.01045341590405E+05
 cg2d: Sum(rhs),rhsMax =  -9.11980062277978E+01  1.49907923895129E+00
(PID.TID 0000.0001)  ploadbar=  1.01044266532219E+05
 cg2d: Sum(rhs),rhsMax =  -9.14196387114289E+01  1.49518712818528E+00
(PID.TID 0000.0001)  ploadbar=  1.01043191474032E+05
 cg2d: Sum(rhs),rhsMax =  -9.17158303540150E+01  1.49007882854976E+00
(PID.TID 0000.0001)  ploadbar=  1.01042116415846E+05
 cg2d: Sum(rhs),rhsMax =  -9.21178611290717E+01  1.48336637915780E+00
(PID.TID 0000.0001)  ploadbar=  1.01040142921763E+05
 cg2d: Sum(rhs),rhsMax =  -9.26367749060870E+01  1.47490304284504E+00
(PID.TID 0000.0001)  ploadbar=  1.01038169427681E+05
 cg2d: Sum(rhs),rhsMax =  -9.32638363262966E+01  1.46487218541500E+00
(PID.TID 0000.0001)  ploadbar=  1.01036195933599E+05
 cg2d: Sum(rhs),rhsMax =  -9.39650551644914E+01  1.45386062601801E+00
(PID.TID 0000.0001)  ploadbar=  1.01034222439516E+05
 cg2d: Sum(rhs),rhsMax =  -9.47179623800729E+01  1.44225879516165E+00
(PID.TID 0000.0001)  ploadbar=  1.01032248945434E+05
 cg2d: Sum(rhs),rhsMax =  -9.55147067812031E+01  1.43021595248952E+00
(PID.TID 0000.0001)  ploadbar=  1.01030275451352E+05
 cg2d: Sum(rhs),rhsMax =  -9.64205818044015E+01  1.41675525255181E+00
(PID.TID 0000.0001)  ploadbar=  1.01028395968358E+05
 cg2d: Sum(rhs),rhsMax =  -9.74845029139744E+01  1.40125140012558E+00
(PID.TID 0000.0001)  ploadbar=  1.01026516485364E+05
 cg2d: Sum(rhs),rhsMax =  -9.87321594923128E+01  1.38348339071441E+00
(PID.TID 0000.0001)  ploadbar=  1.01024637002370E+05
 cg2d: Sum(rhs),rhsMax =  -1.00175237030213E+02  1.36347495081839E+00
(PID.TID 0000.0001)  ploadbar=  1.01022757519376E+05
 cg2d: Sum(rhs),rhsMax =  -1.01834382681060E+02  1.34116566584981E+00
(PID.TID 0000.0001)  ploadbar=  1.01020878036383E+05
 cg2d: Sum(rhs),rhsMax =  -1.03697031454903E+02  1.31695852498237E+00
(PID.TID 0000.0001)  ploadbar=  1.01018998553389E+05
 cg2d: Sum(rhs),rhsMax =  -1.05720772253722E+02  1.29165750353563E+00
(PID.TID 0000.0001)  ploadbar=  1.01017607703917E+05
 cg2d: Sum(rhs),rhsMax =  -1.07843655182455E+02  1.26615802239141E+00
(PID.TID 0000.0001)  ploadbar=  1.01016216854445E+05
 cg2d: Sum(rhs),rhsMax =  -1.10042091859327E+02  1.24080980285575E+00
(PID.TID 0000.0001)  ploadbar=  1.01014826004973E+05
 cg2d: Sum(rhs),rhsMax =  -1.10195455484440E+02  1.23904856371331E+00
(PID.TID 0000.0001)  ploadbar=  1.01013435155501E+05
 cg2d: Sum(rhs),rhsMax =  -1.10349528681144E+02  1.23730195364907E+00
(PID.TID 0000.0001)  ploadbar=  1.01012044306029E+05
 cg2d: Sum(rhs),rhsMax =  -1.10563490454695E+02  1.23489757680763E+00
(PID.TID 0000.0001)  ploadbar=  1.01010653456557E+05
 cg2d: Sum(rhs),rhsMax =  -1.10730137533626E+02  1.23301482738041E+00
(PID.TID 0000.0001)  ploadbar=  1.01008133506582E+05
 cg2d: Sum(rhs),rhsMax =  -1.10841802418312E+02  1.23172094910625E+00
(PID.TID 0000.0001)  ploadbar=  1.01005613556608E+05
 cg2d: Sum(rhs),rhsMax =  -1.10880610416403E+02  1.23120562277631E+00
(PID.TID 0000.0001)  ploadbar=  1.01003093606634E+05
 cg2d: Sum(rhs),rhsMax =  -1.10846749154125E+02  1.23146302126889E+00
(PID.TID 0000.0001)  ploadbar=  1.01000573656659E+05
 cg2d: Sum(rhs),rhsMax =  -1.12756697778571E+02  1.21045169751258E+00
(PID.TID 0000.0001)  ploadbar=  1.00998053706685E+05
 cg2d: Sum(rhs),rhsMax =  -1.14881220349134E+02  1.18788276985368E+00
(PID.TID 0000.0001)  ploadbar=  1.00995533756711E+05
 cg2d: Sum(rhs),rhsMax =  -1.14306664876462E+02  1.19373722134157E+00
(PID.TID 0000.0001)  ploadbar=  1.00993142634120E+05
 cg2d: Sum(rhs),rhsMax =  -1.13168620300000E+02  1.20567831634636E+00
(PID.TID 0000.0001)  ploadbar=  1.00990751511530E+05
 cg2d: Sum(rhs),rhsMax =  -1.11768155298768E+02  1.22076356145099E+00
(PID.TID 0000.0001)  ploadbar=  1.00988360388939E+05
 cg2d: Sum(rhs),rhsMax =  -1.10204541179393E+02  1.23810006461927E+00
(PID.TID 0000.0001)  ploadbar=  1.00985969266348E+05
 cg2d: Sum(rhs),rhsMax =  -1.08462381818826E+02  1.25804338088779E+00
(PID.TID 0000.0001)  ploadbar=  1.00983578143758E+05
 cg2d: Sum(rhs),rhsMax =  -1.06549663740293E+02  1.28072508793264E+00
(PID.TID 0000.0001)  ploadbar=  1.00981187021167E+05
 cg2d: Sum(rhs),rhsMax =  -1.04947679080340E+02  1.30035026250192E+00
(PID.TID 0000.0001)  ploadbar=  1.00979251729067E+05
 cg2d: Sum(rhs),rhsMax =  -1.03610088514186E+02  1.31717821817193E+00
(PID.TID 0000.0001)      cg2d_init_res =   3.03321562394989E-01
(PID.TID 0000.0001)      cg2d_iters(min,last) =      -1     135
(PID.TID 0000.0001)      cg2d_last_res =   9.97624015116079E-08
(PID.TID 0000.0001) // =======================================================
(PID.TID 0000.0001) // Begin MONITOR dynamic field statistics
(PID.TID 0000.0001) // =======================================================
(PID.TID 0000.0001) %MON time_tsnumber                =                  8760
(PID.TID 0000.0001) %MON time_secondsf                =   3.1536000000000E+07
(PID.TID 0000.0001) %MON dynstat_eta_max              =   1.0485520505284E+00
(PID.TID 0000.0001) %MON dynstat_eta_min              =  -4.6478845922557E+00
(PID.TID 0000.0001) %MON dynstat_eta_mean             =   6.9073205284665E-02
(PID.TID 0000.0001) %MON dynstat_eta_sd               =   6.8795405392827E-01
(PID.TID 0000.0001) %MON dynstat_eta_del2             =   1.9651298669630E-04
(PID.TID 0000.0001) %MON dynstat_uvel_max             =   1.0552440180681E+00
(PID.TID 0000.0001) %MON dynstat_uvel_min             =  -8.1373290448341E-01
(PID.TID 0000.0001) %MON dynstat_uvel_mean            =   1.1483052938089E-03
(PID.TID 0000.0001) %MON dynstat_uvel_sd              =   2.0604161362736E-02
(PID.TID 0000.0001) %MON dynstat_uvel_del2            =   9.1850928142052E-06
(PID.TID 0000.0001) %MON dynstat_vvel_max             =   1.0566594220108E+00
(PID.TID 0000.0001) %MON dynstat_vvel_min             =  -9.6825506727058E-01
(PID.TID 0000.0001) %MON dynstat_vvel_mean            =   1.2313838657922E-03
(PID.TID 0000.0001) %MON dynstat_vvel_sd              =   2.2220060306381E-02
(PID.TID 0000.0001) %MON dynstat_vvel_del2            =   9.7591881757551E-06
(PID.TID 0000.0001) %MON dynstat_wvel_max             =   5.0050199806029E-04
(PID.TID 0000.0001) %MON dynstat_wvel_min             =  -9.6418876700171E-04
(PID.TID 0000.0001) %MON dynstat_wvel_mean            =  -1.3622871298635E-09
(PID.TID 0000.0001) %MON dynstat_wvel_sd              =   2.1868742307155E-05
(PID.TID 0000.0001) %MON dynstat_wvel_del2            =   1.6364327693139E-08
(PID.TID 0000.0001) %MON dynstat_theta_max            =   3.1648224126306E+01
(PID.TID 0000.0001) %MON dynstat_theta_min            =  -1.9853704226020E+00
(PID.TID 0000.0001) %MON dynstat_theta_mean           =   3.5809892437659E+00
(PID.TID 0000.0001) %MON dynstat_theta_sd             =   4.4209472674428E+00
(PID.TID 0000.0001) %MON dynstat_theta_del2           =   9.1122957137957E-05
(PID.TID 0000.0001) %MON dynstat_salt_max             =   4.0642654617464E+01
(PID.TID 0000.0001) %MON dynstat_salt_min             =   2.3276055951248E+01
(PID.TID 0000.0001) %MON dynstat_salt_mean            =   3.4727009703340E+01
(PID.TID 0000.0001) %MON dynstat_salt_sd              =   3.7817918562727E-01
(PID.TID 0000.0001) %MON dynstat_salt_del2            =   2.0317363019557E-05
(PID.TID 0000.0001) %MON dynstat_sst_max              =   3.1648209985111E+01
(PID.TID 0000.0001) %MON dynstat_sst_min              =  -1.9613981152399E+00
(PID.TID 0000.0001) %MON dynstat_sst_mean             =   1.8093196241336E+01
(PID.TID 0000.0001) %MON dynstat_sst_sd               =   1.0004286031069E+01
(PID.TID 0000.0001) %MON dynstat_sst_del2             =   6.7394817798109E-04
(PID.TID 0000.0001) %MON dynstat_sss_max              =   4.0170588154836E+01
(PID.TID 0000.0001) %MON dynstat_sss_min              =   2.3276055951248E+01
(PID.TID 0000.0001) %MON dynstat_sss_mean             =   3.4737983624920E+01
(PID.TID 0000.0001) %MON dynstat_sss_sd               =   1.2254053833244E+00
(PID.TID 0000.0001) %MON dynstat_sss_del2             =   2.9906122198482E-04
(PID.TID 0000.0001) %MON forcing_qnet_max             =   8.8703156806961E+02
(PID.TID 0000.0001) %MON forcing_qnet_min             =  -6.3074223223071E+02
(PID.TID 0000.0001) %MON forcing_qnet_mean            =   7.1625274433105E+00
(PID.TID 0000.0001) %MON forcing_qnet_sd              =   2.1949342390232E+02
(PID.TID 0000.0001) %MON forcing_qnet_del2            =   1.1604483671026E-01
(PID.TID 0000.0001) %MON forcing_qsw_max              =   7.8741813032998E+01
(PID.TID 0000.0001) %MON forcing_qsw_min              =  -7.3380015597812E+02
(PID.TID 0000.0001) %MON forcing_qsw_mean             =  -1.6364870672237E+02
(PID.TID 0000.0001) %MON forcing_qsw_sd               =   1.8407447928947E+02
(PID.TID 0000.0001) %MON forcing_qsw_del2             =   6.8181933864979E-02
(PID.TID 0000.0001) %MON forcing_empmr_max            =   1.4343679368042E-03
(PID.TID 0000.0001) %MON forcing_empmr_min            =  -3.8356451334477E-03
(PID.TID 0000.0001) %MON forcing_empmr_mean           =  -6.0901840198679E-07
(PID.TID 0000.0001) %MON forcing_empmr_sd             =   1.0718968209376E-04
(PID.TID 0000.0001) %MON forcing_empmr_del2           =   3.3479946560215E-07
(PID.TID 0000.0001) %MON forcing_fu_max               =   1.0807091097037E+00
(PID.TID 0000.0001) %MON forcing_fu_min               =  -1.4697046260651E+00
(PID.TID 0000.0001) %MON forcing_fu_mean              =   1.1683646649838E-02
(PID.TID 0000.0001) %MON forcing_fu_sd                =   1.2497326658790E-01
(PID.TID 0000.0001) %MON forcing_fu_del2              =   8.3583360099688E-05
(PID.TID 0000.0001) %MON forcing_fv_max               =   1.6988879848080E+00
(PID.TID 0000.0001) %MON forcing_fv_min               =  -1.4100250545470E+00
(PID.TID 0000.0001) %MON forcing_fv_mean              =  -3.0877285563483E-03
(PID.TID 0000.0001) %MON forcing_fv_sd                =   1.1860584469102E-01
(PID.TID 0000.0001) %MON forcing_fv_del2              =   9.2553266737017E-05
(PID.TID 0000.0001) %MON trAdv_CFL_u_max              =   7.0214778480231E-02
(PID.TID 0000.0001) %MON trAdv_CFL_v_max              =   7.0372822349035E-02
(PID.TID 0000.0001) %MON trAdv_CFL_w_max              =   2.3626582421139E-01
(PID.TID 0000.0001) %MON advcfl_uvel_max              =   7.6676760089512E-02
(PID.TID 0000.0001) %MON advcfl_vvel_max              =   6.2696527450500E-02
(PID.TID 0000.0001) %MON advcfl_wvel_max              =   2.3981298047158E-01
(PID.TID 0000.0001) %MON advcfl_W_hf_max              =   2.4054146540259E-01
(PID.TID 0000.0001) %MON pe_b_mean                    =   2.2588327426492E-03
(PID.TID 0000.0001) %MON ke_max                       =   5.6266082454012E-01
(PID.TID 0000.0001) %MON ke_mean                      =   4.4415088915274E-04
(PID.TID 0000.0001) %MON ke_vol                       =   1.3350226053414E+18
(PID.TID 0000.0001) %MON vort_r_min                   =  -3.0906800996330E-05
(PID.TID 0000.0001) %MON vort_r_max                   =   1.7007313642887E-05
(PID.TID 0000.0001) %MON vort_a_mean                  =  -1.9727725038459E-05
(PID.TID 0000.0001) %MON vort_a_sd                    =   7.4542991507843E-05
(PID.TID 0000.0001) %MON vort_p_mean                  =  -2.1759925149188E-05
(PID.TID 0000.0001) %MON vort_p_sd                    =   9.7244780254188E-05
(PID.TID 0000.0001) %MON surfExpan_theta_mean         =  -3.0538648388513E-08
(PID.TID 0000.0001) %MON surfExpan_salt_mean          =   8.3761145114350E-09
(PID.TID 0000.0001) // =======================================================
(PID.TID 0000.0001) // End MONITOR dynamic field statistics
(PID.TID 0000.0001) // =======================================================
(PID.TID 0000.0001)  ploadbar=  1.00977316436967E+05
(PID.TID 0000.0001) %SBO sbo_mass                     =   1.3737591078265E+21
(PID.TID 0000.0001) %SBO sbo_mass_fw                  =   4.6292455979927E+16
(PID.TID 0000.0001) %SBO sbo_zoamc                    =   1.2299302478383E+25
(PID.TID 0000.0001) %SBO sbo_zoamp                    =   2.9276636774981E+30
(PID.TID 0000.0001) // =======================================================
(PID.TID 0000.0001) // Begin MONITOR SEAICE statistics
(PID.TID 0000.0001) // =======================================================
(PID.TID 0000.0001) %MON seaice_tsnumber              =                  8760
(PID.TID 0000.0001) %MON seaice_time_sec              =   3.1536000000000E+07
(PID.TID 0000.0001) %MON seaice_uice_max              =   4.0000000000000E-01
(PID.TID 0000.0001) %MON seaice_uice_min              =  -4.0000000000000E-01
(PID.TID 0000.0001) %MON seaice_uice_mean             =  -5.5326816854343E-03
(PID.TID 0000.0001) %MON seaice_uice_sd               =   1.8285982304598E-01
(PID.TID 0000.0001) %MON seaice_uice_del2             =   1.5616435497274E-04
(PID.TID 0000.0001) %MON seaice_vice_max              =   4.0000000000000E-01
(PID.TID 0000.0001) %MON seaice_vice_min              =  -4.0000000000000E-01
(PID.TID 0000.0001) %MON seaice_vice_mean             =  -8.7886713145110E-03
(PID.TID 0000.0001) %MON seaice_vice_sd               =   1.7875685760528E-01
(PID.TID 0000.0001) %MON seaice_vice_del2             =   1.6414751732849E-04
(PID.TID 0000.0001) %MON seaice_area_max              =   9.7000000000000E-01
(PID.TID 0000.0001) %MON seaice_area_min              =   0.0000000000000E+00
(PID.TID 0000.0001) %MON seaice_area_mean             =   5.3015572524576E-02
(PID.TID 0000.0001) %MON seaice_area_sd               =   2.0577757695725E-01
(PID.TID 0000.0001) %MON seaice_area_del2             =   2.2274645355099E-04
(PID.TID 0000.0001) %MON seaice_heff_max              =   4.8764433511112E+00
(PID.TID 0000.0001) %MON seaice_heff_min              =   0.0000000000000E+00
(PID.TID 0000.0001) %MON seaice_heff_mean             =   6.1093842731804E-02
(PID.TID 0000.0001) %MON seaice_heff_sd               =   2.9469574970293E-01
(PID.TID 0000.0001) %MON seaice_heff_del2             =   2.0109480891009E-04
(PID.TID 0000.0001) %MON seaice_hsnow_max             =   9.9784027348732E-01
(PID.TID 0000.0001) %MON seaice_hsnow_min             =  -6.5821289235208E-05
(PID.TID 0000.0001) %MON seaice_hsnow_mean            =   7.9751658204931E-03
(PID.TID 0000.0001) %MON seaice_hsnow_sd              =   4.0579579968147E-02
(PID.TID 0000.0001) %MON seaice_hsnow_del2            =   4.9016473640709E-05
(PID.TID 0000.0001) // =======================================================
(PID.TID 0000.0001) // End MONITOR SEAICE statistics
(PID.TID 0000.0001) // =======================================================
(PID.TID 0000.0001) // =======================================================
(PID.TID 0000.0001) // Begin MONITOR EXF statistics
(PID.TID 0000.0001) // =======================================================
(PID.TID 0000.0001) %MON exf_tsnumber                 =                  8760
(PID.TID 0000.0001) %MON exf_time_sec                 =   3.1536000000000E+07
(PID.TID 0000.0001) %MON exf_ustress_max              =   1.0156559348106E+00
(PID.TID 0000.0001) %MON exf_ustress_min              =  -2.2625053875783E+00
(PID.TID 0000.0001) %MON exf_ustress_mean             =   1.1084586131823E-02
(PID.TID 0000.0001) %MON exf_ustress_sd               =   1.2454182166453E-01
(PID.TID 0000.0001) %MON exf_ustress_del2             =   9.3896256013643E-05
(PID.TID 0000.0001) %MON exf_vstress_max              =   1.7142878514972E+00
(PID.TID 0000.0001) %MON exf_vstress_min              =  -1.5219366022962E+00
(PID.TID 0000.0001) %MON exf_vstress_mean             =  -2.2483364530680E-03
(PID.TID 0000.0001) %MON exf_vstress_sd               =   1.2072565212027E-01
(PID.TID 0000.0001) %MON exf_vstress_del2             =   1.0038907146811E-04
(PID.TID 0000.0001) %MON exf_hflux_max                =   1.4681290213012E+03
(PID.TID 0000.0001) %MON exf_hflux_min                =  -5.8336019067383E+02
(PID.TID 0000.0001) %MON exf_hflux_mean               =   1.9181846401164E+01
(PID.TID 0000.0001) %MON exf_hflux_sd                 =   2.4056546415057E+02
(PID.TID 0000.0001) %MON exf_hflux_del2               =   5.7695937099394E-01
(PID.TID 0000.0001) %MON exf_sflux_max                =   1.7687099583316E-07
(PID.TID 0000.0001) %MON exf_sflux_min                =  -3.7199267943198E-06
(PID.TID 0000.0001) %MON exf_sflux_mean               =   2.4665725843824E-09
(PID.TID 0000.0001) %MON exf_sflux_sd                 =   9.3037240257986E-08
(PID.TID 0000.0001) %MON exf_sflux_del2               =   2.8758674816056E-10
(PID.TID 0000.0001) %MON exf_wspeed_max               =   2.3689439773560E+01
(PID.TID 0000.0001) %MON exf_wspeed_min               =   2.2191631793976E-01
(PID.TID 0000.0001) %MON exf_wspeed_mean              =   7.2969761374129E+00
(PID.TID 0000.0001) %MON exf_wspeed_sd                =   3.2211398786502E+00
(PID.TID 0000.0001) %MON exf_wspeed_del2              =   1.7422885013837E-02
(PID.TID 0000.0001) %MON exf_atemp_max                =   3.0559659519196E+02
(PID.TID 0000.0001) %MON exf_atemp_min                =   2.2842357101440E+02
(PID.TID 0000.0001) %MON exf_atemp_mean               =   2.8912523457904E+02
(PID.TID 0000.0001) %MON exf_atemp_sd                 =   1.2070215130679E+01
(PID.TID 0000.0001) %MON exf_atemp_del2               =   3.5872179313592E-02
(PID.TID 0000.0001) %MON exf_aqh_max                  =   2.2679240442812E-02
(PID.TID 0000.0001) %MON exf_aqh_min                  =  -5.4024791097618E-05
(PID.TID 0000.0001) %MON exf_aqh_mean                 =   1.0717102069315E-02
(PID.TID 0000.0001) %MON exf_aqh_sd                   =   5.5889041524629E-03
(PID.TID 0000.0001) %MON exf_aqh_del2                 =   2.0418955442351E-05
(PID.TID 0000.0001) %MON exf_lwflux_max               =   2.1272629291195E+02
(PID.TID 0000.0001) %MON exf_lwflux_min               =  -2.2740702071751E+01
(PID.TID 0000.0001) %MON exf_lwflux_mean              =   4.8048499693652E+01
(PID.TID 0000.0001) %MON exf_lwflux_sd                =   2.7380850460625E+01
(PID.TID 0000.0001) %MON exf_lwflux_del2              =   1.2958546210145E-01
(PID.TID 0000.0001) %MON exf_evap_max                 =   1.8846554440896E-07
(PID.TID 0000.0001) %MON exf_evap_min                 =  -2.6871354707859E-08
(PID.TID 0000.0001) %MON exf_evap_mean                =   4.5256344301300E-08
(PID.TID 0000.0001) %MON exf_evap_sd                  =   2.7955345531773E-08
(PID.TID 0000.0001) %MON exf_evap_del2                =   9.8235999662419E-11
(PID.TID 0000.0001) %MON exf_precip_max               =   3.7563148680420E-06
(PID.TID 0000.0001) %MON exf_precip_min               =  -2.3496198764406E-08
(PID.TID 0000.0001) %MON exf_precip_mean              =   3.9731962243530E-08
(PID.TID 0000.0001) %MON exf_precip_sd                =   8.6527870392759E-08
(PID.TID 0000.0001) %MON exf_precip_del2              =   2.8158771892603E-10
(PID.TID 0000.0001) %MON exf_swflux_max               =   1.0514332504272E+02
(PID.TID 0000.0001) %MON exf_swflux_min               =  -7.0088182167762E+02
(PID.TID 0000.0001) %MON exf_swflux_mean              =  -1.6984484222692E+02
(PID.TID 0000.0001) %MON exf_swflux_sd                =   1.7832369862010E+02
(PID.TID 0000.0001) %MON exf_swflux_del2              =   4.8356494001518E-01
(PID.TID 0000.0001) %MON exf_swdown_max               =   7.5611276245117E+02
(PID.TID 0000.0001) %MON exf_swdown_min               =  -1.5020475006104E+02
(PID.TID 0000.0001) %MON exf_swdown_mean              =   1.8390235358822E+02
(PID.TID 0000.0001) %MON exf_swdown_sd                =   1.9296332695655E+02
(PID.TID 0000.0001) %MON exf_swdown_del2              =   5.2494008779202E-01
(PID.TID 0000.0001) %MON exf_lwdown_max               =   4.6807113647461E+02
(PID.TID 0000.0001) %MON exf_lwdown_min               =   8.7367366790771E+01
(PID.TID 0000.0001) %MON exf_lwdown_mean              =   3.6125567718052E+02
(PID.TID 0000.0001) %MON exf_lwdown_sd                =   6.3987977100593E+01
(PID.TID 0000.0001) %MON exf_lwdown_del2              =   6.9128037710959E-01
(PID.TID 0000.0001) %MON exf_apressure_max            =   1.0322605468750E+05
(PID.TID 0000.0001) %MON exf_apressure_min            =   9.6221128906250E+04
(PID.TID 0000.0001) %MON exf_apressure_mean           =   1.0097538114487E+05
(PID.TID 0000.0001) %MON exf_apressure_sd             =   1.0500788948867E+03
(PID.TID 0000.0001) %MON exf_apressure_del2           =   2.0646639561424E+02
(PID.TID 0000.0001) %MON exf_runoff_max               =   1.9834598509577E-06
(PID.TID 0000.0001) %MON exf_runoff_min               =   0.0000000000000E+00
(PID.TID 0000.0001) %MON exf_runoff_mean              =   3.0578094733873E-09
(PID.TID 0000.0001) %MON exf_runoff_sd                =   2.3469962782488E-08
(PID.TID 0000.0001) %MON exf_runoff_del2              =   6.8474404004213E-11
(PID.TID 0000.0001) // =======================================================
(PID.TID 0000.0001) // End MONITOR EXF statistics
(PID.TID 0000.0001) // =======================================================
 cg2d: Sum(rhs),rhsMax =  -1.02385462692882E+02  1.33293670865450E+00
(PID.TID 0000.0001)  ploadbar=  1.00975381144867E+05
 cg2d: Sum(rhs),rhsMax =  -1.01374003488134E+02  1.34620360564132E+00
(PID.TID 0000.0001)  ploadbar=  1.00973445852767E+05
 cg2d: Sum(rhs),rhsMax =  -1.00587250010903E+02  1.35666467531691E+00
(PID.TID 0000.0001)  ploadbar=  1.00971510560667E+05
 cg2d: Sum(rhs),rhsMax =  -1.00054282507125E+02  1.36378181454777E+00
(PID.TID 0000.0001)  ploadbar=  1.00969575268567E+05
 cg2d: Sum(rhs),rhsMax =  -9.97896666708291E+01  1.36730120719484E+00
(PID.TID 0000.0001)  ploadbar=  1.00967518689577E+05
 cg2d: Sum(rhs),rhsMax =  -9.97555484799833E+01  1.36767749266487E+00
(PID.TID 0000.0001)  ploadbar=  1.00965462110587E+05
 cg2d: Sum(rhs),rhsMax =  -9.98171286681838E+01  1.36674935407695E+00
(PID.TID 0000.0001)  ploadbar=  1.00963405531596E+05
 cg2d: Sum(rhs),rhsMax =  -9.99913239643560E+01  1.36429452999274E+00
(PID.TID 0000.0001)  ploadbar=  1.00961348952606E+05
 cg2d: Sum(rhs),rhsMax =  -1.00270941626809E+02  1.36042996482998E+00
(PID.TID 0000.0001)  ploadbar=  1.00959292373616E+05
 cg2d: Sum(rhs),rhsMax =  -1.00641992291239E+02  1.35535821667919E+00
(PID.TID 0000.0001)  ploadbar=  1.00957235794626E+05
 cg2d: Sum(rhs),rhsMax =  -1.00949207933512E+02  1.35117334510679E+00
(PID.TID 0000.0001)  ploadbar=  1.00955521529846E+05
 cg2d: Sum(rhs),rhsMax =  -1.01281511689358E+02  1.34666435677423E+00
(PID.TID 0000.0001)  ploadbar=  1.00953807265067E+05
(PID.TID 0000.0001) %CHECKPOINT      8772 0000008772
 cg2d: Sum(rhs),rhsMax =  -1.01677962271348E+02  1.34131404069037E+00
(PID.TID 0000.0001)  ploadbar=  1.00952093000287E+05
 cg2d: Sum(rhs),rhsMax =  -1.02091676974687E+02  1.33575248116128E+00
(PID.TID 0000.0001)  ploadbar=  1.00950378735508E+05
 cg2d: Sum(rhs),rhsMax =  -1.02537452421198E+02  1.32979198922978E+00
(PID.TID 0000.0001)  ploadbar=  1.00948664470728E+05
 cg2d: Sum(rhs),rhsMax =  -1.03011233455934E+02  1.32349478428594E+00
(PID.TID 0000.0001)  ploadbar=  1.00946950205949E+05
 cg2d: Sum(rhs),rhsMax =  -1.03550442890625E+02  1.31647909823051E+00
(PID.TID 0000.0001)  ploadbar=  1.00946667326083E+05
 cg2d: Sum(rhs),rhsMax =  -1.04052836635913E+02  1.31004055347409E+00
(PID.TID 0000.0001)  ploadbar=  1.00946384446217E+05
 cg2d: Sum(rhs),rhsMax =  -1.04503589702948E+02  1.30433958739941E+00
(PID.TID 0000.0001)  ploadbar=  1.00946101566351E+05
 cg2d: Sum(rhs),rhsMax =  -1.04869418252525E+02  1.29976673359494E+00
(PID.TID 0000.0001)  ploadbar=  1.00945818686485E+05
 cg2d: Sum(rhs),rhsMax =  -1.05149364242734E+02  1.29631271782488E+00
(PID.TID 0000.0001)  ploadbar=  1.00945535806619E+05
 cg2d: Sum(rhs),rhsMax =  -1.05355617867598E+02  1.29381044308166E+00
(PID.TID 0000.0001)  ploadbar=  1.00945252926753E+05
 cg2d: Sum(rhs),rhsMax =  -1.05538910186408E+02  1.29157720135630E+00
(PID.TID 0000.0001)  ploadbar=  1.00945328229937E+05
 cg2d: Sum(rhs),rhsMax =  -1.05810858018123E+02  1.28824273019926E+00
(PID.TID 0000.0001)  ploadbar=  1.00945403533121E+05
 cg2d: Sum(rhs),rhsMax =  -1.06165052676994E+02  1.28390148928968E+00
(PID.TID 0000.0001)  ploadbar=  1.00945478836305E+05
 cg2d: Sum(rhs),rhsMax =  -1.06622455911851E+02  1.27832316582587E+00
(PID.TID 0000.0001)  ploadbar=  1.00945554139489E+05
 cg2d: Sum(rhs),rhsMax =  -1.07176685074888E+02  1.27161630529488E+00
(PID.TID 0000.0001)  ploadbar=  1.00945629442673E+05
 cg2d: Sum(rhs),rhsMax =  -1.07821252808477E+02  1.26389199620936E+00
(PID.TID 0000.0001)  ploadbar=  1.00945704745857E+05
 cg2d: Sum(rhs),rhsMax =  -1.08489768755960E+02  1.25599552678550E+00
(PID.TID 0000.0001)  ploadbar=  1.00945989908291E+05
 cg2d: Sum(rhs),rhsMax =  -1.09172475944200E+02  1.24803912427611E+00
(PID.TID 0000.0001)  ploadbar=  1.00946275070725E+05
 cg2d: Sum(rhs),rhsMax =  -1.09852135164873E+02  1.24022153833725E+00
(PID.TID 0000.0001)  ploadbar=  1.00946560233159E+05
 cg2d: Sum(rhs),rhsMax =  -1.10528531759199E+02  1.23254650147833E+00
(PID.TID 0000.0001)  ploadbar=  1.00946845395594E+05
 cg2d: Sum(rhs),rhsMax =  -1.11194249474685E+02  1.22509523875593E+00
(PID.TID 0000.0001)  ploadbar=  1.00947130558028E+05
 cg2d: Sum(rhs),rhsMax =  -1.11386037753032E+02  1.22292080445341E+00
(PID.TID 0000.0001)  ploadbar=  1.00947415720462E+05
 cg2d: Sum(rhs),rhsMax =  -1.10725665581929E+02  1.23012749312319E+00
(PID.TID 0000.0001)  ploadbar=  1.00947929982792E+05
 cg2d: Sum(rhs),rhsMax =  -1.09989925376049E+02  1.23823709000447E+00
(PID.TID 0000.0001)  ploadbar=  1.00948444245123E+05
 cg2d: Sum(rhs),rhsMax =  -1.09289294556668E+02  1.24601631552778E+00
(PID.TID 0000.0001)  ploadbar=  1.00948958507453E+05
 cg2d: Sum(rhs),rhsMax =  -1.08600779950192E+02  1.25371507058464E+00
(PID.TID 0000.0001)  ploadbar=  1.00949472769783E+05
 cg2d: Sum(rhs),rhsMax =  -1.07911376721437E+02  1.26148153533132E+00
(PID.TID 0000.0001)  ploadbar=  1.00949987032114E+05
 cg2d: Sum(rhs),rhsMax =  -1.07213494396015E+02  1.26940539031891E+00
(PID.TID 0000.0001)  ploadbar=  1.00950501294444E+05
 cg2d: Sum(rhs),rhsMax =  -1.06539042622064E+02  1.27719804434309E+00
(PID.TID 0000.0001)  ploadbar=  1.00949650248466E+05
 cg2d: Sum(rhs),rhsMax =  -1.05896965893347E+02  1.28473293520034E+00
(PID.TID 0000.0001)  ploadbar=  1.00948799202488E+05
 cg2d: Sum(rhs),rhsMax =  -1.05294128200636E+02  1.29190235085841E+00
(PID.TID 0000.0001)  ploadbar=  1.00947948156510E+05
 cg2d: Sum(rhs),rhsMax =  -1.04730025562406E+02  1.29869711031818E+00
(PID.TID 0000.0001)  ploadbar=  1.00947097110532E+05
 cg2d: Sum(rhs),rhsMax =  -1.04156949306766E+02  1.30570055802975E+00
(PID.TID 0000.0001)  ploadbar=  1.00946246064554E+05
 cg2d: Sum(rhs),rhsMax =  -1.03633478505814E+02  1.31217254965938E+00
(PID.TID 0000.0001)  ploadbar=  1.00945395018576E+05
 cg2d: Sum(rhs),rhsMax =  -1.03324936316827E+02  1.31595549235296E+00
(PID.TID 0000.0001)  ploadbar=  1.00946335233808E+05
 cg2d: Sum(rhs),rhsMax =  -1.02997462322855E+02  1.31998565746413E+00
(PID.TID 0000.0001)  ploadbar=  1.00947275449041E+05
 cg2d: Sum(rhs),rhsMax =  -1.02632328447082E+02  1.32450502338355E+00
(PID.TID 0000.0001)  ploadbar=  1.00948215664273E+05
 cg2d: Sum(rhs),rhsMax =  -1.02213849445190E+02  1.32972636208421E+00
(PID.TID 0000.0001)  ploadbar=  1.00949155879506E+05
 cg2d: Sum(rhs),rhsMax =  -1.01759869272204E+02  1.33542779466659E+00
(PID.TID 0000.0001)  ploadbar=  1.00950096094738E+05
 cg2d: Sum(rhs),rhsMax =  -1.01272791515202E+02  1.34158974709517E+00
(PID.TID 0000.0001)  ploadbar=  1.00951036309971E+05
 cg2d: Sum(rhs),rhsMax =  -1.00804683153132E+02  1.34757871992748E+00
(PID.TID 0000.0001)  ploadbar=  1.00951380250404E+05
 cg2d: Sum(rhs),rhsMax =  -1.00335832159928E+02  1.35364537643145E+00
(PID.TID 0000.0001)  ploadbar=  1.00951724190838E+05
 cg2d: Sum(rhs),rhsMax =  -9.98868918519024E+01  1.35950997188588E+00
(PID.TID 0000.0001)  ploadbar=  1.00952068131271E+05
 cg2d: Sum(rhs),rhsMax =  -9.95708297027270E+01  1.36361925174247E+00
(PID.TID 0000.0001)  ploadbar=  1.00952412071704E+05
 cg2d: Sum(rhs),rhsMax =  -9.94466856999354E+01  1.36513208952437E+00
(PID.TID 0000.0001)  ploadbar=  1.00952756012138E+05
 cg2d: Sum(rhs),rhsMax =  -9.96489942943100E+01  1.36217418038396E+00
(PID.TID 0000.0001)  ploadbar=  1.00953099952571E+05
 cg2d: Sum(rhs),rhsMax =  -9.96200638746761E+01  1.36237302968369E+00
(PID.TID 0000.0001)  ploadbar=  1.00953393558854E+05
 cg2d: Sum(rhs),rhsMax =  -9.98657253327075E+01  1.35880333194084E+00
(PID.TID 0000.0001)  ploadbar=  1.00953687165136E+05
 cg2d: Sum(rhs),rhsMax =  -1.00208657542964E+02  1.35390140362429E+00
(PID.TID 0000.0001)  ploadbar=  1.00953980771419E+05
 cg2d: Sum(rhs),rhsMax =  -1.00506520951502E+02  1.34959943732251E+00
(PID.TID 0000.0001)  ploadbar=  1.00954274377701E+05
 cg2d: Sum(rhs),rhsMax =  -1.00758234191467E+02  1.34589958993735E+00
(PID.TID 0000.0001)  ploadbar=  1.00954567983984E+05
 cg2d: Sum(rhs),rhsMax =  -1.00968590020666E+02  1.34272848975231E+00
(PID.TID 0000.0001)  ploadbar=  1.00954861590267E+05
 cg2d: Sum(rhs),rhsMax =  -1.01199560414335E+02  1.33935854662137E+00
(PID.TID 0000.0001)  ploadbar=  1.00954747697708E+05
 cg2d: Sum(rhs),rhsMax =  -1.01448328232345E+02  1.33582033898480E+00
(PID.TID 0000.0001)  ploadbar=  1.00954633805150E+05
 cg2d: Sum(rhs),rhsMax =  -1.01718298127912E+02  1.33206159925643E+00
(PID.TID 0000.0001)  ploadbar=  1.00954519912592E+05
 cg2d: Sum(rhs),rhsMax =  -1.02013688487771E+02  1.32802517606299E+00
(PID.TID 0000.0001)  ploadbar=  1.00954406020033E+05
 cg2d: Sum(rhs),rhsMax =  -1.02306286097849E+02  1.32407837439966E+00
(PID.TID 0000.0001)  ploadbar=  1.00954292127475E+05
 cg2d: Sum(rhs),rhsMax =  -1.02666858021556E+02  1.31930804677044E+00
(PID.TID 0000.0001)  ploadbar=  1.00954178234917E+05
 cg2d: Sum(rhs),rhsMax =  -1.03175587961431E+02  1.31268674662895E+00
(PID.TID 0000.0001)  ploadbar=  1.00954973970788E+05
 cg2d: Sum(rhs),rhsMax =  -1.03686615034862E+02  1.30609751258273E+00
(PID.TID 0000.0001)  ploadbar=  1.00955769706659E+05
 cg2d: Sum(rhs),rhsMax =  -1.04193163686462E+02  1.29962205792238E+00
(PID.TID 0000.0001)  ploadbar=  1.00956565442530E+05
 cg2d: Sum(rhs),rhsMax =  -1.04684651836820E+02  1.29338497926218E+00
(PID.TID 0000.0001)  ploadbar=  1.00957361178401E+05
 cg2d: Sum(rhs),rhsMax =  -1.05183396795053E+02  1.28710149684626E+00
(PID.TID 0000.0001)  ploadbar=  1.00958156914272E+05
 cg2d: Sum(rhs),rhsMax =  -1.05677391578559E+02  1.28091605277453E+00
(PID.TID 0000.0001)  ploadbar=  1.00958952650144E+05
 cg2d: Sum(rhs),rhsMax =  -1.06097134954101E+02  1.27570814868406E+00
(PID.TID 0000.0001)  ploadbar=  1.00960277052101E+05
 cg2d: Sum(rhs),rhsMax =  -1.06510347779151E+02  1.27064177204991E+00
(PID.TID 0000.0001)  ploadbar=  1.00961601454058E+05
 cg2d: Sum(rhs),rhsMax =  -1.06977503440992E+02  1.26499859305131E+00
(PID.TID 0000.0001)  ploadbar=  1.00962925856015E+05
 cg2d: Sum(rhs),rhsMax =  -1.07548800376501E+02  1.25820599503912E+00
(PID.TID 0000.0001)  ploadbar=  1.00964250257971E+05
 cg2d: Sum(rhs),rhsMax =  -1.08028045989743E+02  1.25257078589695E+00
(PID.TID 0000.0001)  ploadbar=  1.00965574659928E+05
 cg2d: Sum(rhs),rhsMax =  -1.08452385295875E+02  1.24762566352545E+00
(PID.TID 0000.0001)  ploadbar=  1.00966899061885E+05
 cg2d: Sum(rhs),rhsMax =  -1.08624092208100E+02  1.24559381104837E+00
(PID.TID 0000.0001)  ploadbar=  1.00967807644078E+05
 cg2d: Sum(rhs),rhsMax =  -1.08508784628995E+02  1.24683057207352E+00
(PID.TID 0000.0001)  ploadbar=  1.00968716226271E+05
 cg2d: Sum(rhs),rhsMax =  -1.08580165085083E+02  1.24588778913815E+00
(PID.TID 0000.0001)  ploadbar=  1.00969624808464E+05
 cg2d: Sum(rhs),rhsMax =  -1.08938353447109E+02  1.24162941885070E+00
(PID.TID 0000.0001)  ploadbar=  1.00970533390657E+05
 cg2d: Sum(rhs),rhsMax =  -1.09323841787041E+02  1.23704944045842E+00
(PID.TID 0000.0001)  ploadbar=  1.00971441972850E+05
 cg2d: Sum(rhs),rhsMax =  -1.09739337901795E+02  1.23212509054489E+00
(PID.TID 0000.0001)  ploadbar=  1.00972350555043E+05
 cg2d: Sum(rhs),rhsMax =  -1.10062076952049E+02  1.22831009695584E+00
(PID.TID 0000.0001)  ploadbar=  1.00972270733324E+05
 cg2d: Sum(rhs),rhsMax =  -1.10399298203582E+02  1.22438404949609E+00
(PID.TID 0000.0001)  ploadbar=  1.00972190911604E+05
 cg2d: Sum(rhs),rhsMax =  -1.10746409351631E+02  1.22039190153639E+00
(PID.TID 0000.0001)  ploadbar=  1.00972111089885E+05
 cg2d: Sum(rhs),rhsMax =  -1.11097745508984E+02  1.21639751044591E+00
(PID.TID 0000.0001)  ploadbar=  1.00972031268165E+05
 cg2d: Sum(rhs),rhsMax =  -1.11224945516362E+02  1.21488720816291E+00
(PID.TID 0000.0001)  ploadbar=  1.00971951446446E+05
 cg2d: Sum(rhs),rhsMax =  -1.09063328786220E+02  1.23885610472594E+00
(PID.TID 0000.0001)  ploadbar=  1.00971871624726E+05
 cg2d: Sum(rhs),rhsMax =  -1.07180324011617E+02  1.26050478445635E+00
(PID.TID 0000.0001)  ploadbar=  1.00972024127190E+05
 cg2d: Sum(rhs),rhsMax =  -1.05457687036453E+02  1.28096640513454E+00
(PID.TID 0000.0001)  ploadbar=  1.00972176629654E+05
 cg2d: Sum(rhs),rhsMax =  -1.03894975640070E+02  1.30009034305280E+00
(PID.TID 0000.0001)  ploadbar=  1.00972329132117E+05
 cg2d: Sum(rhs),rhsMax =  -1.02460444739561E+02  1.31813035651093E+00
(PID.TID 0000.0001)  ploadbar=  1.00972481634581E+05
 cg2d: Sum(rhs),rhsMax =  -1.01102894913371E+02  1.33564281125633E+00
(PID.TID 0000.0001)  ploadbar=  1.00972634137045E+05
 cg2d: Sum(rhs),rhsMax =  -9.97789502326579E+01  1.35315153714244E+00
(PID.TID 0000.0001)  ploadbar=  1.00972786639508E+05
 cg2d: Sum(rhs),rhsMax =  -9.84929245165690E+01  1.37062973270861E+00
(PID.TID 0000.0001)  ploadbar=  1.00973311241163E+05
 cg2d: Sum(rhs),rhsMax =  -9.72080738722655E+01  1.38857211546258E+00
(PID.TID 0000.0001)  ploadbar=  1.00973835842817E+05
 cg2d: Sum(rhs),rhsMax =  -9.59710778346038E+01  1.40631057008806E+00
(PID.TID 0000.0001)  ploadbar=  1.00974360444471E+05
 cg2d: Sum(rhs),rhsMax =  -9.48037650250128E+01  1.42348425265918E+00
(PID.TID 0000.0001)  ploadbar=  1.00974885046125E+05
 cg2d: Sum(rhs),rhsMax =  -9.37807759640001E+01  1.43888915225758E+00
(PID.TID 0000.0001)  ploadbar=  1.00975409647780E+05
 cg2d: Sum(rhs),rhsMax =  -9.30039256952917E+01  1.45079146396838E+00
(PID.TID 0000.0001)  ploadbar=  1.00975934249434E+05
 cg2d: Sum(rhs),rhsMax =  -9.24106599139619E+01  1.45996809644170E+00
(PID.TID 0000.0001)  ploadbar=  1.00975674405155E+05
 cg2d: Sum(rhs),rhsMax =  -9.20242268024491E+01  1.46593011984819E+00
(PID.TID 0000.0001)  ploadbar=  1.00975414560876E+05
 cg2d: Sum(rhs),rhsMax =  -9.17586734950779E+01  1.46996601665226E+00
(PID.TID 0000.0001)  ploadbar=  1.00975154716598E+05
 cg2d: Sum(rhs),rhsMax =  -9.15335533909080E+01  1.47333235931240E+00
(PID.TID 0000.0001)  ploadbar=  1.00974894872319E+05
 cg2d: Sum(rhs),rhsMax =  -9.12805742255247E+01  1.47712270199408E+00
(PID.TID 0000.0001)  ploadbar=  1.00974635028040E+05
 cg2d: Sum(rhs),rhsMax =  -9.09585646723148E+01  1.48201423076373E+00
(PID.TID 0000.0001)  ploadbar=  1.00974375183761E+05
 cg2d: Sum(rhs),rhsMax =  -9.05684262225549E+01  1.48810382332091E+00
(PID.TID 0000.0001)  ploadbar=  1.00973859155630E+05
 cg2d: Sum(rhs),rhsMax =  -8.99209765730437E+01  1.49855557254396E+00
(PID.TID 0000.0001)  ploadbar=  1.00973343127500E+05
 cg2d: Sum(rhs),rhsMax =  -8.92359463874554E+01  1.50981702020708E+00
(PID.TID 0000.0001)  ploadbar=  1.00972827099369E+05
 cg2d: Sum(rhs),rhsMax =  -8.85934114831224E+01  1.52054052464724E+00
(PID.TID 0000.0001)  ploadbar=  1.00972311071239E+05
 cg2d: Sum(rhs),rhsMax =  -8.80750467031765E+01  1.52927765837994E+00
(PID.TID 0000.0001)  ploadbar=  1.00971795043108E+05
 cg2d: Sum(rhs),rhsMax =  -8.77372982768571E+01  1.53496679661588E+00
(PID.TID 0000.0001)  ploadbar=  1.00971279014977E+05
 cg2d: Sum(rhs),rhsMax =  -8.76050219591500E+01  1.53706996611437E+00
(PID.TID 0000.0001)  ploadbar=  1.00971054753039E+05
 cg2d: Sum(rhs),rhsMax =  -8.59261301428903E+01  1.56685947177153E+00
(PID.TID 0000.0001)  ploadbar=  1.00970830491100E+05
 cg2d: Sum(rhs),rhsMax =  -8.30240050867161E+01  1.62134935241005E+00
(PID.TID 0000.0001)  ploadbar=  1.00970606229161E+05
 cg2d: Sum(rhs),rhsMax =  -8.00622805245580E+01  1.68100245169793E+00
(PID.TID 0000.0001)  ploadbar=  1.00970381967223E+05
 cg2d: Sum(rhs),rhsMax =  -7.70793827392677E+01  1.74568252111996E+00
(PID.TID 0000.0001)  ploadbar=  1.00970157705284E+05
 cg2d: Sum(rhs),rhsMax =  -7.41276692401823E+01  1.81476720546448E+00
(PID.TID 0000.0001)  ploadbar=  1.00969933443346E+05
 cg2d: Sum(rhs),rhsMax =  -7.16909889655515E+01  1.87603607970230E+00
(PID.TID 0000.0001)  ploadbar=  1.00971014915791E+05
 cg2d: Sum(rhs),rhsMax =  -6.97162616349067E+01  1.92876873538013E+00
(PID.TID 0000.0001)  ploadbar=  1.00972096388236E+05
 cg2d: Sum(rhs),rhsMax =  -6.81744737091217E+01  1.97199089994789E+00
(PID.TID 0000.0001)  ploadbar=  1.00973177860681E+05
 cg2d: Sum(rhs),rhsMax =  -6.69375445285596E+01  2.00804700089866E+00
(PID.TID 0000.0001)  ploadbar=  1.00974259333126E+05
 cg2d: Sum(rhs),rhsMax =  -6.59060020123182E+01  2.03910909790304E+00
(PID.TID 0000.0001)  ploadbar=  1.00975340805571E+05
 cg2d: Sum(rhs),rhsMax =  -6.50164170026832E+01  2.06664699215992E+00
(PID.TID 0000.0001)  ploadbar=  1.00976422278016E+05
 cg2d: Sum(rhs),rhsMax =  -6.41464632547047E+01  2.09426636454894E+00
(PID.TID 0000.0001)  ploadbar=  1.00977143487227E+05
 cg2d: Sum(rhs),rhsMax =  -6.32967178953040E+01  2.12191455248315E+00
(PID.TID 0000.0001)  ploadbar=  1.00977864696437E+05
 cg2d: Sum(rhs),rhsMax =  -6.24633932788297E+01  2.14968600304959E+00
(PID.TID 0000.0001)  ploadbar=  1.00978585905648E+05
 cg2d: Sum(rhs),rhsMax =  -6.16537942792854E+01  2.17730268369611E+00
(PID.TID 0000.0001)  ploadbar=  1.00979307114858E+05
 cg2d: Sum(rhs),rhsMax =  -6.08890354589882E+01  2.20396214681546E+00
(PID.TID 0000.0001)  ploadbar=  1.00980028324068E+05
 cg2d: Sum(rhs),rhsMax =  -6.01881494743753E+01  2.22886117856932E+00
(PID.TID 0000.0001)  ploadbar=  1.00980749533279E+05
 cg2d: Sum(rhs),rhsMax =  -5.96558958194212E+01  2.24802846574717E+00
(PID.TID 0000.0001)  ploadbar=  1.00982066340366E+05
 cg2d: Sum(rhs),rhsMax =  -5.92947975990068E+01  2.26103567911440E+00
(PID.TID 0000.0001)  ploadbar=  1.00983383147453E+05
 cg2d: Sum(rhs),rhsMax =  -5.91074600535469E+01  2.26754242162476E+00
(PID.TID 0000.0001)  ploadbar=  1.00984699954541E+05
 cg2d: Sum(rhs),rhsMax =  -5.90533814886919E+01  2.26897573371368E+00
(PID.TID 0000.0001)  ploadbar=  1.00986016761628E+05
 cg2d: Sum(rhs),rhsMax =  -5.90982262164803E+01  2.26662452545183E+00
(PID.TID 0000.0001)  ploadbar=  1.00987333568715E+05
 cg2d: Sum(rhs),rhsMax =  -5.92229525474293E+01  2.26123342328866E+00
(PID.TID 0000.0001)  ploadbar=  1.00988650375802E+05
 cg2d: Sum(rhs),rhsMax =  -5.93938996756463E+01  2.25410120659607E+00
(PID.TID 0000.0001)  ploadbar=  1.00989675122013E+05
 cg2d: Sum(rhs),rhsMax =  -5.96068525351326E+01  2.24540737866632E+00
(PID.TID 0000.0001)  ploadbar=  1.00990699868223E+05
 cg2d: Sum(rhs),rhsMax =  -5.98597238074271E+01  2.23526482839303E+00
(PID.TID 0000.0001)  ploadbar=  1.00991724614433E+05
 cg2d: Sum(rhs),rhsMax =  -6.01587085164536E+01  2.22348053799467E+00
(PID.TID 0000.0001)  ploadbar=  1.00992749360643E+05
 cg2d: Sum(rhs),rhsMax =  -6.05086129819132E+01  2.20992678290768E+00
(PID.TID 0000.0001)  ploadbar=  1.00993774106854E+05
 cg2d: Sum(rhs),rhsMax =  -6.09184479705956E+01  2.19433319529949E+00
(PID.TID 0000.0001)  ploadbar=  1.00994798853064E+05
 cg2d: Sum(rhs),rhsMax =  -6.13804953460829E+01  2.17711581370418E+00
(PID.TID 0000.0001)  ploadbar=  1.00995495367331E+05
 cg2d: Sum(rhs),rhsMax =  -6.18852018349838E+01  2.15867967252563E+00
(PID.TID 0000.0001)  ploadbar=  1.00996191881597E+05
 cg2d: Sum(rhs),rhsMax =  -6.24270154442706E+01  2.13928170704557E+00
(PID.TID 0000.0001)  ploadbar=  1.00996888395864E+05
 cg2d: Sum(rhs),rhsMax =  -6.30121504541896E+01  2.11877277725007E+00
(PID.TID 0000.0001)  ploadbar=  1.00997584910131E+05
 cg2d: Sum(rhs),rhsMax =  -6.36464772312372E+01  2.09703399173839E+00
(PID.TID 0000.0001)  ploadbar=  1.00998281424397E+05
 cg2d: Sum(rhs),rhsMax =  -6.43380897755194E+01  2.07387619089124E+00
(PID.TID 0000.0001)  ploadbar=  1.00998977938664E+05
 cg2d: Sum(rhs),rhsMax =  -6.45985977529967E+01  2.06488480158383E+00
(PID.TID 0000.0001)  ploadbar=  1.01000270659489E+05
 cg2d: Sum(rhs),rhsMax =  -6.48954643504115E+01  2.05478896915074E+00
(PID.TID 0000.0001)  ploadbar=  1.01001563380314E+05
 cg2d: Sum(rhs),rhsMax =  -6.52367575741114E+01  2.04336057394599E+00
(PID.TID 0000.0001)  ploadbar=  1.01002856101139E+05
 cg2d: Sum(rhs),rhsMax =  -6.56249575125703E+01  2.03056321352392E+00
(PID.TID 0000.0001)  ploadbar=  1.01004148821964E+05
 cg2d: Sum(rhs),rhsMax =  -6.60626044379271E+01  2.01636900989686E+00
(PID.TID 0000.0001)  ploadbar=  1.01005441542788E+05
 cg2d: Sum(rhs),rhsMax =  -6.65486573248385E+01  2.00086961732334E+00
(PID.TID 0000.0001)  ploadbar=  1.01006734263613E+05
 cg2d: Sum(rhs),rhsMax =  -6.70820894584679E+01  1.98428206286212E+00
(PID.TID 0000.0001)  ploadbar=  1.01008322511664E+05
 cg2d: Sum(rhs),rhsMax =  -6.76566420220747E+01  1.96683478222298E+00
(PID.TID 0000.0001)  ploadbar=  1.01009910759714E+05
 cg2d: Sum(rhs),rhsMax =  -6.82676032255587E+01  1.94870311824903E+00
(PID.TID 0000.0001)  ploadbar=  1.01011499007764E+05
 cg2d: Sum(rhs),rhsMax =  -6.89172435187740E+01  1.92986589335465E+00
(PID.TID 0000.0001)  ploadbar=  1.01013087255814E+05
 cg2d: Sum(rhs),rhsMax =  -6.96057959027831E+01  1.91036972682122E+00
(PID.TID 0000.0001)  ploadbar=  1.01014675503865E+05
 cg2d: Sum(rhs),rhsMax =  -7.03345579486684E+01  1.89022991029394E+00
(PID.TID 0000.0001)  ploadbar=  1.01016263751915E+05
 cg2d: Sum(rhs),rhsMax =  -7.10866078648201E+01  1.86989900310566E+00
(PID.TID 0000.0001)  ploadbar=  1.01016954902400E+05
 cg2d: Sum(rhs),rhsMax =  -7.18624836974570E+01  1.84937520915041E+00
(PID.TID 0000.0001)  ploadbar=  1.01017646052886E+05
 cg2d: Sum(rhs),rhsMax =  -7.26500866919454E+01  1.82898649075734E+00
(PID.TID 0000.0001)  ploadbar=  1.01018337203371E+05
 cg2d: Sum(rhs),rhsMax =  -7.34490225901159E+01  1.80874404129742E+00
(PID.TID 0000.0001)  ploadbar=  1.01019028353856E+05
 cg2d: Sum(rhs),rhsMax =  -7.42612540299956E+01  1.78859916667731E+00
(PID.TID 0000.0001)  ploadbar=  1.01019719504341E+05
 cg2d: Sum(rhs),rhsMax =  -7.50878831160236E+01  1.76852208714451E+00
(PID.TID 0000.0001)  ploadbar=  1.01020410654827E+05
 cg2d: Sum(rhs),rhsMax =  -7.58917944849182E+01  1.74942583788714E+00
(PID.TID 0000.0001)  ploadbar=  1.01021088440340E+05
 cg2d: Sum(rhs),rhsMax =  -7.67019112327418E+01  1.73060631848770E+00
(PID.TID 0000.0001)  ploadbar=  1.01021766225853E+05
 cg2d: Sum(rhs),rhsMax =  -7.75132076134256E+01  1.71217274293144E+00
(PID.TID 0000.0001)  ploadbar=  1.01022444011366E+05
 cg2d: Sum(rhs),rhsMax =  -7.83206235971098E+01  1.69422614072945E+00
(PID.TID 0000.0001)  ploadbar=  1.01023121796879E+05
 cg2d: Sum(rhs),rhsMax =  -7.91186735664576E+01  1.67686048662105E+00
(PID.TID 0000.0001)  ploadbar=  1.01023799582391E+05
 cg2d: Sum(rhs),rhsMax =  -7.99044950282519E+01  1.66010241284569E+00
(PID.TID 0000.0001)  ploadbar=  1.01024477367904E+05
 cg2d: Sum(rhs),rhsMax =  -8.06478415207105E+01  1.64452633425465E+00
(PID.TID 0000.0001)  ploadbar=  1.01024456464383E+05
 cg2d: Sum(rhs),rhsMax =  -8.13770357290046E+01  1.62949846913722E+00
(PID.TID 0000.0001)  ploadbar=  1.01024435560862E+05
 cg2d: Sum(rhs),rhsMax =  -8.17894583358115E+01  1.62096464205259E+00
(PID.TID 0000.0001)  ploadbar=  1.01024414657341E+05
 cg2d: Sum(rhs),rhsMax =  -8.19160579416782E+01  1.61811262695656E+00
(PID.TID 0000.0001)  ploadbar=  1.01024393753820E+05
 cg2d: Sum(rhs),rhsMax =  -8.23695014241534E+01  1.60882955858742E+00
(PID.TID 0000.0001)  ploadbar=  1.01024372850299E+05
 cg2d: Sum(rhs),rhsMax =  -8.28443034083630E+01  1.59920623964796E+00
(PID.TID 0000.0001)  ploadbar=  1.01024351946778E+05
 cg2d: Sum(rhs),rhsMax =  -8.33529086920698E+01  1.58911044093425E+00
(PID.TID 0000.0001)  ploadbar=  1.01023824409779E+05
 cg2d: Sum(rhs),rhsMax =  -8.30209708842681E+01  1.59517798946482E+00
(PID.TID 0000.0001)  ploadbar=  1.01023296872780E+05
 cg2d: Sum(rhs),rhsMax =  -8.24629399760841E+01  1.60572861371504E+00
(PID.TID 0000.0001)  ploadbar=  1.01022769335781E+05
 cg2d: Sum(rhs),rhsMax =  -8.19198528176621E+01  1.61616501794809E+00
(PID.TID 0000.0001)  ploadbar=  1.01022241798783E+05
 cg2d: Sum(rhs),rhsMax =  -8.14115696264508E+01  1.62607980232030E+00
(PID.TID 0000.0001)  ploadbar=  1.01021714261784E+05
 cg2d: Sum(rhs),rhsMax =  -8.09515333430648E+01  1.63518089464798E+00
(PID.TID 0000.0001)  ploadbar=  1.01021186724785E+05
 cg2d: Sum(rhs),rhsMax =  -8.05642431890062E+01  1.64287808914699E+00
(PID.TID 0000.0001)  ploadbar=  1.01021043390504E+05
 cg2d: Sum(rhs),rhsMax =  -8.01786843910673E+01  1.65058468492054E+00
(PID.TID 0000.0001)  ploadbar=  1.01020900056222E+05
 cg2d: Sum(rhs),rhsMax =  -7.97626289062337E+01  1.65896969939112E+00
(PID.TID 0000.0001)  ploadbar=  1.01020756721940E+05
 cg2d: Sum(rhs),rhsMax =  -7.92924199536559E+01  1.66855166423070E+00
(PID.TID 0000.0001)  ploadbar=  1.01020613387659E+05
 cg2d: Sum(rhs),rhsMax =  -7.85414671431100E+01  1.68421212441336E+00
(PID.TID 0000.0001)  ploadbar=  1.01020470053377E+05
 cg2d: Sum(rhs),rhsMax =  -7.72422665056575E+01  1.71220021273872E+00
(PID.TID 0000.0001)  ploadbar=  1.01020326719096E+05
 cg2d: Sum(rhs),rhsMax =  -7.60157543329306E+01  1.73950305264127E+00
(PID.TID 0000.0001)  ploadbar=  1.01019334635241E+05
 cg2d: Sum(rhs),rhsMax =  -7.48747549669237E+01  1.76570094726053E+00
(PID.TID 0000.0001)  ploadbar=  1.01018342551386E+05
 cg2d: Sum(rhs),rhsMax =  -7.38296199764218E+01  1.79040192155586E+00
(PID.TID 0000.0001)  ploadbar=  1.01017350467532E+05
 cg2d: Sum(rhs),rhsMax =  -7.29066336986096E+01  1.81279089330695E+00
(PID.TID 0000.0001)  ploadbar=  1.01016358383677E+05
 cg2d: Sum(rhs),rhsMax =  -7.21263998788213E+01  1.83213411071032E+00
(PID.TID 0000.0001)  ploadbar=  1.01015366299822E+05
 cg2d: Sum(rhs),rhsMax =  -7.06625883593443E+01  1.86981603884164E+00
(PID.TID 0000.0001)  ploadbar=  1.01014374215968E+05
 cg2d: Sum(rhs),rhsMax =  -7.21272859101095E+01  1.83156530382672E+00
(PID.TID 0000.0001)  ploadbar=  1.01012616855527E+05
 cg2d: Sum(rhs),rhsMax =  -7.54082662600349E+01  1.75158538437181E+00
(PID.TID 0000.0001)  ploadbar=  1.01010859495087E+05
 cg2d: Sum(rhs),rhsMax =  -7.89131776556537E+01  1.67348327358450E+00
(PID.TID 0000.0001)  ploadbar=  1.01009102134647E+05
 cg2d: Sum(rhs),rhsMax =  -8.22070066198659E+01  1.60610482912542E+00
(PID.TID 0000.0001)  ploadbar=  1.01007344774207E+05
 cg2d: Sum(rhs),rhsMax =  -8.24358398325273E+01  1.60128599933142E+00
(PID.TID 0000.0001)  ploadbar=  1.01005587413767E+05
 cg2d: Sum(rhs),rhsMax =  -8.17482458845699E+01  1.61435637195882E+00
(PID.TID 0000.0001)  ploadbar=  1.01003830053326E+05
 cg2d: Sum(rhs),rhsMax =  -8.10578058516847E+01  1.62777955847090E+00
(PID.TID 0000.0001)  ploadbar=  1.01002769355306E+05
 cg2d: Sum(rhs),rhsMax =  -8.03531643813856E+01  1.64178903112608E+00
(PID.TID 0000.0001)  ploadbar=  1.01001708657286E+05
 cg2d: Sum(rhs),rhsMax =  -7.96399392600869E+01  1.65627816036132E+00
(PID.TID 0000.0001)  ploadbar=  1.01000647959266E+05
 cg2d: Sum(rhs),rhsMax =  -7.89210401973903E+01  1.67119328578231E+00
(PID.TID 0000.0001)  ploadbar=  1.00999587261246E+05
 cg2d: Sum(rhs),rhsMax =  -7.81992885971206E+01  1.68648770250355E+00
(PID.TID 0000.0001)  ploadbar=  1.00998526563226E+05
 cg2d: Sum(rhs),rhsMax =  -7.74805887302325E+01  1.70204284069541E+00
(PID.TID 0000.0001)  ploadbar=  1.00997465865206E+05
 cg2d: Sum(rhs),rhsMax =  -7.67806348760513E+01  1.71746061657471E+00
(PID.TID 0000.0001)  ploadbar=  1.00996703407051E+05
 cg2d: Sum(rhs),rhsMax =  -7.61030487511319E+01  1.73263594830369E+00
(PID.TID 0000.0001)  ploadbar=  1.00995940948895E+05
 cg2d: Sum(rhs),rhsMax =  -7.54576173633865E+01  1.74732233145048E+00
(PID.TID 0000.0001)  ploadbar=  1.00995178490740E+05
 cg2d: Sum(rhs),rhsMax =  -7.48495872169094E+01  1.76136299530999E+00
(PID.TID 0000.0001)  ploadbar=  1.00994416032585E+05
 cg2d: Sum(rhs),rhsMax =  -7.42859587707621E+01  1.77455058512641E+00
(PID.TID 0000.0001)  ploadbar=  1.00993653574429E+05
 cg2d: Sum(rhs),rhsMax =  -7.37704503225863E+01  1.78674713276202E+00
(PID.TID 0000.0001)  ploadbar=  1.00992891116274E+05
 cg2d: Sum(rhs),rhsMax =  -7.33086224058765E+01  1.79781872113199E+00
(PID.TID 0000.0001)  ploadbar=  1.00993797742695E+05
 cg2d: Sum(rhs),rhsMax =  -7.28902991174802E+01  1.80796236608156E+00
(PID.TID 0000.0001)  ploadbar=  1.00994704369117E+05
 cg2d: Sum(rhs),rhsMax =  -7.25119251599120E+01  1.81723417861000E+00
(PID.TID 0000.0001)  ploadbar=  1.00995610995539E+05
 cg2d: Sum(rhs),rhsMax =  -7.21691567201333E+01  1.82571562882805E+00
(PID.TID 0000.0001)  ploadbar=  1.00996517621960E+05
 cg2d: Sum(rhs),rhsMax =  -7.18585858133962E+01  1.83346485583672E+00
(PID.TID 0000.0001)  ploadbar=  1.00997424248382E+05
 cg2d: Sum(rhs),rhsMax =  -7.15782633282214E+01  1.84049553099673E+00
(PID.TID 0000.0001)  ploadbar=  1.00998330874804E+05
 cg2d: Sum(rhs),rhsMax =  -7.13315512124494E+01  1.84667035633351E+00
(PID.TID 0000.0001)  ploadbar=  1.00998237709259E+05
 cg2d: Sum(rhs),rhsMax =  -7.11180229700916E+01  1.85197490268922E+00
(PID.TID 0000.0001)  ploadbar=  1.00998144543715E+05
 cg2d: Sum(rhs),rhsMax =  -7.09312859145959E+01  1.85655276560727E+00
(PID.TID 0000.0001)  ploadbar=  1.00998051378170E+05
 cg2d: Sum(rhs),rhsMax =  -7.07664616520077E+01  1.86051763858629E+00
(PID.TID 0000.0001)  ploadbar=  1.00997958212626E+05
 cg2d: Sum(rhs),rhsMax =  -7.06164497287540E+01  1.86404745907235E+00
(PID.TID 0000.0001)  ploadbar=  1.00997865047082E+05
 cg2d: Sum(rhs),rhsMax =  -7.04744807542754E+01  1.86731978672776E+00
(PID.TID 0000.0001)  ploadbar=  1.00997771881537E+05
 cg2d: Sum(rhs),rhsMax =  -7.03355475006479E+01  1.87059957380658E+00
(PID.TID 0000.0001)  ploadbar=  1.00996291127142E+05
 cg2d: Sum(rhs),rhsMax =  -7.01873826195741E+01  1.87419737410354E+00
(PID.TID 0000.0001)  ploadbar=  1.00994810372747E+05
 cg2d: Sum(rhs),rhsMax =  -7.00251091970084E+01  1.87823270505492E+00
(PID.TID 0000.0001)  ploadbar=  1.00993329618352E+05
 cg2d: Sum(rhs),rhsMax =  -6.98496794412808E+01  1.88267862974675E+00
(PID.TID 0000.0001)  ploadbar=  1.00991848863956E+05
 cg2d: Sum(rhs),rhsMax =  -6.96637203221611E+01  1.88747093037894E+00
(PID.TID 0000.0001)  ploadbar=  1.00990368109561E+05
 cg2d: Sum(rhs),rhsMax =  -6.91975921935784E+01  1.89998441989207E+00
(PID.TID 0000.0001)  ploadbar=  1.00988887355166E+05
 cg2d: Sum(rhs),rhsMax =  -6.80775659238575E+01  1.93104341463578E+00
(PID.TID 0000.0001)  ploadbar=  1.00989207657328E+05
 cg2d: Sum(rhs),rhsMax =  -6.70892900944109E+01  1.95928371135139E+00
(PID.TID 0000.0001)  ploadbar=  1.00989527959490E+05
 cg2d: Sum(rhs),rhsMax =  -6.62142425598338E+01  1.98496440423463E+00
(PID.TID 0000.0001)  ploadbar=  1.00989848261652E+05
 cg2d: Sum(rhs),rhsMax =  -6.54189012566001E+01  2.00887331369341E+00
(PID.TID 0000.0001)  ploadbar=  1.00990168563814E+05
 cg2d: Sum(rhs),rhsMax =  -6.46716096831869E+01  2.03184360275419E+00
(PID.TID 0000.0001)  ploadbar=  1.00990488865977E+05
 cg2d: Sum(rhs),rhsMax =  -6.39578485915144E+01  2.05425457784857E+00
(PID.TID 0000.0001)  ploadbar=  1.00990809168139E+05
 cg2d: Sum(rhs),rhsMax =  -6.32723516966931E+01  2.07627918320644E+00
(PID.TID 0000.0001)  ploadbar=  1.00992174266152E+05
 cg2d: Sum(rhs),rhsMax =  -6.26150503554798E+01  2.09786451714109E+00
(PID.TID 0000.0001)  ploadbar=  1.00993539364164E+05
 cg2d: Sum(rhs),rhsMax =  -6.31259613980344E+01  2.08070022861551E+00
(PID.TID 0000.0001)  ploadbar=  1.00994904462177E+05
 cg2d: Sum(rhs),rhsMax =  -6.38454038177652E+01  2.05709589133740E+00
(PID.TID 0000.0001)  ploadbar=  1.00996269560190E+05
 cg2d: Sum(rhs),rhsMax =  -6.45253609338449E+01  2.03528522144680E+00
(PID.TID 0000.0001)  ploadbar=  1.00997634658203E+05
 cg2d: Sum(rhs),rhsMax =  -6.51602476240851E+01  2.01532731925376E+00
(PID.TID 0000.0001)  ploadbar=  1.00998999756216E+05
 cg2d: Sum(rhs),rhsMax =  -6.57206577169919E+01  1.99797203471455E+00
(PID.TID 0000.0001)  ploadbar=  1.00999999123428E+05
 cg2d: Sum(rhs),rhsMax =  -6.62013477616866E+01  1.98323577641097E+00
(PID.TID 0000.0001)  ploadbar=  1.01000998490639E+05
 cg2d: Sum(rhs),rhsMax =  -6.66011532097338E+01  1.97103200797344E+00
(PID.TID 0000.0001)  ploadbar=  1.01001997857851E+05
 cg2d: Sum(rhs),rhsMax =  -6.64285598379764E+01  1.97577878631653E+00
(PID.TID 0000.0001)  ploadbar=  1.01002997225063E+05
 cg2d: Sum(rhs),rhsMax =  -6.62251397426704E+01  1.98139792987557E+00
(PID.TID 0000.0001)  ploadbar=  1.01003996592275E+05
 cg2d: Sum(rhs),rhsMax =  -6.60178926082041E+01  1.98709367660860E+00
(PID.TID 0000.0001)  ploadbar=  1.01004995959486E+05
 cg2d: Sum(rhs),rhsMax =  -6.58090285054597E+01  1.99296912665085E+00
(PID.TID 0000.0001)  ploadbar=  1.01006140353744E+05
 cg2d: Sum(rhs),rhsMax =  -6.56015212553561E+01  1.99892579187220E+00
(PID.TID 0000.0001)  ploadbar=  1.01007284748002E+05
 cg2d: Sum(rhs),rhsMax =  -6.53989173859312E+01  2.00484167460470E+00
(PID.TID 0000.0001)  ploadbar=  1.01008429142259E+05
 cg2d: Sum(rhs),rhsMax =  -6.52074508506763E+01  2.01051894178960E+00
(PID.TID 0000.0001)  ploadbar=  1.01009573536517E+05
 cg2d: Sum(rhs),rhsMax =  -6.50342428804936E+01  2.01572585011896E+00
(PID.TID 0000.0001)  ploadbar=  1.01010717930775E+05
 cg2d: Sum(rhs),rhsMax =  -6.48837415267010E+01  2.02030357761756E+00
(PID.TID 0000.0001)  ploadbar=  1.01011862325033E+05
 cg2d: Sum(rhs),rhsMax =  -6.47537933789282E+01  2.02426946768125E+00
(PID.TID 0000.0001)  ploadbar=  1.01011244883130E+05
 cg2d: Sum(rhs),rhsMax =  -6.46464908303343E+01  2.02754182839201E+00
(PID.TID 0000.0001)  ploadbar=  1.01010627441227E+05
 cg2d: Sum(rhs),rhsMax =  -6.45619757816974E+01  2.03010476778366E+00
(PID.TID 0000.0001)  ploadbar=  1.01010009999324E+05
 cg2d: Sum(rhs),rhsMax =  -6.44972078915879E+01  2.03204572889743E+00
(PID.TID 0000.0001)  ploadbar=  1.01009392557421E+05
 cg2d: Sum(rhs),rhsMax =  -6.44489929529069E+01  2.03345832767098E+00
(PID.TID 0000.0001)  ploadbar=  1.01008775115519E+05
 cg2d: Sum(rhs),rhsMax =  -6.44129511182909E+01  2.03447680962595E+00
(PID.TID 0000.0001)  ploadbar=  1.01008157673616E+05
 cg2d: Sum(rhs),rhsMax =  -6.43854511442657E+01  2.03525708717583E+00
(PID.TID 0000.0001)  ploadbar=  1.01006345825218E+05
 cg2d: Sum(rhs),rhsMax =  -6.43670054343445E+01  2.03577588377043E+00
(PID.TID 0000.0001)  ploadbar=  1.01004533976821E+05
 cg2d: Sum(rhs),rhsMax =  -6.43620096918942E+01  2.03589837336079E+00
(PID.TID 0000.0001)  ploadbar=  1.01002722128423E+05
 cg2d: Sum(rhs),rhsMax =  -6.43747671694490E+01  2.03548985041451E+00
(PID.TID 0000.0001)  ploadbar=  1.01000910280026E+05
 cg2d: Sum(rhs),rhsMax =  -6.44129407946288E+01  2.03430995717971E+00
(PID.TID 0000.0001)  ploadbar=  1.00999098431628E+05
 cg2d: Sum(rhs),rhsMax =  -6.44855932655956E+01  2.03206429246203E+00
(PID.TID 0000.0001)  ploadbar=  1.00997286583231E+05
 cg2d: Sum(rhs),rhsMax =  -6.45939553808316E+01  2.02867889982189E+00
(PID.TID 0000.0001)  ploadbar=  1.00996983162330E+05
 cg2d: Sum(rhs),rhsMax =  -6.47412446986227E+01  2.02403807461815E+00
(PID.TID 0000.0001)  ploadbar=  1.00996679741428E+05
 cg2d: Sum(rhs),rhsMax =  -6.49303539519332E+01  2.01806242337441E+00
(PID.TID 0000.0001)  ploadbar=  1.00996376320527E+05
 cg2d: Sum(rhs),rhsMax =  -6.51633208423132E+01  2.01070827324477E+00
(PID.TID 0000.0001)  ploadbar=  1.00996072899626E+05
 cg2d: Sum(rhs),rhsMax =  -6.54357080807117E+01  2.00214172428425E+00
(PID.TID 0000.0001)  ploadbar=  1.00995769478724E+05
 cg2d: Sum(rhs),rhsMax =  -6.57467705687850E+01  1.99241825023393E+00
(PID.TID 0000.0001)  ploadbar=  1.00995466057823E+05
 cg2d: Sum(rhs),rhsMax =  -6.61052196181782E+01  1.98143187125388E+00
(PID.TID 0000.0001)  ploadbar=  1.00995247959631E+05
 cg2d: Sum(rhs),rhsMax =  -6.65087641393202E+01  1.96928824527525E+00
(PID.TID 0000.0001)  ploadbar=  1.00995029861438E+05
 cg2d: Sum(rhs),rhsMax =  -6.69561800531752E+01  1.95606552982805E+00
(PID.TID 0000.0001)  ploadbar=  1.00994811763245E+05
 cg2d: Sum(rhs),rhsMax =  -6.74434737341948E+01  1.94192127806197E+00
(PID.TID 0000.0001)  ploadbar=  1.00994593665053E+05
 cg2d: Sum(rhs),rhsMax =  -6.79669495694015E+01  1.92699939958170E+00
(PID.TID 0000.0001)  ploadbar=  1.00994375566860E+05
 cg2d: Sum(rhs),rhsMax =  -6.85229131407046E+01  1.91143662372023E+00
(PID.TID 0000.0001)  ploadbar=  1.00994157468667E+05
 cg2d: Sum(rhs),rhsMax =  -6.91169007171273E+01  1.89508898550943E+00
(PID.TID 0000.0001)  ploadbar=  1.00993954577115E+05
 cg2d: Sum(rhs),rhsMax =  -6.97318033453450E+01  1.87845258088056E+00
(PID.TID 0000.0001)  ploadbar=  1.00993751685563E+05
 cg2d: Sum(rhs),rhsMax =  -7.03611822077532E+01  1.86171430921025E+00
(PID.TID 0000.0001)  ploadbar=  1.00993548794011E+05
 cg2d: Sum(rhs),rhsMax =  -7.10022125299324E+01  1.84495558027171E+00
(PID.TID 0000.0001)  ploadbar=  1.00993345902459E+05
 cg2d: Sum(rhs),rhsMax =  -7.16504628416040E+01  1.82829541945672E+00
(PID.TID 0000.0001)  ploadbar=  1.00993143010907E+05
 cg2d: Sum(rhs),rhsMax =  -7.23005470902827E+01  1.81186834154293E+00
(PID.TID 0000.0001)  ploadbar=  1.00992940119354E+05
 cg2d: Sum(rhs),rhsMax =  -7.29507834801671E+01  1.79572135298966E+00
(PID.TID 0000.0001)  ploadbar=  1.00992334851651E+05
 cg2d: Sum(rhs),rhsMax =  -7.35935012969334E+01  1.78003157678685E+00
(PID.TID 0000.0001)  ploadbar=  1.00991729583948E+05
 cg2d: Sum(rhs),rhsMax =  -7.42269904845501E+01  1.76482565659983E+00
(PID.TID 0000.0001)  ploadbar=  1.00991124316245E+05
 cg2d: Sum(rhs),rhsMax =  -7.48510407420296E+01  1.75009032886833E+00
(PID.TID 0000.0001)  ploadbar=  1.00990519048542E+05
 cg2d: Sum(rhs),rhsMax =  -7.54619755455231E+01  1.73589210062176E+00
(PID.TID 0000.0001)  ploadbar=  1.00989913780839E+05
 cg2d: Sum(rhs),rhsMax =  -7.60391589862916E+01  1.72267053089202E+00
(PID.TID 0000.0001)  ploadbar=  1.00989308513136E+05
 cg2d: Sum(rhs),rhsMax =  -7.65331210386833E+01  1.71150599562239E+00
(PID.TID 0000.0001)  ploadbar=  1.00989272018610E+05
 cg2d: Sum(rhs),rhsMax =  -7.70182773547328E+01  1.70066329950364E+00
(PID.TID 0000.0001)  ploadbar=  1.00989235524085E+05
 cg2d: Sum(rhs),rhsMax =  -7.75133512077994E+01  1.68971963958186E+00
(PID.TID 0000.0001)  ploadbar=  1.00989199029560E+05
 cg2d: Sum(rhs),rhsMax =  -7.80462993765007E+01  1.67807728700351E+00
(PID.TID 0000.0001)  ploadbar=  1.00989162535035E+05
 cg2d: Sum(rhs),rhsMax =  -7.86323569098297E+01  1.66544384142524E+00
(PID.TID 0000.0001)  ploadbar=  1.00989126040509E+05
 cg2d: Sum(rhs),rhsMax =  -7.90518419455647E+01  1.65645706833637E+00
(PID.TID 0000.0001)  ploadbar=  1.00989089545984E+05
 cg2d: Sum(rhs),rhsMax =  -7.93991137781096E+01  1.64912489102965E+00
(PID.TID 0000.0001)  ploadbar=  1.00988224813453E+05
 cg2d: Sum(rhs),rhsMax =  -7.96904387773085E+01  1.64306295039022E+00
(PID.TID 0000.0001)  ploadbar=  1.00987360080922E+05
 cg2d: Sum(rhs),rhsMax =  -7.99168118590086E+01  1.63842754628374E+00
(PID.TID 0000.0001)  ploadbar=  1.00986495348390E+05
 cg2d: Sum(rhs),rhsMax =  -8.00699848590409E+01  1.63535779882659E+00
(PID.TID 0000.0001)  ploadbar=  1.00985630615859E+05
 cg2d: Sum(rhs),rhsMax =  -8.01713045329651E+01  1.63339720266968E+00
(PID.TID 0000.0001)  ploadbar=  1.00984765883328E+05
 cg2d: Sum(rhs),rhsMax =  -8.02548310352571E+01  1.63183937652275E+00
(PID.TID 0000.0001)  ploadbar=  1.00983901150797E+05
 cg2d: Sum(rhs),rhsMax =  -8.03696975634399E+01  1.62964041557012E+00
(PID.TID 0000.0001)  ploadbar=  1.00983872117493E+05
 cg2d: Sum(rhs),rhsMax =  -8.05068135932794E+01  1.62697909235911E+00
(PID.TID 0000.0001)  ploadbar=  1.00983843084190E+05
 cg2d: Sum(rhs),rhsMax =  -8.06549541766950E+01  1.62408163168619E+00
(PID.TID 0000.0001)  ploadbar=  1.00983814050886E+05
 cg2d: Sum(rhs),rhsMax =  -8.08001467811720E+01  1.62122398008186E+00
(PID.TID 0000.0001)  ploadbar=  1.00983785017583E+05
 cg2d: Sum(rhs),rhsMax =  -8.09312569192095E+01  1.61862535228209E+00
(PID.TID 0000.0001)  ploadbar=  1.00983755984280E+05
 cg2d: Sum(rhs),rhsMax =  -8.10507991726021E+01  1.61623151831522E+00
(PID.TID 0000.0001)  ploadbar=  1.00983726950976E+05
 cg2d: Sum(rhs),rhsMax =  -8.11507629182601E+01  1.61422087734657E+00
(PID.TID 0000.0001)  ploadbar=  1.00984890889295E+05
 cg2d: Sum(rhs),rhsMax =  -8.12536933166112E+01  1.61214084560413E+00
(PID.TID 0000.0001)  ploadbar=  1.00986054827614E+05
 cg2d: Sum(rhs),rhsMax =  -8.13685531196832E+01  1.60981356329134E+00
(PID.TID 0000.0001)  ploadbar=  1.00987218765934E+05
 cg2d: Sum(rhs),rhsMax =  -8.15020394221438E+01  1.60711086387964E+00
(PID.TID 0000.0001)  ploadbar=  1.00988382704253E+05
 cg2d: Sum(rhs),rhsMax =  -8.16536559799269E+01  1.60404539740511E+00
(PID.TID 0000.0001)  ploadbar=  1.00989546642572E+05
 cg2d: Sum(rhs),rhsMax =  -8.18231708788944E+01  1.60061795437726E+00
(PID.TID 0000.0001)  ploadbar=  1.00990710580891E+05
 cg2d: Sum(rhs),rhsMax =  -8.19949541829193E+01  1.59712771908189E+00
(PID.TID 0000.0001)  ploadbar=  1.00991289663177E+05
 cg2d: Sum(rhs),rhsMax =  -8.21827977259398E+01  1.59329734582661E+00
(PID.TID 0000.0001)  ploadbar=  1.00991868745463E+05
 cg2d: Sum(rhs),rhsMax =  -8.23864270887266E+01  1.58913316396813E+00
(PID.TID 0000.0001)  ploadbar=  1.00992447827748E+05
 cg2d: Sum(rhs),rhsMax =  -8.26043533866761E+01  1.58466682240581E+00
(PID.TID 0000.0001)  ploadbar=  1.00993026910034E+05
 cg2d: Sum(rhs),rhsMax =  -8.28366857179714E+01  1.57990076707921E+00
(PID.TID 0000.0001)  ploadbar=  1.00993605992320E+05
 cg2d: Sum(rhs),rhsMax =  -8.30839362233916E+01  1.57482896943720E+00
(PID.TID 0000.0001)  ploadbar=  1.00994185074606E+05
 cg2d: Sum(rhs),rhsMax =  -8.28584981345472E+01  1.57879863572702E+00
(PID.TID 0000.0001)  ploadbar=  1.00993922201213E+05
 cg2d: Sum(rhs),rhsMax =  -8.22020961987731E+01  1.59113408059927E+00
(PID.TID 0000.0001)  ploadbar=  1.00993659327820E+05
 cg2d: Sum(rhs),rhsMax =  -8.15806360792293E+01  1.60302209593175E+00
(PID.TID 0000.0001)  ploadbar=  1.00993396454427E+05
 cg2d: Sum(rhs),rhsMax =  -8.10242157577031E+01  1.61383357226342E+00
(PID.TID 0000.0001)  ploadbar=  1.00993133581035E+05
 cg2d: Sum(rhs),rhsMax =  -8.05034118833178E+01  1.62411111509969E+00
(PID.TID 0000.0001)  ploadbar=  1.00992870707642E+05
 cg2d: Sum(rhs),rhsMax =  -8.00334759543391E+01  1.63351575397646E+00
(PID.TID 0000.0001)  ploadbar=  1.00992607834249E+05
 cg2d: Sum(rhs),rhsMax =  -7.95982858460435E+01  1.64233275827347E+00
(PID.TID 0000.0001)  ploadbar=  1.00992211597366E+05
 cg2d: Sum(rhs),rhsMax =  -7.98839458933377E+01  1.63635491532238E+00
(PID.TID 0000.0001)  ploadbar=  1.00991815360483E+05
 cg2d: Sum(rhs),rhsMax =  -8.05611294802230E+01  1.62249834234435E+00
(PID.TID 0000.0001)  ploadbar=  1.00991419123601E+05
 cg2d: Sum(rhs),rhsMax =  -8.11867723816543E+01  1.60988873226144E+00
(PID.TID 0000.0001)  ploadbar=  1.00991022886718E+05
 cg2d: Sum(rhs),rhsMax =  -8.17597931382779E+01  1.59849304890009E+00
(PID.TID 0000.0001)  ploadbar=  1.00990626649835E+05
 cg2d: Sum(rhs),rhsMax =  -8.22811679215351E+01  1.58824191905187E+00
(PID.TID 0000.0001)  ploadbar=  1.00990230412953E+05
 cg2d: Sum(rhs),rhsMax =  -8.28200646038894E+01  1.57778623543625E+00
(PID.TID 0000.0001)  ploadbar=  1.00990177984827E+05
 cg2d: Sum(rhs),rhsMax =  -8.26025659739114E+01  1.58181648655311E+00
(PID.TID 0000.0001)  ploadbar=  1.00990125556702E+05
 cg2d: Sum(rhs),rhsMax =  -8.22332255283250E+01  1.58879309232366E+00
(PID.TID 0000.0001)  ploadbar=  1.00990073128576E+05
 cg2d: Sum(rhs),rhsMax =  -8.18746229465633E+01  1.59562135051213E+00
(PID.TID 0000.0001)  ploadbar=  1.00990020700451E+05
 cg2d: Sum(rhs),rhsMax =  -8.14359838225759E+01  1.60408344698985E+00
(PID.TID 0000.0001)  ploadbar=  1.00989968272325E+05
 cg2d: Sum(rhs),rhsMax =  -8.09361203699299E+01  1.61384334397754E+00
(PID.TID 0000.0001)  ploadbar=  1.00989915844200E+05
 cg2d: Sum(rhs),rhsMax =  -8.03386480399589E+01  1.62567599314822E+00
(PID.TID 0000.0001)  ploadbar=  1.00989871770013E+05
 cg2d: Sum(rhs),rhsMax =  -7.96715407201461E+01  1.63908179378617E+00
(PID.TID 0000.0001)  ploadbar=  1.00989827695827E+05
 cg2d: Sum(rhs),rhsMax =  -7.89847347414812E+01  1.65308445973258E+00
(PID.TID 0000.0001)  ploadbar=  1.00989783621641E+05
 cg2d: Sum(rhs),rhsMax =  -7.83022367547685E+01  1.66719641830386E+00
(PID.TID 0000.0001)  ploadbar=  1.00989739547455E+05
 cg2d: Sum(rhs),rhsMax =  -7.76328153163984E+01  1.68122809165366E+00
(PID.TID 0000.0001)  ploadbar=  1.00989695473269E+05
 cg2d: Sum(rhs),rhsMax =  -7.69764464822976E+01  1.69516937802589E+00
(PID.TID 0000.0001)  ploadbar=  1.00989651399083E+05
 cg2d: Sum(rhs),rhsMax =  -7.62978840289369E+01  1.70991569285524E+00
(PID.TID 0000.0001)  ploadbar=  1.00990343950964E+05
 cg2d: Sum(rhs),rhsMax =  -7.55973941208239E+01  1.72548617869572E+00
(PID.TID 0000.0001)  ploadbar=  1.00991036502846E+05
 cg2d: Sum(rhs),rhsMax =  -7.49327368129100E+01  1.74056541919481E+00
(PID.TID 0000.0001)  ploadbar=  1.00991729054727E+05
 cg2d: Sum(rhs),rhsMax =  -7.43504771669398E+01  1.75401864768461E+00
(PID.TID 0000.0001)  ploadbar=  1.00992421606609E+05
 cg2d: Sum(rhs),rhsMax =  -7.38165477831545E+01  1.76657440012090E+00
(PID.TID 0000.0001)  ploadbar=  1.00993114158490E+05
 cg2d: Sum(rhs),rhsMax =  -7.33289015779199E+01  1.77823523266149E+00
(PID.TID 0000.0001)  ploadbar=  1.00993806710371E+05
 cg2d: Sum(rhs),rhsMax =  -7.28601671449537E+01  1.78958913913007E+00
(PID.TID 0000.0001)  ploadbar=  1.00993974132819E+05
 cg2d: Sum(rhs),rhsMax =  -7.24150138447568E+01  1.80049495045185E+00
(PID.TID 0000.0001)  ploadbar=  1.00994141555266E+05
 cg2d: Sum(rhs),rhsMax =  -7.19891637443886E+01  1.81103278190069E+00
(PID.TID 0000.0001)  ploadbar=  1.00994308977713E+05
 cg2d: Sum(rhs),rhsMax =  -7.15919619448267E+01  1.82094486191613E+00
(PID.TID 0000.0001)  ploadbar=  1.00994476400160E+05
 cg2d: Sum(rhs),rhsMax =  -7.12311075473380E+01  1.83000921035314E+00
(PID.TID 0000.0001)  ploadbar=  1.00994643822607E+05
 cg2d: Sum(rhs),rhsMax =  -7.09081947598929E+01  1.83815366705370E+00
(PID.TID 0000.0001)  ploadbar=  1.00994811245054E+05
 cg2d: Sum(rhs),rhsMax =  -7.06771453760762E+01  1.84398949592162E+00
(PID.TID 0000.0001)  ploadbar=  1.00994396571588E+05
 cg2d: Sum(rhs),rhsMax =  -7.04738981138806E+01  1.84914450250995E+00
(PID.TID 0000.0001)  ploadbar=  1.00993981898121E+05
 cg2d: Sum(rhs),rhsMax =  -7.02746620064654E+01  1.85423728689337E+00
(PID.TID 0000.0001)  ploadbar=  1.00993567224655E+05
 cg2d: Sum(rhs),rhsMax =  -7.00757854540002E+01  1.85936593941456E+00
(PID.TID 0000.0001)  ploadbar=  1.00993152551188E+05
 cg2d: Sum(rhs),rhsMax =  -6.98838367144802E+01  1.86435313875365E+00
(PID.TID 0000.0001)  ploadbar=  1.00992737877722E+05
 cg2d: Sum(rhs),rhsMax =  -6.97021592141086E+01  1.86909410323252E+00
(PID.TID 0000.0001)  ploadbar=  1.00992323204255E+05
 cg2d: Sum(rhs),rhsMax =  -6.95667773171110E+01  1.87258055612701E+00
(PID.TID 0000.0001)  ploadbar=  1.00992226021891E+05
 cg2d: Sum(rhs),rhsMax =  -6.94279753454944E+01  1.87612909146816E+00
(PID.TID 0000.0001)  ploadbar=  1.00992128839527E+05
 cg2d: Sum(rhs),rhsMax =  -6.92817171993028E+01  1.87984334189883E+00
(PID.TID 0000.0001)  ploadbar=  1.00992031657162E+05
 cg2d: Sum(rhs),rhsMax =  -6.91273457962726E+01  1.88374048255448E+00
(PID.TID 0000.0001)  ploadbar=  1.00991934474798E+05
 cg2d: Sum(rhs),rhsMax =  -6.89613891287742E+01  1.88791934555462E+00
(PID.TID 0000.0001)  ploadbar=  1.00991837292434E+05
 cg2d: Sum(rhs),rhsMax =  -6.87778052506885E+01  1.89255008074781E+00
(PID.TID 0000.0001)  ploadbar=  1.00991740110070E+05
 cg2d: Sum(rhs),rhsMax =  -6.84531218731134E+01  1.90117433208287E+00
(PID.TID 0000.0001)  ploadbar=  1.00992007063185E+05
 cg2d: Sum(rhs),rhsMax =  -6.80752233347957E+01  1.91142378998649E+00
(PID.TID 0000.0001)  ploadbar=  1.00992274016301E+05
 cg2d: Sum(rhs),rhsMax =  -6.76574675883073E+01  1.92295824266519E+00
(PID.TID 0000.0001)  ploadbar=  1.00992540969416E+05
 cg2d: Sum(rhs),rhsMax =  -6.71943612780789E+01  1.93597873545976E+00
(PID.TID 0000.0001)  ploadbar=  1.00992807922532E+05
 cg2d: Sum(rhs),rhsMax =  -6.66964952889866E+01  1.95022844861301E+00
(PID.TID 0000.0001)  ploadbar=  1.00993074875647E+05
 cg2d: Sum(rhs),rhsMax =  -6.61712075116178E+01  1.96553195603245E+00
(PID.TID 0000.0001)  ploadbar=  1.00993341828763E+05
 cg2d: Sum(rhs),rhsMax =  -6.56571831511940E+01  1.98078481801906E+00
(PID.TID 0000.0001)  ploadbar=  1.00994162665769E+05
 cg2d: Sum(rhs),rhsMax =  -6.51611931249159E+01  1.99576106269522E+00
(PID.TID 0000.0001)  ploadbar=  1.00994983502774E+05
 cg2d: Sum(rhs),rhsMax =  -6.46777756075793E+01  2.01060666800380E+00
(PID.TID 0000.0001)  ploadbar=  1.00995804339779E+05
 cg2d: Sum(rhs),rhsMax =  -6.41987114129769E+01  2.02556268504767E+00
(PID.TID 0000.0001)  ploadbar=  1.00996625176785E+05
 cg2d: Sum(rhs),rhsMax =  -6.37217222306182E+01  2.04069918254213E+00
(PID.TID 0000.0001)  ploadbar=  1.00997446013790E+05
 cg2d: Sum(rhs),rhsMax =  -6.32480595899384E+01  2.05597601300480E+00
(PID.TID 0000.0001)  ploadbar=  1.00998266850796E+05
 cg2d: Sum(rhs),rhsMax =  -6.28525002182444E+01  2.06891714598284E+00
(PID.TID 0000.0001)  ploadbar=  1.00998052347642E+05
 cg2d: Sum(rhs),rhsMax =  -6.24799181161921E+01  2.08125813425867E+00
(PID.TID 0000.0001)  ploadbar=  1.00997837844489E+05
 cg2d: Sum(rhs),rhsMax =  -6.21210884842701E+01  2.09328576810460E+00
(PID.TID 0000.0001)  ploadbar=  1.00997623341335E+05
 cg2d: Sum(rhs),rhsMax =  -6.17841811881312E+01  2.10470999560370E+00
(PID.TID 0000.0001)  ploadbar=  1.00997408838181E+05
 cg2d: Sum(rhs),rhsMax =  -6.14628531033869E+01  2.11572627430428E+00
(PID.TID 0000.0001)  ploadbar=  1.00997194335028E+05
 cg2d: Sum(rhs),rhsMax =  -6.11490838649388E+01  2.12658683007594E+00
(PID.TID 0000.0001)  ploadbar=  1.00996979831874E+05
 cg2d: Sum(rhs),rhsMax =  -6.08624955639740E+01  2.13653421925743E+00
(PID.TID 0000.0001)  ploadbar=  1.00996810787744E+05
 cg2d: Sum(rhs),rhsMax =  -6.05914381206427E+01  2.14594140386043E+00
(PID.TID 0000.0001)  ploadbar=  1.00996641743615E+05
 cg2d: Sum(rhs),rhsMax =  -6.03281112639408E+01  2.15506510726242E+00
(PID.TID 0000.0001)  ploadbar=  1.00996472699486E+05
 cg2d: Sum(rhs),rhsMax =  -6.00743546858758E+01  2.16383230841854E+00
(PID.TID 0000.0001)  ploadbar=  1.00996303655356E+05
 cg2d: Sum(rhs),rhsMax =  -5.98460294029866E+01  2.17165918729145E+00
(PID.TID 0000.0001)  ploadbar=  1.00996134611227E+05
 cg2d: Sum(rhs),rhsMax =  -5.96517007384233E+01  2.17821340128699E+00
(PID.TID 0000.0001)  ploadbar=  1.00995965567098E+05
 cg2d: Sum(rhs),rhsMax =  -5.94831675549842E+01  2.18395259018930E+00
(PID.TID 0000.0001)  ploadbar=  1.00995438180366E+05
 cg2d: Sum(rhs),rhsMax =  -5.93485955726886E+01  2.18855210892227E+00
(PID.TID 0000.0001)  ploadbar=  1.00994910793635E+05
 cg2d: Sum(rhs),rhsMax =  -5.92436858913695E+01  2.19214261180248E+00
(PID.TID 0000.0001)  ploadbar=  1.00994383406904E+05
 cg2d: Sum(rhs),rhsMax =  -5.91616539224279E+01  2.19495957055558E+00
(PID.TID 0000.0001)  ploadbar=  1.00993856020173E+05
 cg2d: Sum(rhs),rhsMax =  -5.91003449012036E+01  2.19706562067847E+00
(PID.TID 0000.0001)  ploadbar=  1.00993328633442E+05
 cg2d: Sum(rhs),rhsMax =  -5.90485432521605E+01  2.19886580255150E+00
(PID.TID 0000.0001)  ploadbar=  1.00992801246711E+05
 cg2d: Sum(rhs),rhsMax =  -5.90153280535637E+01  2.19995204517003E+00
(PID.TID 0000.0001)  ploadbar=  1.00992693510521E+05
 cg2d: Sum(rhs),rhsMax =  -5.90381677761830E+01  2.19891691777463E+00
(PID.TID 0000.0001)  ploadbar=  1.00992585774331E+05
 cg2d: Sum(rhs),rhsMax =  -5.91483551561457E+01  2.19459671051903E+00
(PID.TID 0000.0001)  ploadbar=  1.00992478038141E+05
 cg2d: Sum(rhs),rhsMax =  -5.93500830057894E+01  2.18686753000625E+00
(PID.TID 0000.0001)  ploadbar=  1.00992370301951E+05
 cg2d: Sum(rhs),rhsMax =  -5.96557052569862E+01  2.17534481429575E+00
(PID.TID 0000.0001)  ploadbar=  1.00992262565761E+05
 cg2d: Sum(rhs),rhsMax =  -5.99956102009845E+01  2.16264794692698E+00
(PID.TID 0000.0001)  ploadbar=  1.00992154829572E+05
 cg2d: Sum(rhs),rhsMax =  -6.02871512433673E+01  2.15183227257351E+00
(PID.TID 0000.0001)  ploadbar=  1.00992800108265E+05
 cg2d: Sum(rhs),rhsMax =  -6.05472235545171E+01  2.14223639861388E+00
(PID.TID 0000.0001)  ploadbar=  1.00993445386958E+05
 cg2d: Sum(rhs),rhsMax =  -6.08067950443930E+01  2.13274262657436E+00
(PID.TID 0000.0001)  ploadbar=  1.00994090665652E+05
 cg2d: Sum(rhs),rhsMax =  -6.10796798467450E+01  2.12287187316691E+00
(PID.TID 0000.0001)  ploadbar=  1.00994735944345E+05
 cg2d: Sum(rhs),rhsMax =  -6.13634497794570E+01  2.11271894816333E+00
(PID.TID 0000.0001)  ploadbar=  1.00995381223038E+05
 cg2d: Sum(rhs),rhsMax =  -6.16533230704185E+01  2.10244509459754E+00
(PID.TID 0000.0001)  ploadbar=  1.00996026501732E+05
 cg2d: Sum(rhs),rhsMax =  -6.18945586451700E+01  2.09388198068874E+00
(PID.TID 0000.0001)  ploadbar=  1.00996948799872E+05
 cg2d: Sum(rhs),rhsMax =  -6.21079028225793E+01  2.08627939136292E+00
(PID.TID 0000.0001)  ploadbar=  1.00997871098013E+05
 cg2d: Sum(rhs),rhsMax =  -6.22853134455316E+01  2.07987586089363E+00
(PID.TID 0000.0001)  ploadbar=  1.00998793396154E+05
 cg2d: Sum(rhs),rhsMax =  -6.24162925764544E+01  2.07499688301407E+00
(PID.TID 0000.0001)  ploadbar=  1.00999715694295E+05
 cg2d: Sum(rhs),rhsMax =  -6.24956192659429E+01  2.07179365626918E+00
(PID.TID 0000.0001)  ploadbar=  1.01000637992436E+05
 cg2d: Sum(rhs),rhsMax =  -6.25244765535550E+01  2.07021016190778E+00
(PID.TID 0000.0001)  ploadbar=  1.01001560290577E+05
 cg2d: Sum(rhs),rhsMax =  -6.24966744726503E+01  2.07058498534812E+00
(PID.TID 0000.0001)  ploadbar=  1.01001300761395E+05
 cg2d: Sum(rhs),rhsMax =  -6.24628384100325E+01  2.07123327889991E+00
(PID.TID 0000.0001)  ploadbar=  1.01001041232213E+05
 cg2d: Sum(rhs),rhsMax =  -6.24315375204123E+01  2.07185943875202E+00
(PID.TID 0000.0001)  ploadbar=  1.01000781703032E+05
 cg2d: Sum(rhs),rhsMax =  -6.24080398589096E+01  2.07228371630589E+00
(PID.TID 0000.0001)  ploadbar=  1.01000522173850E+05
 cg2d: Sum(rhs),rhsMax =  -6.23770801851873E+01  2.07300822105843E+00
(PID.TID 0000.0001)  ploadbar=  1.01000262644668E+05
 cg2d: Sum(rhs),rhsMax =  -6.23571228227446E+01  2.07341217046260E+00
(PID.TID 0000.0001)  ploadbar=  1.01000003115486E+05
 cg2d: Sum(rhs),rhsMax =  -6.24223230021058E+01  2.07098151226802E+00
(PID.TID 0000.0001)  ploadbar=  1.00999864777989E+05
 cg2d: Sum(rhs),rhsMax =  -6.24590620110531E+01  2.06948103905414E+00
(PID.TID 0000.0001)  ploadbar=  1.00999726440492E+05
 cg2d: Sum(rhs),rhsMax =  -6.24564284095511E+01  2.06926332489051E+00
(PID.TID 0000.0001)  ploadbar=  1.00999588102995E+05
 cg2d: Sum(rhs),rhsMax =  -6.24078810108176E+01  2.07054263351687E+00
(PID.TID 0000.0001)  ploadbar=  1.00999449765498E+05
 cg2d: Sum(rhs),rhsMax =  -6.23194220648916E+01  2.07312057680329E+00
(PID.TID 0000.0001)  ploadbar=  1.00999311428001E+05
 cg2d: Sum(rhs),rhsMax =  -6.22034776484175E+01  2.07659290020344E+00
(PID.TID 0000.0001)  ploadbar=  1.00999173090504E+05
 cg2d: Sum(rhs),rhsMax =  -6.20635256268521E+01  2.08090544312833E+00
(PID.TID 0000.0001)  ploadbar=  1.00998553357735E+05
 cg2d: Sum(rhs),rhsMax =  -6.19257354462163E+01  2.08518054506161E+00
(PID.TID 0000.0001)  ploadbar=  1.00997933624966E+05
 cg2d: Sum(rhs),rhsMax =  -6.17979270362587E+01  2.08915405218375E+00
(PID.TID 0000.0001)  ploadbar=  1.00997313892197E+05
 cg2d: Sum(rhs),rhsMax =  -6.16974232772538E+01  2.09223685767512E+00
(PID.TID 0000.0001)  ploadbar=  1.00996694159428E+05
 cg2d: Sum(rhs),rhsMax =  -6.16317748018837E+01  2.09416337639767E+00
(PID.TID 0000.0001)  ploadbar=  1.00996074426660E+05
 cg2d: Sum(rhs),rhsMax =  -6.15971649681707E+01  2.09504403959131E+00
(PID.TID 0000.0001)  ploadbar=  1.00995454693891E+05
 cg2d: Sum(rhs),rhsMax =  -6.15586007132542E+01  2.09599725754326E+00
(PID.TID 0000.0001)  ploadbar=  1.00994998502890E+05
 cg2d: Sum(rhs),rhsMax =  -6.15006124776253E+01  2.09754169276594E+00
(PID.TID 0000.0001)  ploadbar=  1.00994542311888E+05
 cg2d: Sum(rhs),rhsMax =  -6.14346899131332E+01  2.09927788134306E+00
(PID.TID 0000.0001)  ploadbar=  1.00994086120887E+05
 cg2d: Sum(rhs),rhsMax =  -6.13530646346264E+01  2.10147154927806E+00
(PID.TID 0000.0001)  ploadbar=  1.00993629929886E+05
 cg2d: Sum(rhs),rhsMax =  -6.12510652406733E+01  2.10428602889787E+00
(PID.TID 0000.0001)  ploadbar=  1.00993173738884E+05
 cg2d: Sum(rhs),rhsMax =  -6.11280386232428E+01  2.10774793032178E+00
(PID.TID 0000.0001)  ploadbar=  1.00992717547883E+05
 cg2d: Sum(rhs),rhsMax =  -6.09805964255037E+01  2.11212100801519E+00
(PID.TID 0000.0001)  ploadbar=  1.00992520407602E+05
 cg2d: Sum(rhs),rhsMax =  -6.08131901550205E+01  2.11725364625295E+00
(PID.TID 0000.0001)  ploadbar=  1.00992323267320E+05
 cg2d: Sum(rhs),rhsMax =  -6.06308696056317E+01  2.12296834606603E+00
(PID.TID 0000.0001)  ploadbar=  1.00992126127039E+05
 cg2d: Sum(rhs),rhsMax =  -6.04424849865480E+01  2.12895601807711E+00
(PID.TID 0000.0001)  ploadbar=  1.00991928986757E+05
 cg2d: Sum(rhs),rhsMax =  -6.02551891179854E+01  2.13496480737920E+00
(PID.TID 0000.0001)  ploadbar=  1.00991731846476E+05
 cg2d: Sum(rhs),rhsMax =  -6.00684599431427E+01  2.14101542726318E+00
(PID.TID 0000.0001)  ploadbar=  1.00991534706194E+05
 cg2d: Sum(rhs),rhsMax =  -5.98834253285170E+01  2.14704526540581E+00
(PID.TID 0000.0001)  ploadbar=  1.00990988785072E+05
 cg2d: Sum(rhs),rhsMax =  -5.97169431917561E+01  2.15243631803177E+00
(PID.TID 0000.0001)  ploadbar=  1.00990442863951E+05
 cg2d: Sum(rhs),rhsMax =  -5.95712885254524E+01  2.15709373517242E+00
(PID.TID 0000.0001)  ploadbar=  1.00989896942829E+05
 cg2d: Sum(rhs),rhsMax =  -5.94440155009858E+01  2.16109018600249E+00
(PID.TID 0000.0001)  ploadbar=  1.00989351021708E+05
 cg2d: Sum(rhs),rhsMax =  -5.94942324378268E+01  2.15862501388807E+00
(PID.TID 0000.0001)  ploadbar=  1.00988805100586E+05
 cg2d: Sum(rhs),rhsMax =  -5.98579922384980E+01  2.14484676015760E+00
(PID.TID 0000.0001)  ploadbar=  1.00988259179464E+05
 cg2d: Sum(rhs),rhsMax =  -6.01978334126282E+01  2.13212135864095E+00
(PID.TID 0000.0001)  ploadbar=  1.00989397565481E+05
 cg2d: Sum(rhs),rhsMax =  -6.05147251241488E+01  2.12037525606554E+00
(PID.TID 0000.0001)  ploadbar=  1.00990535951497E+05
 cg2d: Sum(rhs),rhsMax =  -6.08040432696515E+01  2.10974116187615E+00
(PID.TID 0000.0001)  ploadbar=  1.00991674337513E+05
 cg2d: Sum(rhs),rhsMax =  -6.10698796280750E+01  2.10004874209112E+00
(PID.TID 0000.0001)  ploadbar=  1.00992812723530E+05
 cg2d: Sum(rhs),rhsMax =  -6.13221787218746E+01  2.09093434628116E+00
(PID.TID 0000.0001)  ploadbar=  1.00993951109546E+05
 cg2d: Sum(rhs),rhsMax =  -6.15550049739964E+01  2.08257350990022E+00
(PID.TID 0000.0001)  ploadbar=  1.00995089495562E+05
 cg2d: Sum(rhs),rhsMax =  -6.17871192803941E+01  2.07422443044199E+00
(PID.TID 0000.0001)  ploadbar=  1.00995483639019E+05
 cg2d: Sum(rhs),rhsMax =  -6.20644855253659E+01  2.06434662800035E+00
(PID.TID 0000.0001)  ploadbar=  1.00995877782476E+05
 cg2d: Sum(rhs),rhsMax =  -6.23041085590287E+01  2.05570828977256E+00
(PID.TID 0000.0001)  ploadbar=  1.00996271925933E+05
 cg2d: Sum(rhs),rhsMax =  -6.25135226449829E+01  2.04802959076978E+00
(PID.TID 0000.0001)  ploadbar=  1.00996666069390E+05
 cg2d: Sum(rhs),rhsMax =  -6.26921199992564E+01  2.04130647254321E+00
(PID.TID 0000.0001)  ploadbar=  1.00997060212847E+05
 cg2d: Sum(rhs),rhsMax =  -6.28408956603598E+01  2.03548485841310E+00
(PID.TID 0000.0001)  ploadbar=  1.00997454356304E+05
 cg2d: Sum(rhs),rhsMax =  -6.30048714639852E+01  2.02928787611063E+00
(PID.TID 0000.0001)  ploadbar=  1.00997623281568E+05
 cg2d: Sum(rhs),rhsMax =  -6.32793045629301E+01  2.01967100801634E+00
(PID.TID 0000.0001)  ploadbar=  1.00997792206832E+05
 cg2d: Sum(rhs),rhsMax =  -6.36202434197057E+01  2.00810344457119E+00
(PID.TID 0000.0001)  ploadbar=  1.00997961132095E+05
 cg2d: Sum(rhs),rhsMax =  -6.39495328364382E+01  1.99708454346788E+00
(PID.TID 0000.0001)  ploadbar=  1.00998130057359E+05
 cg2d: Sum(rhs),rhsMax =  -6.42810669981376E+01  1.98616596781155E+00
(PID.TID 0000.0001)  ploadbar=  1.00998298982623E+05
 cg2d: Sum(rhs),rhsMax =  -6.46963036902214E+01  1.97286045362931E+00
(PID.TID 0000.0001)  ploadbar=  1.00998467907886E+05
 cg2d: Sum(rhs),rhsMax =  -6.51195610729878E+01  1.95948883351812E+00
(PID.TID 0000.0001)  ploadbar=  1.00998202230009E+05
 cg2d: Sum(rhs),rhsMax =  -6.55440557991748E+01  1.94625031635264E+00
(PID.TID 0000.0001)  ploadbar=  1.00997936552131E+05
 cg2d: Sum(rhs),rhsMax =  -6.59697745486147E+01  1.93313675969199E+00
(PID.TID 0000.0001)  ploadbar=  1.00997670874253E+05
 cg2d: Sum(rhs),rhsMax =  -6.63904644512752E+01  1.92032032978002E+00
(PID.TID 0000.0001)  ploadbar=  1.00997405196376E+05
 cg2d: Sum(rhs),rhsMax =  -6.68077859270686E+01  1.90773517127306E+00
(PID.TID 0000.0001)  ploadbar=  1.00997139518498E+05
 cg2d: Sum(rhs),rhsMax =  -6.72288127311927E+01  1.89517169695077E+00
(PID.TID 0000.0001)  ploadbar=  1.00996873840621E+05
 cg2d: Sum(rhs),rhsMax =  -6.76687609371274E+01  1.88227035211111E+00
(PID.TID 0000.0001)  ploadbar=  1.00997617709915E+05
 cg2d: Sum(rhs),rhsMax =  -6.80804607331823E+01  1.87033958385541E+00
(PID.TID 0000.0001)  ploadbar=  1.00998361579209E+05
 cg2d: Sum(rhs),rhsMax =  -6.84535407755461E+01  1.85962989761290E+00
(PID.TID 0000.0001)  ploadbar=  1.00999105448503E+05
 cg2d: Sum(rhs),rhsMax =  -6.87866571765991E+01  1.85014093676753E+00
(PID.TID 0000.0001)  ploadbar=  1.00999849317798E+05
 cg2d: Sum(rhs),rhsMax =  -6.90787047143017E+01  1.84186793171576E+00
(PID.TID 0000.0001)  ploadbar=  1.01000593187092E+05
 cg2d: Sum(rhs),rhsMax =  -6.93283318586939E+01  1.83480985525650E+00
(PID.TID 0000.0001)  ploadbar=  1.01001337056386E+05
 cg2d: Sum(rhs),rhsMax =  -6.95277247154122E+01  1.82909114408844E+00
(PID.TID 0000.0001)  ploadbar=  1.01002306772762E+05
 cg2d: Sum(rhs),rhsMax =  -6.98230614002356E+01  1.82085808932084E+00
(PID.TID 0000.0001)  ploadbar=  1.01003276489138E+05
 cg2d: Sum(rhs),rhsMax =  -7.01629162248446E+01  1.81149470415438E+00
(PID.TID 0000.0001)  ploadbar=  1.01004246205514E+05
 cg2d: Sum(rhs),rhsMax =  -7.05176888967688E+01  1.80178849621006E+00
(PID.TID 0000.0001)  ploadbar=  1.01005215921889E+05
 cg2d: Sum(rhs),rhsMax =  -7.08790795651392E+01  1.79195790431757E+00
(PID.TID 0000.0001)  ploadbar=  1.01006185638265E+05
 cg2d: Sum(rhs),rhsMax =  -7.12650286287976E+01  1.78155427290327E+00
(PID.TID 0000.0001)  ploadbar=  1.01007155354641E+05
 cg2d: Sum(rhs),rhsMax =  -7.16723262838104E+01  1.77082774149814E+00
(PID.TID 0000.0001)  ploadbar=  1.01006048060565E+05
 cg2d: Sum(rhs),rhsMax =  -7.20887559349546E+01  1.76008444163195E+00
(PID.TID 0000.0001)  ploadbar=  1.01004940766489E+05
 cg2d: Sum(rhs),rhsMax =  -7.25000036075522E+01  1.74966881276778E+00
(PID.TID 0000.0001)  ploadbar=  1.01003833472413E+05
 cg2d: Sum(rhs),rhsMax =  -7.28980619097246E+01  1.73976079015041E+00
(PID.TID 0000.0001)  ploadbar=  1.01002726178337E+05
 cg2d: Sum(rhs),rhsMax =  -7.33903434469930E+01  1.72781112142968E+00
(PID.TID 0000.0001)  ploadbar=  1.01001618884261E+05
 cg2d: Sum(rhs),rhsMax =  -7.38863339699973E+01  1.71600113060901E+00
(PID.TID 0000.0001)  ploadbar=  1.01000511590186E+05
 cg2d: Sum(rhs),rhsMax =  -7.43373902231786E+01  1.70536946646266E+00
(PID.TID 0000.0001)  ploadbar=  1.01000615806465E+05
 cg2d: Sum(rhs),rhsMax =  -7.47829856071428E+01  1.69497172832938E+00
(PID.TID 0000.0001)  ploadbar=  1.01000720022745E+05
 cg2d: Sum(rhs),rhsMax =  -7.52414891855481E+01  1.68438648337720E+00
(PID.TID 0000.0001)  ploadbar=  1.01000824239024E+05
 cg2d: Sum(rhs),rhsMax =  -7.57248645105045E+01  1.67335222516415E+00
(PID.TID 0000.0001)  ploadbar=  1.01000928455304E+05
 cg2d: Sum(rhs),rhsMax =  -7.62400556510285E+01  1.66172625944837E+00
(PID.TID 0000.0001)  ploadbar=  1.01001032671583E+05
 cg2d: Sum(rhs),rhsMax =  -7.67965615469988E+01  1.64932775895023E+00
(PID.TID 0000.0001)  ploadbar=  1.01001136887863E+05
 cg2d: Sum(rhs),rhsMax =  -7.70789646389289E+01  1.64295667905572E+00
(PID.TID 0000.0001)  ploadbar=  1.01001375041207E+05
 cg2d: Sum(rhs),rhsMax =  -7.70318256119688E+01  1.64365718755042E+00
(PID.TID 0000.0001)  ploadbar=  1.01001613194550E+05
 cg2d: Sum(rhs),rhsMax =  -7.71201936448707E+01  1.64149301093733E+00
(PID.TID 0000.0001)  ploadbar=  1.01001851347894E+05
 cg2d: Sum(rhs),rhsMax =  -7.73389010903883E+01  1.63659377274870E+00
(PID.TID 0000.0001)  ploadbar=  1.01002089501238E+05
 cg2d: Sum(rhs),rhsMax =  -7.76108267671808E+01  1.63061960004153E+00
(PID.TID 0000.0001)  ploadbar=  1.01002327654582E+05
 cg2d: Sum(rhs),rhsMax =  -7.79337710616233E+01  1.62363476061358E+00
(PID.TID 0000.0001)  ploadbar=  1.01002565807926E+05
 cg2d: Sum(rhs),rhsMax =  -7.80331883195402E+01  1.62128994111282E+00
(PID.TID 0000.0001)  ploadbar=  1.01003292780368E+05
 cg2d: Sum(rhs),rhsMax =  -7.78203846962590E+01  1.62538998841074E+00
(PID.TID 0000.0001)  ploadbar=  1.01004019752810E+05
 cg2d: Sum(rhs),rhsMax =  -7.76954025367013E+01  1.62761000991769E+00
(PID.TID 0000.0001)  ploadbar=  1.01004746725252E+05
 cg2d: Sum(rhs),rhsMax =  -7.76148069763137E+01  1.62884146878461E+00
(PID.TID 0000.0001)  ploadbar=  1.01005473697694E+05
 cg2d: Sum(rhs),rhsMax =  -7.75896159852658E+01  1.62884510870910E+00
(PID.TID 0000.0001)  ploadbar=  1.01006200670136E+05
 cg2d: Sum(rhs),rhsMax =  -7.76053317929507E+01  1.62792162503863E+00
(PID.TID 0000.0001)  ploadbar=  1.01006927642579E+05
 cg2d: Sum(rhs),rhsMax =  -7.75661942685676E+01  1.62820627362646E+00
(PID.TID 0000.0001)  ploadbar=  1.01007714721786E+05
 cg2d: Sum(rhs),rhsMax =  -7.75090615090255E+01  1.62891869796358E+00
(PID.TID 0000.0001)  ploadbar=  1.01008501800994E+05
 cg2d: Sum(rhs),rhsMax =  -7.74747129183716E+01  1.62919773481591E+00
(PID.TID 0000.0001)  ploadbar=  1.01009288880202E+05
 cg2d: Sum(rhs),rhsMax =  -7.74558111016180E+01  1.62918784854597E+00
(PID.TID 0000.0001)  ploadbar=  1.01010075959410E+05
 cg2d: Sum(rhs),rhsMax =  -7.74380206783140E+01  1.62918647813082E+00
(PID.TID 0000.0001)  ploadbar=  1.01010863038618E+05
 cg2d: Sum(rhs),rhsMax =  -7.74626020725606E+01  1.62832238995492E+00
(PID.TID 0000.0001)  ploadbar=  1.01011650117826E+05
 cg2d: Sum(rhs),rhsMax =  -7.75165833719054E+01  1.62684174867588E+00
(PID.TID 0000.0001)  ploadbar=  1.01013272452170E+05
 cg2d: Sum(rhs),rhsMax =  -7.75978901283879E+01  1.62478361729322E+00
(PID.TID 0000.0001)  ploadbar=  1.01014894786513E+05
 cg2d: Sum(rhs),rhsMax =  -7.77171427443936E+01  1.62192637670016E+00
(PID.TID 0000.0001)  ploadbar=  1.01016517120857E+05
 cg2d: Sum(rhs),rhsMax =  -7.78129751836008E+01  1.61955000154589E+00
(PID.TID 0000.0001)  ploadbar=  1.01018139455201E+05
 cg2d: Sum(rhs),rhsMax =  -7.78763845067293E+01  1.61783191397382E+00
(PID.TID 0000.0001)  ploadbar=  1.01019761789545E+05
 cg2d: Sum(rhs),rhsMax =  -7.79404362931010E+01  1.61607735332704E+00
(PID.TID 0000.0001)  ploadbar=  1.01021384123888E+05
 cg2d: Sum(rhs),rhsMax =  -7.80257479163004E+01  1.61391534860259E+00
(PID.TID 0000.0001)  ploadbar=  1.01022486778456E+05
 cg2d: Sum(rhs),rhsMax =  -7.80576103061164E+01  1.61288770247565E+00
(PID.TID 0000.0001)  ploadbar=  1.01023589433023E+05
 cg2d: Sum(rhs),rhsMax =  -7.80351241636997E+01  1.61300912248044E+00
(PID.TID 0000.0001)  ploadbar=  1.01024692087590E+05
 cg2d: Sum(rhs),rhsMax =  -7.79393527783001E+01  1.61467170200604E+00
(PID.TID 0000.0001)  ploadbar=  1.01025794742158E+05
 cg2d: Sum(rhs),rhsMax =  -7.77850589296783E+01  1.61757367178314E+00
(PID.TID 0000.0001)  ploadbar=  1.01026897396725E+05
 cg2d: Sum(rhs),rhsMax =  -7.75792720441348E+01  1.62157680685625E+00
(PID.TID 0000.0001)  ploadbar=  1.01028000051293E+05
 cg2d: Sum(rhs),rhsMax =  -7.72918423289674E+01  1.62730254891546E+00
(PID.TID 0000.0001)  ploadbar=  1.01028948382510E+05
 cg2d: Sum(rhs),rhsMax =  -7.70892548150966E+01  1.63125087036949E+00
(PID.TID 0000.0001)  ploadbar=  1.01029896713727E+05
 cg2d: Sum(rhs),rhsMax =  -7.69893567666311E+01  1.63301174547003E+00
(PID.TID 0000.0001)  ploadbar=  1.01030845044944E+05
 cg2d: Sum(rhs),rhsMax =  -7.69038881985495E+01  1.63443996937998E+00
(PID.TID 0000.0001)  ploadbar=  1.01031793376161E+05
 cg2d: Sum(rhs),rhsMax =  -7.68251567885515E+01  1.63569477772287E+00
(PID.TID 0000.0001)  ploadbar=  1.01032741707378E+05
 cg2d: Sum(rhs),rhsMax =  -7.67473308140840E+01  1.63689701050419E+00
(PID.TID 0000.0001)  ploadbar=  1.01033690038595E+05
 cg2d: Sum(rhs),rhsMax =  -7.66954613476261E+01  1.63759858045769E+00
(PID.TID 0000.0001)  ploadbar=  1.01034131087033E+05
 cg2d: Sum(rhs),rhsMax =  -7.66836902865483E+01  1.63749089498608E+00
(PID.TID 0000.0001)  ploadbar=  1.01034572135472E+05
 cg2d: Sum(rhs),rhsMax =  -7.67157664854220E+01  1.63648755989783E+00
(PID.TID 0000.0001)  ploadbar=  1.01035013183911E+05
 cg2d: Sum(rhs),rhsMax =  -7.68121454405764E+01  1.63414836569029E+00
(PID.TID 0000.0001)  ploadbar=  1.01035454232350E+05
 cg2d: Sum(rhs),rhsMax =  -7.69566131006795E+01  1.63082699610372E+00
(PID.TID 0000.0001)  ploadbar=  1.01035895280789E+05
 cg2d: Sum(rhs),rhsMax =  -7.71539029292605E+01  1.62643062076662E+00
(PID.TID 0000.0001)  ploadbar=  1.01036336329227E+05
 cg2d: Sum(rhs),rhsMax =  -7.73644304804991E+01  1.62178949437723E+00
(PID.TID 0000.0001)  ploadbar=  1.01035983208489E+05
 cg2d: Sum(rhs),rhsMax =  -7.75995677705047E+01  1.61666500991025E+00
(PID.TID 0000.0001)  ploadbar=  1.01035630087751E+05
 cg2d: Sum(rhs),rhsMax =  -7.78404935804801E+01  1.61145225383784E+00
(PID.TID 0000.0001)  ploadbar=  1.01035276967013E+05
 cg2d: Sum(rhs),rhsMax =  -7.80700162959188E+01  1.60650259800340E+00
(PID.TID 0000.0001)  ploadbar=  1.01034923846274E+05
 cg2d: Sum(rhs),rhsMax =  -7.82782673518845E+01  1.60200859489038E+00
(PID.TID 0000.0001)  ploadbar=  1.01034570725536E+05
 cg2d: Sum(rhs),rhsMax =  -7.84559353533879E+01  1.59815091180088E+00
(PID.TID 0000.0001)  ploadbar=  1.01034217604798E+05
 cg2d: Sum(rhs),rhsMax =  -7.86005514613219E+01  1.59498780671288E+00
(PID.TID 0000.0001)  ploadbar=  1.01034687576372E+05
 cg2d: Sum(rhs),rhsMax =  -7.86936666960685E+01  1.59287670683148E+00
(PID.TID 0000.0001)  ploadbar=  1.01035157547947E+05
 cg2d: Sum(rhs),rhsMax =  -7.87458723904902E+01  1.59159444634868E+00
(PID.TID 0000.0001)  ploadbar=  1.01035627519521E+05
 cg2d: Sum(rhs),rhsMax =  -7.87713309041905E+01  1.59084850141130E+00
(PID.TID 0000.0001)  ploadbar=  1.01036097491096E+05
 cg2d: Sum(rhs),rhsMax =  -7.87963816163066E+01  1.59010065932425E+00
(PID.TID 0000.0001)  ploadbar=  1.01036567462671E+05
 cg2d: Sum(rhs),rhsMax =  -7.88150453218742E+01  1.58946530687116E+00
(PID.TID 0000.0001)  ploadbar=  1.01037037434245E+05
 cg2d: Sum(rhs),rhsMax =  -7.88094331619134E+01  1.58928494367544E+00
(PID.TID 0000.0001)  ploadbar=  1.01037689109947E+05
 cg2d: Sum(rhs),rhsMax =  -7.89155728952770E+01  1.58681340335985E+00
(PID.TID 0000.0001)  ploadbar=  1.01038340785649E+05
 cg2d: Sum(rhs),rhsMax =  -7.91075912059587E+01  1.58258313105984E+00
(PID.TID 0000.0001)  ploadbar=  1.01038992461351E+05
 cg2d: Sum(rhs),rhsMax =  -7.93306919563147E+01  1.57770527280934E+00
(PID.TID 0000.0001)  ploadbar=  1.01039644137052E+05
 cg2d: Sum(rhs),rhsMax =  -7.95669706570442E+01  1.57254162755974E+00
(PID.TID 0000.0001)  ploadbar=  1.01040295812754E+05
 cg2d: Sum(rhs),rhsMax =  -7.97989312580808E+01  1.56743821658171E+00
(PID.TID 0000.0001)  ploadbar=  1.01040947488456E+05
 cg2d: Sum(rhs),rhsMax =  -8.00426123644799E+01  1.56218417543568E+00
(PID.TID 0000.0001)  ploadbar=  1.01041377094217E+05
 cg2d: Sum(rhs),rhsMax =  -8.03102540716404E+01  1.55653801420950E+00
(PID.TID 0000.0001)  ploadbar=  1.01041806699978E+05
 cg2d: Sum(rhs),rhsMax =  -8.05714548829838E+01  1.55108475004829E+00
(PID.TID 0000.0001)  ploadbar=  1.01042236305739E+05
 cg2d: Sum(rhs),rhsMax =  -8.08278103047106E+01  1.54578717499038E+00
(PID.TID 0000.0001)  ploadbar=  1.01042665911500E+05
 cg2d: Sum(rhs),rhsMax =  -8.10931520537706E+01  1.54037694477133E+00
(PID.TID 0000.0001)  ploadbar=  1.01043095517261E+05
 cg2d: Sum(rhs),rhsMax =  -8.13744669531212E+01  1.53471938035700E+00
(PID.TID 0000.0001)  ploadbar=  1.01043525123022E+05
 cg2d: Sum(rhs),rhsMax =  -8.16619722420035E+01  1.52900042874866E+00
(PID.TID 0000.0001)  ploadbar=  1.01045269936964E+05
 cg2d: Sum(rhs),rhsMax =  -8.19642931105518E+01  1.52305404512985E+00
(PID.TID 0000.0001)  ploadbar=  1.01047014750907E+05
 cg2d: Sum(rhs),rhsMax =  -8.22962790021811E+01  1.51660915074742E+00
(PID.TID 0000.0001)  ploadbar=  1.01048759564850E+05
 cg2d: Sum(rhs),rhsMax =  -8.26612822515608E+01  1.50961196920576E+00
(PID.TID 0000.0001)  ploadbar=  1.01050504378793E+05
 cg2d: Sum(rhs),rhsMax =  -8.30517010278810E+01  1.50220970015139E+00
(PID.TID 0000.0001)  ploadbar=  1.01052249192735E+05
 cg2d: Sum(rhs),rhsMax =  -8.26619927327230E+01  1.50897530322949E+00
(PID.TID 0000.0001)  ploadbar=  1.01053994006678E+05
 cg2d: Sum(rhs),rhsMax =  -8.22501309774933E+01  1.51624102050002E+00
(PID.TID 0000.0001)  ploadbar=  1.01054859207439E+05
 cg2d: Sum(rhs),rhsMax =  -8.18051868809064E+01  1.52421424858640E+00
(PID.TID 0000.0001)  ploadbar=  1.01055724408200E+05
 cg2d: Sum(rhs),rhsMax =  -8.13268302233870E+01  1.53291824499525E+00
(PID.TID 0000.0001)  ploadbar=  1.01056589608961E+05
 cg2d: Sum(rhs),rhsMax =  -8.08306976106356E+01  1.54207471719429E+00
(PID.TID 0000.0001)  ploadbar=  1.01057454809722E+05
 cg2d: Sum(rhs),rhsMax =  -8.03234863006996E+01  1.55155935348707E+00
(PID.TID 0000.0001)  ploadbar=  1.01058320010483E+05
 cg2d: Sum(rhs),rhsMax =  -7.98764994406992E+01  1.55997908289137E+00
(PID.TID 0000.0001)  ploadbar=  1.01059185211244E+05
 cg2d: Sum(rhs),rhsMax =  -7.94673087160308E+01  1.56771088350918E+00
(PID.TID 0000.0001)  ploadbar=  1.01059671742743E+05
 cg2d: Sum(rhs),rhsMax =  -7.91444941559675E+01  1.57376101618564E+00
(PID.TID 0000.0001)  ploadbar=  1.01060158274241E+05
 cg2d: Sum(rhs),rhsMax =  -7.89233049102708E+01  1.57777773101607E+00
(PID.TID 0000.0001)  ploadbar=  1.01060644805740E+05
 cg2d: Sum(rhs),rhsMax =  -7.88025529481186E+01  1.57974642956509E+00
(PID.TID 0000.0001)  ploadbar=  1.01061131337238E+05
 cg2d: Sum(rhs),rhsMax =  -7.91178991286916E+01  1.57294255790596E+00
(PID.TID 0000.0001)  ploadbar=  1.01061617868737E+05
 cg2d: Sum(rhs),rhsMax =  -7.96349707398298E+01  1.56215973620604E+00
(PID.TID 0000.0001)  ploadbar=  1.01062104400235E+05
 cg2d: Sum(rhs),rhsMax =  -8.00220949219518E+01  1.55409578723412E+00
(PID.TID 0000.0001)  ploadbar=  1.01062475375896E+05
 cg2d: Sum(rhs),rhsMax =  -8.08065717336587E+01  1.53855936076929E+00
(PID.TID 0000.0001)  ploadbar=  1.01062846351557E+05
 cg2d: Sum(rhs),rhsMax =  -8.18658912592184E+01  1.51825228528449E+00
(PID.TID 0000.0001)  ploadbar=  1.01063217327218E+05
 cg2d: Sum(rhs),rhsMax =  -8.31811986979281E+01  1.49388973455339E+00
(PID.TID 0000.0001)  ploadbar=  1.01063588302879E+05
 cg2d: Sum(rhs),rhsMax =  -8.47396419338946E+01  1.46609914426185E+00
(PID.TID 0000.0001)  ploadbar=  1.01063959278540E+05
 cg2d: Sum(rhs),rhsMax =  -8.58307386417799E+01  1.44717484260281E+00
(PID.TID 0000.0001)  ploadbar=  1.01064330254200E+05
 cg2d: Sum(rhs),rhsMax =  -8.54667957622672E+01  1.45304763355973E+00
(PID.TID 0000.0001)  ploadbar=  1.01064080050482E+05
 cg2d: Sum(rhs),rhsMax =  -8.51593051706167E+01  1.45799823029798E+00
(PID.TID 0000.0001)  ploadbar=  1.01063829846764E+05
 cg2d: Sum(rhs),rhsMax =  -8.48930581450126E+01  1.46226419628340E+00
(PID.TID 0000.0001)  ploadbar=  1.01063579643045E+05
 cg2d: Sum(rhs),rhsMax =  -8.46572613262610E+01  1.46601647056428E+00
(PID.TID 0000.0001)  ploadbar=  1.01063329439327E+05
 cg2d: Sum(rhs),rhsMax =  -8.44407709609263E+01  1.46943755733754E+00
(PID.TID 0000.0001)  ploadbar=  1.01063079235609E+05
 cg2d: Sum(rhs),rhsMax =  -8.42379545548018E+01  1.47261889553579E+00
(PID.TID 0000.0001)  ploadbar=  1.01062829031890E+05
 cg2d: Sum(rhs),rhsMax =  -8.40497401929259E+01  1.47560208012715E+00
(PID.TID 0000.0001)  ploadbar=  1.01061685611831E+05
 cg2d: Sum(rhs),rhsMax =  -8.42920504975836E+01  1.47108066038350E+00
(PID.TID 0000.0001)  ploadbar=  1.01060542191772E+05
 cg2d: Sum(rhs),rhsMax =  -8.54999173976069E+01  1.45005340588765E+00
(PID.TID 0000.0001)  ploadbar=  1.01059398771714E+05
 cg2d: Sum(rhs),rhsMax =  -8.68614250414679E+01  1.42711021447302E+00
(PID.TID 0000.0001)  ploadbar=  1.01058255351655E+05
 cg2d: Sum(rhs),rhsMax =  -8.83903779925626E+01  1.40223652554659E+00
(PID.TID 0000.0001)  ploadbar=  1.01057111931596E+05
 cg2d: Sum(rhs),rhsMax =  -9.00523724093146E+01  1.37619136626946E+00
(PID.TID 0000.0001)  ploadbar=  1.01055968511537E+05
 cg2d: Sum(rhs),rhsMax =  -9.16874351515582E+01  1.35146216296999E+00
(PID.TID 0000.0001)  ploadbar=  1.01054918432637E+05
 cg2d: Sum(rhs),rhsMax =  -9.32234749261615E+01  1.32898232450825E+00
(PID.TID 0000.0001)  ploadbar=  1.01053868353736E+05
 cg2d: Sum(rhs),rhsMax =  -9.45756239471928E+01  1.30974180869021E+00
(PID.TID 0000.0001)  ploadbar=  1.01052818274836E+05
 cg2d: Sum(rhs),rhsMax =  -9.53468339620718E+01  1.29887410183087E+00
(PID.TID 0000.0001)  ploadbar=  1.01051768195935E+05
 cg2d: Sum(rhs),rhsMax =  -9.50356919369523E+01  1.30281259048455E+00
(PID.TID 0000.0001)  ploadbar=  1.01050718117035E+05
 cg2d: Sum(rhs),rhsMax =  -9.47497962621529E+01  1.30638278860144E+00
(PID.TID 0000.0001)  ploadbar=  1.01049668038135E+05
 cg2d: Sum(rhs),rhsMax =  -9.45034674008184E+01  1.30945077033654E+00
(PID.TID 0000.0001)  ploadbar=  1.01048037349020E+05
 cg2d: Sum(rhs),rhsMax =  -9.42774546287230E+01  1.31227338787118E+00
(PID.TID 0000.0001)  ploadbar=  1.01046406659906E+05
 cg2d: Sum(rhs),rhsMax =  -9.40619804265284E+01  1.31498103998128E+00
(PID.TID 0000.0001)  ploadbar=  1.01044775970791E+05
 cg2d: Sum(rhs),rhsMax =  -9.38629190021339E+01  1.31748578112651E+00
(PID.TID 0000.0001)  ploadbar=  1.01043145281676E+05
 cg2d: Sum(rhs),rhsMax =  -9.36835484542154E+01  1.31973325997240E+00
(PID.TID 0000.0001)  ploadbar=  1.01041514592562E+05
 cg2d: Sum(rhs),rhsMax =  -9.35273332925469E+01  1.32166724061905E+00
(PID.TID 0000.0001)  ploadbar=  1.01039883903447E+05
 cg2d: Sum(rhs),rhsMax =  -9.34215204928068E+01  1.32287929548455E+00
(PID.TID 0000.0001)  ploadbar=  1.01039323224806E+05
 cg2d: Sum(rhs),rhsMax =  -9.33492319221491E+01  1.32360051667383E+00
(PID.TID 0000.0001)  ploadbar=  1.01038762546164E+05
 cg2d: Sum(rhs),rhsMax =  -9.28687340609704E+01  1.33012284196179E+00
(PID.TID 0000.0001)  ploadbar=  1.01038201867523E+05
 cg2d: Sum(rhs),rhsMax =  -9.19881599947225E+01  1.34250378411193E+00
(PID.TID 0000.0001)  ploadbar=  1.01037641188881E+05
 cg2d: Sum(rhs),rhsMax =  -9.06750222000486E+01  1.36156369420994E+00
(PID.TID 0000.0001)  ploadbar=  1.01037080510240E+05
 cg2d: Sum(rhs),rhsMax =  -8.92725767646746E+01  1.38253882854810E+00
(PID.TID 0000.0001)  ploadbar=  1.01036519831598E+05
 cg2d: Sum(rhs),rhsMax =  -8.76466393981167E+01  1.40779384464799E+00
(PID.TID 0000.0001)  ploadbar=  1.01036672051789E+05
 cg2d: Sum(rhs),rhsMax =  -8.61551563842472E+01  1.43178885967552E+00
(PID.TID 0000.0001)  ploadbar=  1.01036824271979E+05
 cg2d: Sum(rhs),rhsMax =  -8.48622706430940E+01  1.45323986093116E+00
(PID.TID 0000.0001)  ploadbar=  1.01036976492170E+05
 cg2d: Sum(rhs),rhsMax =  -8.37494200675293E+01  1.47219851486453E+00
(PID.TID 0000.0001)  ploadbar=  1.01037128712360E+05
 cg2d: Sum(rhs),rhsMax =  -8.27970131920041E+01  1.48878887867241E+00
(PID.TID 0000.0001)  ploadbar=  1.01037280932551E+05
 cg2d: Sum(rhs),rhsMax =  -8.20195674907035E+01  1.50255991861831E+00
(PID.TID 0000.0001)  ploadbar=  1.01037433152742E+05
 cg2d: Sum(rhs),rhsMax =  -8.18531177632878E+01  1.50523441875704E+00
(PID.TID 0000.0001)  ploadbar=  1.01037371101430E+05
 cg2d: Sum(rhs),rhsMax =  -8.18199212261259E+01  1.50542089213000E+00
(PID.TID 0000.0001)  ploadbar=  1.01037309050119E+05
 cg2d: Sum(rhs),rhsMax =  -8.18509025565147E+01  1.50438153871297E+00
(PID.TID 0000.0001)  ploadbar=  1.01037246998807E+05
 cg2d: Sum(rhs),rhsMax =  -8.19679164842380E+01  1.50171431231142E+00
(PID.TID 0000.0001)  ploadbar=  1.01037184947496E+05
 cg2d: Sum(rhs),rhsMax =  -8.21100432590209E+01  1.49854347056796E+00
(PID.TID 0000.0001)  ploadbar=  1.01037122896185E+05
 cg2d: Sum(rhs),rhsMax =  -8.22628266856339E+01  1.49512983779885E+00
(PID.TID 0000.0001)  ploadbar=  1.01037060844873E+05
 cg2d: Sum(rhs),rhsMax =  -8.25499476699743E+01  1.48935970129895E+00
(PID.TID 0000.0001)  ploadbar=  1.01037935849528E+05
 cg2d: Sum(rhs),rhsMax =  -8.29001424081445E+01  1.48255256553385E+00
(PID.TID 0000.0001)  ploadbar=  1.01038810854182E+05
 cg2d: Sum(rhs),rhsMax =  -8.33410908351369E+01  1.47424206914313E+00
(PID.TID 0000.0001)  ploadbar=  1.01039685858837E+05
 cg2d: Sum(rhs),rhsMax =  -8.38303811978583E+01  1.46521138272571E+00
(PID.TID 0000.0001)  ploadbar=  1.01040560863491E+05
 cg2d: Sum(rhs),rhsMax =  -8.43249253156670E+01  1.45622602813806E+00
(PID.TID 0000.0001)  ploadbar=  1.01041435868146E+05
 cg2d: Sum(rhs),rhsMax =  -8.48013578342544E+01  1.44768412238487E+00
(PID.TID 0000.0001)  ploadbar=  1.01042310872800E+05
 cg2d: Sum(rhs),rhsMax =  -8.52750968178623E+01  1.43929039993931E+00
(PID.TID 0000.0001)  ploadbar=  1.01042582000270E+05
 cg2d: Sum(rhs),rhsMax =  -8.57212277602956E+01  1.43145193636343E+00
(PID.TID 0000.0001)  ploadbar=  1.01042853127741E+05
 cg2d: Sum(rhs),rhsMax =  -8.62574887604952E+01  1.42220477926173E+00
(PID.TID 0000.0001)  ploadbar=  1.01043124255211E+05
 cg2d: Sum(rhs),rhsMax =  -8.74019205464579E+01  1.40323149832974E+00
(PID.TID 0000.0001)  ploadbar=  1.01043395382681E+05
 cg2d: Sum(rhs),rhsMax =  -8.73304331832685E+01  1.40401796691188E+00
(PID.TID 0000.0001)  ploadbar=  1.01043666510152E+05
 cg2d: Sum(rhs),rhsMax =  -8.67625090074704E+01  1.41282913684247E+00
(PID.TID 0000.0001)  ploadbar=  1.01043937637622E+05
 cg2d: Sum(rhs),rhsMax =  -8.63680173592294E+01  1.41892189155619E+00
(PID.TID 0000.0001)  ploadbar=  1.01044577937163E+05
 cg2d: Sum(rhs),rhsMax =  -8.61025440687144E+01  1.42295153088317E+00
(PID.TID 0000.0001)  ploadbar=  1.01045218236704E+05
 cg2d: Sum(rhs),rhsMax =  -8.59353505635511E+01  1.42538951768161E+00
(PID.TID 0000.0001)  ploadbar=  1.01045858536245E+05
 cg2d: Sum(rhs),rhsMax =  -8.58276264938019E+01  1.42686218245164E+00
(PID.TID 0000.0001)  ploadbar=  1.01046498835785E+05
 cg2d: Sum(rhs),rhsMax =  -8.57463521583265E+01  1.42790786888581E+00
(PID.TID 0000.0001)  ploadbar=  1.01047139135326E+05
 cg2d: Sum(rhs),rhsMax =  -8.56690130041768E+01  1.42889651521191E+00
(PID.TID 0000.0001)  ploadbar=  1.01047779434867E+05
 cg2d: Sum(rhs),rhsMax =  -8.55161747025588E+01  1.43112470736041E+00
(PID.TID 0000.0001)  ploadbar=  1.01048963318518E+05
 cg2d: Sum(rhs),rhsMax =  -8.53532041069687E+01  1.43350362610401E+00
(PID.TID 0000.0001)  ploadbar=  1.01050147202169E+05
 cg2d: Sum(rhs),rhsMax =  -8.52174845967600E+01  1.43539983550382E+00
(PID.TID 0000.0001)  ploadbar=  1.01051331085820E+05
 cg2d: Sum(rhs),rhsMax =  -8.51347706125148E+01  1.43637215220109E+00
(PID.TID 0000.0001)  ploadbar=  1.01052514969472E+05
 cg2d: Sum(rhs),rhsMax =  -8.51326666625368E+01  1.43594727850561E+00
(PID.TID 0000.0001)  ploadbar=  1.01053698853123E+05
 cg2d: Sum(rhs),rhsMax =  -8.52242174684493E+01  1.43390445074994E+00
(PID.TID 0000.0001)  ploadbar=  1.01054882736774E+05
 cg2d: Sum(rhs),rhsMax =  -8.53521543429110E+01  1.43128767486048E+00
(PID.TID 0000.0001)  ploadbar=  1.01054892950075E+05
 cg2d: Sum(rhs),rhsMax =  -8.55155595294870E+01  1.42811409321886E+00
(PID.TID 0000.0001)  ploadbar=  1.01054903163376E+05
 cg2d: Sum(rhs),rhsMax =  -8.56910229449113E+01  1.42477728879715E+00
(PID.TID 0000.0001)  ploadbar=  1.01054913376677E+05
 cg2d: Sum(rhs),rhsMax =  -8.58628982429096E+01  1.42153414555999E+00
(PID.TID 0000.0001)  ploadbar=  1.01054923589978E+05
 cg2d: Sum(rhs),rhsMax =  -8.60898494689260E+01  1.41741424871949E+00
(PID.TID 0000.0001)  ploadbar=  1.01054933803279E+05
 cg2d: Sum(rhs),rhsMax =  -8.63537813964566E+01  1.41272705499623E+00
(PID.TID 0000.0001)  ploadbar=  1.01054944016580E+05
 cg2d: Sum(rhs),rhsMax =  -8.66564844297897E+01  1.40742861863184E+00
(PID.TID 0000.0001)  ploadbar=  1.01056311396453E+05
 cg2d: Sum(rhs),rhsMax =  -8.72208010421416E+01  1.39795133723021E+00
(PID.TID 0000.0001)  ploadbar=  1.01057678776325E+05
 cg2d: Sum(rhs),rhsMax =  -8.87514494160787E+01  1.37346357294834E+00
(PID.TID 0000.0001)  ploadbar=  1.01059046156197E+05
 cg2d: Sum(rhs),rhsMax =  -9.02698431587938E+01  1.34997585916521E+00
(PID.TID 0000.0001)  ploadbar=  1.01060413536069E+05
 cg2d: Sum(rhs),rhsMax =  -9.17241433572113E+01  1.32817816320176E+00
(PID.TID 0000.0001)  ploadbar=  1.01061780915941E+05
 cg2d: Sum(rhs),rhsMax =  -9.22874805399378E+01  1.31966399227553E+00
(PID.TID 0000.0001)  ploadbar=  1.01063148295813E+05
 cg2d: Sum(rhs),rhsMax =  -9.21533714961327E+01  1.32118236236288E+00
(PID.TID 0000.0001)  ploadbar=  1.01064158484978E+05
 cg2d: Sum(rhs),rhsMax =  -9.18462427031726E+01  1.32519826631486E+00
(PID.TID 0000.0001)  ploadbar=  1.01065168674142E+05
 cg2d: Sum(rhs),rhsMax =  -9.11922645684090E+01  1.33429639227282E+00
(PID.TID 0000.0001)  ploadbar=  1.01066178863307E+05
 cg2d: Sum(rhs),rhsMax =  -9.03738172843905E+01  1.34596945371002E+00
(PID.TID 0000.0001)  ploadbar=  1.01067189052471E+05
 cg2d: Sum(rhs),rhsMax =  -8.95352162974276E+01  1.35815823245350E+00
(PID.TID 0000.0001)  ploadbar=  1.01068199241636E+05
 cg2d: Sum(rhs),rhsMax =  -8.88564648385595E+01  1.36810677070197E+00
(PID.TID 0000.0001)  ploadbar=  1.01069209430800E+05
 cg2d: Sum(rhs),rhsMax =  -8.83070795511987E+01  1.37614282413864E+00
(PID.TID 0000.0001)  ploadbar=  1.01069242967156E+05
 cg2d: Sum(rhs),rhsMax =  -8.79496404710764E+01  1.38120709011284E+00
(PID.TID 0000.0001)  ploadbar=  1.01069276503512E+05
 cg2d: Sum(rhs),rhsMax =  -8.77939639784102E+01  1.38307293986799E+00
(PID.TID 0000.0001)  ploadbar=  1.01069310039867E+05
 cg2d: Sum(rhs),rhsMax =  -8.78284472953266E+01  1.38189208812101E+00
(PID.TID 0000.0001)  ploadbar=  1.01069343576223E+05
 cg2d: Sum(rhs),rhsMax =  -8.80538730963173E+01  1.37766148423085E+00
(PID.TID 0000.0001)  ploadbar=  1.01069377112578E+05
 cg2d: Sum(rhs),rhsMax =  -8.84224784562134E+01  1.37117073346407E+00
(PID.TID 0000.0001)  ploadbar=  1.01069410648934E+05
 cg2d: Sum(rhs),rhsMax =  -8.87345356079779E+01  1.36565012591289E+00
(PID.TID 0000.0001)  ploadbar=  1.01069012949011E+05
 cg2d: Sum(rhs),rhsMax =  -8.88936682669531E+01  1.36255182019013E+00
(PID.TID 0000.0001)  ploadbar=  1.01068615249089E+05
 cg2d: Sum(rhs),rhsMax =  -8.87746729497579E+01  1.36376502683358E+00
(PID.TID 0000.0001)  ploadbar=  1.01068217549166E+05
 cg2d: Sum(rhs),rhsMax =  -8.82822836563724E+01  1.37079349911587E+00
(PID.TID 0000.0001)  ploadbar=  1.01067819849243E+05
 cg2d: Sum(rhs),rhsMax =  -8.75770063493122E+01  1.38128638416711E+00
(PID.TID 0000.0001)  ploadbar=  1.01067422149321E+05
 cg2d: Sum(rhs),rhsMax =  -8.67745951550803E+01  1.39353968711033E+00
(PID.TID 0000.0001)  ploadbar=  1.01067024449398E+05
 cg2d: Sum(rhs),rhsMax =  -8.59435987760839E+01  1.40648250409530E+00
(PID.TID 0000.0001)  ploadbar=  1.01066709699359E+05
 cg2d: Sum(rhs),rhsMax =  -8.51016762492017E+01  1.41985056045327E+00
(PID.TID 0000.0001)  ploadbar=  1.01066394949320E+05
 cg2d: Sum(rhs),rhsMax =  -8.42676375938922E+01  1.43333891654778E+00
(PID.TID 0000.0001)  ploadbar=  1.01066080199281E+05
 cg2d: Sum(rhs),rhsMax =  -8.34431072547410E+01  1.44691769171138E+00
(PID.TID 0000.0001)  ploadbar=  1.01065765449242E+05
 cg2d: Sum(rhs),rhsMax =  -8.26106924913895E+01  1.46089316638506E+00
(PID.TID 0000.0001)  ploadbar=  1.01065450699203E+05
 cg2d: Sum(rhs),rhsMax =  -8.17403498685508E+01  1.47582608325354E+00
(PID.TID 0000.0001)  ploadbar=  1.01065135949164E+05
 cg2d: Sum(rhs),rhsMax =  -8.08451362841759E+01  1.49156519821179E+00
(PID.TID 0000.0001)  ploadbar=  1.01065133642198E+05
 cg2d: Sum(rhs),rhsMax =  -7.99197514703192E+01  1.50824726787464E+00
(PID.TID 0000.0001)  ploadbar=  1.01065131335232E+05
 cg2d: Sum(rhs),rhsMax =  -7.89585455555776E+01  1.52603258255518E+00
(PID.TID 0000.0001)  ploadbar=  1.01065129028266E+05
 cg2d: Sum(rhs),rhsMax =  -7.79702945111570E+01  1.54481260996032E+00
(PID.TID 0000.0001)  ploadbar=  1.01065126721300E+05
 cg2d: Sum(rhs),rhsMax =  -7.69689151370490E+01  1.56436133691774E+00
(PID.TID 0000.0001)  ploadbar=  1.01065124414334E+05
 cg2d: Sum(rhs),rhsMax =  -7.60919081107444E+01  1.58185288498450E+00
(PID.TID 0000.0001)  ploadbar=  1.01065122107368E+05
 cg2d: Sum(rhs),rhsMax =  -7.52941882582455E+01  1.59806674310604E+00
(PID.TID 0000.0001)  ploadbar=  1.01064591708467E+05
 cg2d: Sum(rhs),rhsMax =  -7.45956953262451E+01  1.61247309043618E+00
(PID.TID 0000.0001)  ploadbar=  1.01064061309565E+05
 cg2d: Sum(rhs),rhsMax =  -7.40100103006842E+01  1.62466188858235E+00
(PID.TID 0000.0001)  ploadbar=  1.01063530910664E+05
 cg2d: Sum(rhs),rhsMax =  -7.35483442135767E+01  1.63427137559051E+00
(PID.TID 0000.0001)  ploadbar=  1.01063000511762E+05
 cg2d: Sum(rhs),rhsMax =  -7.32134021645673E+01  1.64113858008898E+00
(PID.TID 0000.0001)  ploadbar=  1.01062470112861E+05
 cg2d: Sum(rhs),rhsMax =  -7.29892030557255E+01  1.64554675421230E+00
(PID.TID 0000.0001)  ploadbar=  1.01061939713959E+05
 cg2d: Sum(rhs),rhsMax =  -7.27255226395310E+01  1.65091308733588E+00
(PID.TID 0000.0001)  ploadbar=  1.01060458265657E+05
 cg2d: Sum(rhs),rhsMax =  -7.23464529541753E+01  1.65898924524284E+00
(PID.TID 0000.0001)  ploadbar=  1.01058976817355E+05
 cg2d: Sum(rhs),rhsMax =  -7.18391685808658E+01  1.67014962685914E+00
(PID.TID 0000.0001)  ploadbar=  1.01057495369054E+05
 cg2d: Sum(rhs),rhsMax =  -7.12246840994804E+01  1.68401899979952E+00
(PID.TID 0000.0001)  ploadbar=  1.01056013920752E+05
 cg2d: Sum(rhs),rhsMax =  -7.05586248430329E+01  1.69938477917584E+00
(PID.TID 0000.0001)  ploadbar=  1.01054532472450E+05
 cg2d: Sum(rhs),rhsMax =  -6.98484425061778E+01  1.71614118002363E+00
(PID.TID 0000.0001)  ploadbar=  1.01053051024148E+05
 cg2d: Sum(rhs),rhsMax =  -6.93014220715134E+01  1.72913525481906E+00
(PID.TID 0000.0001)  ploadbar=  1.01051121961370E+05
 cg2d: Sum(rhs),rhsMax =  -6.90970921571828E+01  1.73366503062638E+00
(PID.TID 0000.0001)  ploadbar=  1.01049192898592E+05
 cg2d: Sum(rhs),rhsMax =  -6.88656836850844E+01  1.73887161525577E+00
(PID.TID 0000.0001)  ploadbar=  1.01047263835813E+05
 cg2d: Sum(rhs),rhsMax =  -6.86077543930559E+01  1.74474989010470E+00
(PID.TID 0000.0001)  ploadbar=  1.01045334773035E+05
 cg2d: Sum(rhs),rhsMax =  -6.83238190433925E+01  1.75129705702891E+00
(PID.TID 0000.0001)  ploadbar=  1.01043405710257E+05
 cg2d: Sum(rhs),rhsMax =  -6.80180566249661E+01  1.75842077525755E+00
(PID.TID 0000.0001)  ploadbar=  1.01041476647479E+05
 cg2d: Sum(rhs),rhsMax =  -6.76985655346489E+01  1.76596292572807E+00
(PID.TID 0000.0001)  ploadbar=  1.01038593197918E+05
 cg2d: Sum(rhs),rhsMax =  -6.73790883750358E+01  1.77356539245641E+00
(PID.TID 0000.0001)  ploadbar=  1.01035709748358E+05
 cg2d: Sum(rhs),rhsMax =  -6.70694655951564E+01  1.78096563442746E+00
(PID.TID 0000.0001)  ploadbar=  1.01032826298798E+05
 cg2d: Sum(rhs),rhsMax =  -6.67779790440918E+01  1.78793069782092E+00
(PID.TID 0000.0001)  ploadbar=  1.01029942849238E+05
 cg2d: Sum(rhs),rhsMax =  -6.65087038115721E+01  1.79433339313280E+00
(PID.TID 0000.0001)  ploadbar=  1.01027059399677E+05
 cg2d: Sum(rhs),rhsMax =  -6.62640428031474E+01  1.80009243865796E+00
(PID.TID 0000.0001)  ploadbar=  1.01024175950117E+05
 cg2d: Sum(rhs),rhsMax =  -6.60234921171471E+01  1.80578123530836E+00
(PID.TID 0000.0001)  ploadbar=  1.01022304886696E+05
 cg2d: Sum(rhs),rhsMax =  -6.57723022504347E+01  1.81180199823998E+00
(PID.TID 0000.0001)  ploadbar=  1.01020433823275E+05
 cg2d: Sum(rhs),rhsMax =  -6.55130415927595E+01  1.81808738008191E+00
(PID.TID 0000.0001)  ploadbar=  1.01018562759854E+05
 cg2d: Sum(rhs),rhsMax =  -6.52882943948594E+01  1.82344870858131E+00
(PID.TID 0000.0001)  ploadbar=  1.01016691696434E+05
 cg2d: Sum(rhs),rhsMax =  -6.50037413891605E+01  1.83051530509817E+00
(PID.TID 0000.0001)  ploadbar=  1.01014820633013E+05
 cg2d: Sum(rhs),rhsMax =  -6.47519171116732E+01  1.83669766897247E+00
(PID.TID 0000.0001)  ploadbar=  1.01012949569592E+05
 cg2d: Sum(rhs),rhsMax =  -6.44206649175170E+01  1.84525613149402E+00
(PID.TID 0000.0001)  ploadbar=  1.01012149004527E+05
 cg2d: Sum(rhs),rhsMax =  -6.39954116897163E+01  1.85667617389215E+00
(PID.TID 0000.0001)  ploadbar=  1.01011348439463E+05
 cg2d: Sum(rhs),rhsMax =  -6.35148342507983E+01  1.86991559457333E+00
(PID.TID 0000.0001)  ploadbar=  1.01010547874398E+05
 cg2d: Sum(rhs),rhsMax =  -6.30384954006338E+01  1.88326297158093E+00
(PID.TID 0000.0001)  ploadbar=  1.01009747309334E+05
 cg2d: Sum(rhs),rhsMax =  -6.26395677858053E+01  1.89450024251368E+00
(PID.TID 0000.0001)  ploadbar=  1.01008946744269E+05
 cg2d: Sum(rhs),rhsMax =  -6.22771486428377E+01  1.90479272785955E+00
(PID.TID 0000.0001)  ploadbar=  1.01008146179205E+05
 cg2d: Sum(rhs),rhsMax =  -6.19184238400138E+01  1.91509573635740E+00
(PID.TID 0000.0001)  ploadbar=  1.01007017803217E+05
 cg2d: Sum(rhs),rhsMax =  -6.15707752802167E+01  1.92517019341319E+00
(PID.TID 0000.0001)  ploadbar=  1.01005889427228E+05
 cg2d: Sum(rhs),rhsMax =  -6.12435010065229E+01  1.93470605981563E+00
(PID.TID 0000.0001)  ploadbar=  1.01004761051240E+05
 cg2d: Sum(rhs),rhsMax =  -6.09396501079463E+01  1.94357940928525E+00
(PID.TID 0000.0001)  ploadbar=  1.01003632675252E+05
 cg2d: Sum(rhs),rhsMax =  -6.06628575099311E+01  1.95164923424373E+00
(PID.TID 0000.0001)  ploadbar=  1.01002504299264E+05
 cg2d: Sum(rhs),rhsMax =  -6.04375598532555E+01  1.95809659671253E+00
(PID.TID 0000.0001)  ploadbar=  1.01001375923276E+05
 cg2d: Sum(rhs),rhsMax =  -6.02281565067043E+01  1.96408221817658E+00
(PID.TID 0000.0001)  ploadbar=  1.01000018794054E+05
 cg2d: Sum(rhs),rhsMax =  -6.00123550790863E+01  1.97032001743885E+00
(PID.TID 0000.0001)  ploadbar=  1.00998661664831E+05
 cg2d: Sum(rhs),rhsMax =  -5.98567332689326E+01  1.97461433936645E+00
(PID.TID 0000.0001)  ploadbar=  1.00997304535609E+05
 cg2d: Sum(rhs),rhsMax =  -5.98083460917516E+01  1.97538230866897E+00
(PID.TID 0000.0001)  ploadbar=  1.00995947406387E+05
 cg2d: Sum(rhs),rhsMax =  -5.98299755663762E+01  1.97383228013074E+00
(PID.TID 0000.0001)  ploadbar=  1.00994590277165E+05
 cg2d: Sum(rhs),rhsMax =  -5.99137338645433E+01  1.97022658708624E+00
(PID.TID 0000.0001)  ploadbar=  1.00993233147942E+05
 cg2d: Sum(rhs),rhsMax =  -6.00099718502574E+01  1.96621736333876E+00
(PID.TID 0000.0001)  ploadbar=  1.00993337934992E+05
 cg2d: Sum(rhs),rhsMax =  -6.00924445435784E+01  1.96265678810470E+00
(PID.TID 0000.0001)  ploadbar=  1.00993442722041E+05
 cg2d: Sum(rhs),rhsMax =  -6.01408295442767E+01  1.96019895830931E+00
(PID.TID 0000.0001)  ploadbar=  1.00993547509091E+05
 cg2d: Sum(rhs),rhsMax =  -6.01780725002941E+01  1.95808183784106E+00
(PID.TID 0000.0001)  ploadbar=  1.00993652296141E+05
 cg2d: Sum(rhs),rhsMax =  -6.01603611077361E+01  1.95772263697587E+00
(PID.TID 0000.0001)  ploadbar=  1.00993757083190E+05
 cg2d: Sum(rhs),rhsMax =  -6.01108449624765E+01  1.95836200504320E+00
(PID.TID 0000.0001)  ploadbar=  1.00993861870240E+05
 cg2d: Sum(rhs),rhsMax =  -6.00129988952080E+01  1.96064095857006E+00
(PID.TID 0000.0001)  ploadbar=  1.00994479700521E+05
 cg2d: Sum(rhs),rhsMax =  -5.99827655338092E+01  1.96076853391642E+00
(PID.TID 0000.0001)  ploadbar=  1.00995097530803E+05
 cg2d: Sum(rhs),rhsMax =  -6.01144387797003E+01  1.95566425646399E+00
(PID.TID 0000.0001)  ploadbar=  1.00995715361085E+05
 cg2d: Sum(rhs),rhsMax =  -6.03327687001618E+01  1.94782414627491E+00
(PID.TID 0000.0001)  ploadbar=  1.00996333191366E+05
 cg2d: Sum(rhs),rhsMax =  -6.06373992559184E+01  1.93732192905074E+00
(PID.TID 0000.0001)  ploadbar=  1.00996951021648E+05
 cg2d: Sum(rhs),rhsMax =  -6.10171489523532E+01  1.92459181008260E+00
(PID.TID 0000.0001)  ploadbar=  1.00997568851930E+05
 cg2d: Sum(rhs),rhsMax =  -6.14855830422584E+01  1.90926167391312E+00
(PID.TID 0000.0001)  ploadbar=  1.00998598852733E+05
 cg2d: Sum(rhs),rhsMax =  -6.20312874824109E+01  1.89180070793898E+00
(PID.TID 0000.0001)  ploadbar=  1.00999628853536E+05
 cg2d: Sum(rhs),rhsMax =  -6.26417452422765E+01  1.87270020669700E+00
(PID.TID 0000.0001)  ploadbar=  1.01000658854339E+05
 cg2d: Sum(rhs),rhsMax =  -6.33082819379968E+01  1.85231652751910E+00
(PID.TID 0000.0001)  ploadbar=  1.01001688855142E+05
 cg2d: Sum(rhs),rhsMax =  -6.40285474845693E+01  1.83080353733652E+00
(PID.TID 0000.0001)  ploadbar=  1.01002718855945E+05
 cg2d: Sum(rhs),rhsMax =  -6.48096249063967E+01  1.80805102667155E+00
(PID.TID 0000.0001)  ploadbar=  1.01003748856749E+05
 cg2d: Sum(rhs),rhsMax =  -6.56465163134486E+01  1.78434942748717E+00
(PID.TID 0000.0001)  ploadbar=  1.01003476315386E+05
 cg2d: Sum(rhs),rhsMax =  -6.65569026663017E+01  1.75932313797308E+00
(PID.TID 0000.0001)  ploadbar=  1.01003203774023E+05
 cg2d: Sum(rhs),rhsMax =  -6.75544333288676E+01  1.73275404341926E+00
(PID.TID 0000.0001)  ploadbar=  1.01002931232660E+05
 cg2d: Sum(rhs),rhsMax =  -6.86515347564052E+01  1.70450028692495E+00
(PID.TID 0000.0001)  ploadbar=  1.01002658691297E+05
 cg2d: Sum(rhs),rhsMax =  -6.98556606387055E+01  1.67458155199536E+00
(PID.TID 0000.0001)  ploadbar=  1.01002386149934E+05
 cg2d: Sum(rhs),rhsMax =  -7.11668769319084E+01  1.64320768385429E+00
(PID.TID 0000.0001)  ploadbar=  1.01002113608571E+05
 cg2d: Sum(rhs),rhsMax =  -7.25245714568399E+01  1.61190160767104E+00
(PID.TID 0000.0001)  ploadbar=  1.01002858278813E+05
 cg2d: Sum(rhs),rhsMax =  -7.39104929482367E+01  1.58110619820609E+00
(PID.TID 0000.0001)  ploadbar=  1.01003602949055E+05
 cg2d: Sum(rhs),rhsMax =  -7.53072870743884E+01  1.55118224690570E+00
(PID.TID 0000.0001)  ploadbar=  1.01004347619297E+05
 cg2d: Sum(rhs),rhsMax =  -7.67043797387010E+01  1.52230014205328E+00
(PID.TID 0000.0001)  ploadbar=  1.01005092289538E+05
 cg2d: Sum(rhs),rhsMax =  -7.80997370137082E+01  1.49443872459963E+00
(PID.TID 0000.0001)  ploadbar=  1.01005836959780E+05
 cg2d: Sum(rhs),rhsMax =  -7.95544889733094E+01  1.46641144542579E+00
(PID.TID 0000.0001)  ploadbar=  1.01006581630022E+05
 cg2d: Sum(rhs),rhsMax =  -8.09291292801565E+01  1.44086806048445E+00
(PID.TID 0000.0001)  ploadbar=  1.01006901708736E+05
 cg2d: Sum(rhs),rhsMax =  -8.24322754124966E+01  1.41401920891962E+00
(PID.TID 0000.0001)  ploadbar=  1.01007221787451E+05
 cg2d: Sum(rhs),rhsMax =  -8.40032029481304E+01  1.38705773064222E+00
(PID.TID 0000.0001)  ploadbar=  1.01007541866165E+05
 cg2d: Sum(rhs),rhsMax =  -8.28484003886675E+01  1.40591110425751E+00
(PID.TID 0000.0001)  ploadbar=  1.01007861944879E+05
 cg2d: Sum(rhs),rhsMax =  -8.08577188405782E+01  1.44007591346542E+00
(PID.TID 0000.0001)  ploadbar=  1.01008182023594E+05
 cg2d: Sum(rhs),rhsMax =  -7.89798527992433E+01  1.47390148089022E+00
(PID.TID 0000.0001)  ploadbar=  1.01008502102308E+05
 cg2d: Sum(rhs),rhsMax =  -7.72752552995384E+01  1.50598978745734E+00
(PID.TID 0000.0001)  ploadbar=  1.01009225040694E+05
 cg2d: Sum(rhs),rhsMax =  -7.57589430438803E+01  1.53569320215684E+00
(PID.TID 0000.0001)  ploadbar=  1.01009947979081E+05
 cg2d: Sum(rhs),rhsMax =  -7.44330508680837E+01  1.56259146749751E+00
(PID.TID 0000.0001)  ploadbar=  1.01010670917467E+05
 cg2d: Sum(rhs),rhsMax =  -7.32801897441689E+01  1.58669337535659E+00
(PID.TID 0000.0001)  ploadbar=  1.01011393855853E+05
 cg2d: Sum(rhs),rhsMax =  -7.22951839700954E+01  1.60780114525080E+00
(PID.TID 0000.0001)  ploadbar=  1.01012116794240E+05
 cg2d: Sum(rhs),rhsMax =  -7.14594500915077E+01  1.62606019798561E+00
(PID.TID 0000.0001)  ploadbar=  1.01012839732626E+05
 cg2d: Sum(rhs),rhsMax =  -7.06184238035700E+01  1.64491281544004E+00
(PID.TID 0000.0001)  ploadbar=  1.01013356025030E+05
 cg2d: Sum(rhs),rhsMax =  -6.97587992580949E+01  1.66469984160069E+00
(PID.TID 0000.0001)  ploadbar=  1.01013872317434E+05
 cg2d: Sum(rhs),rhsMax =  -6.88939067909750E+01  1.68514432697414E+00
(PID.TID 0000.0001)  ploadbar=  1.01014388609838E+05
 cg2d: Sum(rhs),rhsMax =  -6.80583509518268E+01  1.70540753506010E+00
(PID.TID 0000.0001)  ploadbar=  1.01014904902242E+05
 cg2d: Sum(rhs),rhsMax =  -6.72738005364753E+01  1.72489670487466E+00
(PID.TID 0000.0001)  ploadbar=  1.01015421194646E+05
 cg2d: Sum(rhs),rhsMax =  -6.65187216346715E+01  1.74409771030218E+00
(PID.TID 0000.0001)  ploadbar=  1.01015937487050E+05
 cg2d: Sum(rhs),rhsMax =  -6.58196504146319E+01  1.76218394371165E+00
(PID.TID 0000.0001)  ploadbar=  1.01016084950134E+05
 cg2d: Sum(rhs),rhsMax =  -6.49078042779964E+01  1.78643516396932E+00
(PID.TID 0000.0001)  ploadbar=  1.01016232413218E+05
 cg2d: Sum(rhs),rhsMax =  -6.36172445903462E+01  1.82209515487337E+00
(PID.TID 0000.0001)  ploadbar=  1.01016379876301E+05
 cg2d: Sum(rhs),rhsMax =  -6.19859538066490E+01  1.86937973629271E+00
(PID.TID 0000.0001)  ploadbar=  1.01016527339385E+05
 cg2d: Sum(rhs),rhsMax =  -6.01005454497378E+01  1.92725343543986E+00
(PID.TID 0000.0001)  ploadbar=  1.01016674802469E+05
 cg2d: Sum(rhs),rhsMax =  -5.80386696104909E+01  1.99483502486917E+00
(PID.TID 0000.0001)  ploadbar=  1.01016822265552E+05
 cg2d: Sum(rhs),rhsMax =  -5.61482845610761E+01  2.06113851378747E+00
(PID.TID 0000.0001)  ploadbar=  1.01016306178668E+05
 cg2d: Sum(rhs),rhsMax =  -5.44912006317384E+01  2.12298575901242E+00
(PID.TID 0000.0001)  ploadbar=  1.01015790091784E+05
 cg2d: Sum(rhs),rhsMax =  -5.31138389502014E+01  2.17723332312820E+00
(PID.TID 0000.0001)  ploadbar=  1.01015274004900E+05
 cg2d: Sum(rhs),rhsMax =  -5.19344966834761E+01  2.22589275321696E+00
(PID.TID 0000.0001)  ploadbar=  1.01014757918016E+05
 cg2d: Sum(rhs),rhsMax =  -5.09141785244955E+01  2.26973805455975E+00
(PID.TID 0000.0001)  ploadbar=  1.01014241831132E+05
 cg2d: Sum(rhs),rhsMax =  -5.00087112853808E+01  2.31008701540063E+00
(PID.TID 0000.0001)  ploadbar=  1.01013725744248E+05
 cg2d: Sum(rhs),rhsMax =  -4.91579997068839E+01  2.34929541349611E+00
(PID.TID 0000.0001)  ploadbar=  1.01013399963812E+05
 cg2d: Sum(rhs),rhsMax =  -4.82722580586565E+01  2.39159876663834E+00
(PID.TID 0000.0001)  ploadbar=  1.01013074183375E+05
 cg2d: Sum(rhs),rhsMax =  -4.73798121936596E+01  2.43579930695258E+00
(PID.TID 0000.0001)  ploadbar=  1.01012748402939E+05
 cg2d: Sum(rhs),rhsMax =  -4.64616878265197E+01  2.48303050967953E+00
(PID.TID 0000.0001)  ploadbar=  1.01012422622503E+05
 cg2d: Sum(rhs),rhsMax =  -4.56838185630534E+01  2.52434517907682E+00
(PID.TID 0000.0001)  ploadbar=  1.01012096842067E+05
 cg2d: Sum(rhs),rhsMax =  -4.45833212124451E+01  2.58561157779104E+00
(PID.TID 0000.0001)  ploadbar=  1.01011771061631E+05
 cg2d: Sum(rhs),rhsMax =  -4.33967893676162E+01  2.65528904459098E+00
(PID.TID 0000.0001)  ploadbar=  1.01011712036117E+05
 cg2d: Sum(rhs),rhsMax =  -4.25987235059754E+01  2.70404934378517E+00
(PID.TID 0000.0001)  ploadbar=  1.01011653010603E+05
 cg2d: Sum(rhs),rhsMax =  -4.17253887814925E+01  2.75969153152951E+00
(PID.TID 0000.0001)  ploadbar=  1.01011593985089E+05
 cg2d: Sum(rhs),rhsMax =  -4.08234733294611E+01  2.81973337016531E+00
(PID.TID 0000.0001)  ploadbar=  1.01011534959575E+05
 cg2d: Sum(rhs),rhsMax =  -3.97775349380416E+01  2.89296649451158E+00
(PID.TID 0000.0001)  ploadbar=  1.01011475934061E+05
 cg2d: Sum(rhs),rhsMax =  -3.86539793731206E+01  2.97615509071818E+00
(PID.TID 0000.0001)  ploadbar=  1.01011416908547E+05
 cg2d: Sum(rhs),rhsMax =  -3.76077134304788E+01  3.05799836375340E+00
(PID.TID 0000.0001)  ploadbar=  1.01010561734914E+05
 cg2d: Sum(rhs),rhsMax =  -3.66781516779143E+01  3.13447850683160E+00
(PID.TID 0000.0001)  ploadbar=  1.01009706561282E+05
 cg2d: Sum(rhs),rhsMax =  -3.62737609132032E+01  3.16833819200829E+00
(PID.TID 0000.0001)  ploadbar=  1.01008851387650E+05
 cg2d: Sum(rhs),rhsMax =  -3.64180719135900E+01  3.15464138701978E+00
(PID.TID 0000.0001)  ploadbar=  1.01007996214017E+05
 cg2d: Sum(rhs),rhsMax =  -3.69987601026628E+01  3.10393483061923E+00
(PID.TID 0000.0001)  ploadbar=  1.01007141040385E+05
 cg2d: Sum(rhs),rhsMax =  -3.80245022059768E+01  3.01896941335360E+00
(PID.TID 0000.0001)  ploadbar=  1.01006285866753E+05
 cg2d: Sum(rhs),rhsMax =  -3.94433639653054E+01  2.90930150186603E+00
(PID.TID 0000.0001)  ploadbar=  1.01005967279588E+05
 cg2d: Sum(rhs),rhsMax =  -4.08687786642247E+01  2.80690543390485E+00
(PID.TID 0000.0001)  ploadbar=  1.01005648692423E+05
 cg2d: Sum(rhs),rhsMax =  -4.17940097611661E+01  2.74395448611243E+00
(PID.TID 0000.0001)  ploadbar=  1.01005330105258E+05
 cg2d: Sum(rhs),rhsMax =  -4.11915887165772E+01  2.78334839512126E+00
(PID.TID 0000.0001)  ploadbar=  1.01005011518093E+05
 cg2d: Sum(rhs),rhsMax =  -4.01686523467180E+01  2.85355696514386E+00
(PID.TID 0000.0001)  ploadbar=  1.01004692930928E+05
 cg2d: Sum(rhs),rhsMax =  -3.93145581369802E+01  2.91494281614238E+00
(PID.TID 0000.0001)  ploadbar=  1.01004374343763E+05
 cg2d: Sum(rhs),rhsMax =  -3.85792105114068E+01  2.96981200072101E+00
(PID.TID 0000.0001)  ploadbar=  1.01004343837530E+05
 cg2d: Sum(rhs),rhsMax =  -3.79327513938974E+01  3.01964155848272E+00
(PID.TID 0000.0001)  ploadbar=  1.01004313331297E+05
 cg2d: Sum(rhs),rhsMax =  -3.75274418704691E+01  3.05137771317576E+00
(PID.TID 0000.0001)  ploadbar=  1.01004282825064E+05
 cg2d: Sum(rhs),rhsMax =  -3.73328394386634E+01  3.06630776320551E+00
(PID.TID 0000.0001)  ploadbar=  1.01004252318831E+05
 cg2d: Sum(rhs),rhsMax =  -3.72674555413914E+01  3.07060549152013E+00
(PID.TID 0000.0001)  ploadbar=  1.01004221812598E+05
 cg2d: Sum(rhs),rhsMax =  -3.73330279690000E+01  3.06403044179816E+00
(PID.TID 0000.0001)  ploadbar=  1.01004191306365E+05
 cg2d: Sum(rhs),rhsMax =  -3.71803021209930E+01  3.07549800419905E+00
(PID.TID 0000.0001)  ploadbar=  1.01005551507471E+05
 cg2d: Sum(rhs),rhsMax =  -3.71498784854930E+01  3.07695776881821E+00
(PID.TID 0000.0001)  ploadbar=  1.01006911708578E+05
 cg2d: Sum(rhs),rhsMax =  -3.74012798973081E+01  3.05527900240889E+00
(PID.TID 0000.0001)  ploadbar=  1.01008271909685E+05
 cg2d: Sum(rhs),rhsMax =  -3.76892628901172E+01  3.03099916964334E+00
(PID.TID 0000.0001)  ploadbar=  1.01009632110791E+05
 cg2d: Sum(rhs),rhsMax =  -3.78198606507640E+01  3.01964865860037E+00
(PID.TID 0000.0001)  ploadbar=  1.01010992311898E+05
 cg2d: Sum(rhs),rhsMax =  -3.82110096650070E+01  2.98790593936634E+00
(PID.TID 0000.0001)  ploadbar=  1.01012352513005E+05
 cg2d: Sum(rhs),rhsMax =  -3.85873237482921E+01  2.95792679403967E+00
(PID.TID 0000.0001)  ploadbar=  1.01012593443208E+05
 cg2d: Sum(rhs),rhsMax =  -3.92437286350874E+01  2.90759952817670E+00
(PID.TID 0000.0001)  ploadbar=  1.01012834373411E+05
 cg2d: Sum(rhs),rhsMax =  -4.00851472179623E+01  2.84570194230072E+00
(PID.TID 0000.0001)  ploadbar=  1.01013075303615E+05
 cg2d: Sum(rhs),rhsMax =  -4.08370202959332E+01  2.79242544387073E+00
(PID.TID 0000.0001)  ploadbar=  1.01013316233818E+05
 cg2d: Sum(rhs),rhsMax =  -4.14676774984871E+01  2.74904501055093E+00
(PID.TID 0000.0001)  ploadbar=  1.01013557164021E+05
 cg2d: Sum(rhs),rhsMax =  -4.19754794599804E+01  2.71484372994806E+00
(PID.TID 0000.0001)  ploadbar=  1.01013798094224E+05
 cg2d: Sum(rhs),rhsMax =  -4.23444041179385E+01  2.69030296787007E+00
(PID.TID 0000.0001)  ploadbar=  1.01016350008917E+05
 cg2d: Sum(rhs),rhsMax =  -4.25981413090345E+01  2.67343621958151E+00
(PID.TID 0000.0001)  ploadbar=  1.01018901923610E+05
 cg2d: Sum(rhs),rhsMax =  -4.27943270194101E+01  2.66037690362370E+00
(PID.TID 0000.0001)  ploadbar=  1.01021453838303E+05
 cg2d: Sum(rhs),rhsMax =  -4.31054312714019E+01  2.64041164731678E+00
(PID.TID 0000.0001)  ploadbar=  1.01024005752995E+05
 cg2d: Sum(rhs),rhsMax =  -4.37901770121645E+01  2.59840008913447E+00
(PID.TID 0000.0001)  ploadbar=  1.01026557667688E+05
 cg2d: Sum(rhs),rhsMax =  -4.47296155178003E+01  2.54314759856736E+00
(PID.TID 0000.0001)  ploadbar=  1.01029109582381E+05
 cg2d: Sum(rhs),rhsMax =  -4.58371716227889E+01  2.48106881107802E+00
(PID.TID 0000.0001)  ploadbar=  1.01031451268125E+05
 cg2d: Sum(rhs),rhsMax =  -4.70514145557211E+01  2.41645426297992E+00
(PID.TID 0000.0001)  ploadbar=  1.01033792953870E+05
 cg2d: Sum(rhs),rhsMax =  -4.58289367010451E+01  2.48032859317146E+00
(PID.TID 0000.0001)  ploadbar=  1.01036134639614E+05
 cg2d: Sum(rhs),rhsMax =  -4.38953608763357E+01  2.58898734468194E+00
(PID.TID 0000.0001)  ploadbar=  1.01038476325359E+05
 cg2d: Sum(rhs),rhsMax =  -4.21780060567320E+01  2.69377882951865E+00
(PID.TID 0000.0001)  ploadbar=  1.01040818011103E+05
 cg2d: Sum(rhs),rhsMax =  -4.06421837404347E+01  2.79491845743342E+00
(PID.TID 0000.0001)  ploadbar=  1.01043159696848E+05
 cg2d: Sum(rhs),rhsMax =  -3.92836574403338E+01  2.89092552195809E+00
(PID.TID 0000.0001)  ploadbar=  1.01045521240953E+05
 cg2d: Sum(rhs),rhsMax =  -3.81152076701111E+01  2.97890799734623E+00
(PID.TID 0000.0001)  ploadbar=  1.01047882785058E+05
 cg2d: Sum(rhs),rhsMax =  -3.71346850532520E+01  3.05692966844641E+00
(PID.TID 0000.0001)  ploadbar=  1.01050244329163E+05
 cg2d: Sum(rhs),rhsMax =  -3.63352424936896E+01  3.12355770060006E+00
(PID.TID 0000.0001)  ploadbar=  1.01052605873268E+05
 cg2d: Sum(rhs),rhsMax =  -3.56738460355014E+01  3.18083795187776E+00
(PID.TID 0000.0001)  ploadbar=  1.01054967417373E+05
 cg2d: Sum(rhs),rhsMax =  -3.51542737426360E+01  3.22721453155644E+00
(PID.TID 0000.0001)  ploadbar=  1.01057328961479E+05
 cg2d: Sum(rhs),rhsMax =  -3.48041109608436E+01  3.25898714772609E+00
(PID.TID 0000.0001)  ploadbar=  1.01058414463418E+05
 cg2d: Sum(rhs),rhsMax =  -3.45627417596667E+01  3.28097860037650E+00
(PID.TID 0000.0001)  ploadbar=  1.01059499965356E+05
 cg2d: Sum(rhs),rhsMax =  -3.44237067445299E+01  3.29338635355339E+00
(PID.TID 0000.0001)  ploadbar=  1.01060585467295E+05
 cg2d: Sum(rhs),rhsMax =  -3.43689551930131E+01  3.29770709481508E+00
(PID.TID 0000.0001)  ploadbar=  1.01061670969234E+05
 cg2d: Sum(rhs),rhsMax =  -3.43772170214360E+01  3.29589626635855E+00
(PID.TID 0000.0001)  ploadbar=  1.01062756471173E+05
 cg2d: Sum(rhs),rhsMax =  -3.44314396083243E+01  3.28958341152018E+00
(PID.TID 0000.0001)  ploadbar=  1.01063841973112E+05
 cg2d: Sum(rhs),rhsMax =  -3.45238998620029E+01  3.27973888365812E+00
(PID.TID 0000.0001)  ploadbar=  1.01063451579496E+05
 cg2d: Sum(rhs),rhsMax =  -3.46471346427440E+01  3.26711939966969E+00
(PID.TID 0000.0001)  ploadbar=  1.01063061185880E+05
 cg2d: Sum(rhs),rhsMax =  -3.48056760779348E+01  3.25135811536018E+00
(PID.TID 0000.0001)  ploadbar=  1.01062670792263E+05
 cg2d: Sum(rhs),rhsMax =  -3.50034876407295E+01  3.23216753654548E+00
(PID.TID 0000.0001)  ploadbar=  1.01062280398647E+05
 cg2d: Sum(rhs),rhsMax =  -3.52435282355854E+01  3.20939460459451E+00
(PID.TID 0000.0001)  ploadbar=  1.01061890005031E+05
 cg2d: Sum(rhs),rhsMax =  -3.55295292141051E+01  3.18285444151188E+00
(PID.TID 0000.0001)  ploadbar=  1.01061499611414E+05
 cg2d: Sum(rhs),rhsMax =  -3.58421361373928E+01  3.15435605644581E+00
(PID.TID 0000.0001)  ploadbar=  1.01061195176100E+05
 cg2d: Sum(rhs),rhsMax =  -3.61805642474041E+01  3.12407018283953E+00
(PID.TID 0000.0001)  ploadbar=  1.01060890740785E+05
 cg2d: Sum(rhs),rhsMax =  -3.65424805729862E+01  3.09230198359008E+00
(PID.TID 0000.0001)  ploadbar=  1.01060586305470E+05
 cg2d: Sum(rhs),rhsMax =  -3.69229970903069E+01  3.05955756196150E+00
(PID.TID 0000.0001)  ploadbar=  1.01060281870155E+05
 cg2d: Sum(rhs),rhsMax =  -3.73200419071150E+01  3.02607050719834E+00
(PID.TID 0000.0001)  ploadbar=  1.01059977434840E+05
 cg2d: Sum(rhs),rhsMax =  -3.77329994670672E+01  2.99194643232516E+00
(PID.TID 0000.0001)  ploadbar=  1.01059672999526E+05
 cg2d: Sum(rhs),rhsMax =  -3.81432904254605E+01  2.95882197084989E+00
(PID.TID 0000.0001)  ploadbar=  1.01059262190127E+05
 cg2d: Sum(rhs),rhsMax =  -3.85643037851155E+01  2.92563757318294E+00
(PID.TID 0000.0001)  ploadbar=  1.01058851380729E+05
 cg2d: Sum(rhs),rhsMax =  -3.89930877963751E+01  2.89263710038442E+00
(PID.TID 0000.0001)  ploadbar=  1.01058440571330E+05
 cg2d: Sum(rhs),rhsMax =  -3.94247362870668E+01  2.86018471675725E+00
(PID.TID 0000.0001)  ploadbar=  1.01058029761932E+05
 cg2d: Sum(rhs),rhsMax =  -3.98545405887432E+01  2.82859273195494E+00
(PID.TID 0000.0001)  ploadbar=  1.01057618952533E+05
 cg2d: Sum(rhs),rhsMax =  -4.02775897304456E+01  2.79815725583050E+00
(PID.TID 0000.0001)  ploadbar=  1.01057208143135E+05
 cg2d: Sum(rhs),rhsMax =  -4.06955935788591E+01  2.76867076642921E+00
(PID.TID 0000.0001)  ploadbar=  1.01057744515797E+05
 cg2d: Sum(rhs),rhsMax =  -4.11206020870031E+01  2.73927996789480E+00
(PID.TID 0000.0001)  ploadbar=  1.01058280888458E+05
 cg2d: Sum(rhs),rhsMax =  -4.15650298130378E+01  2.70918194038549E+00
(PID.TID 0000.0001)  ploadbar=  1.01058817261120E+05
 cg2d: Sum(rhs),rhsMax =  -4.20347321082473E+01  2.67806191438487E+00
(PID.TID 0000.0001)  ploadbar=  1.01059353633782E+05
 cg2d: Sum(rhs),rhsMax =  -4.25312159207433E+01  2.64590562547367E+00
(PID.TID 0000.0001)  ploadbar=  1.01059890006444E+05
 cg2d: Sum(rhs),rhsMax =  -4.30514476764587E+01  2.61298290339856E+00
(PID.TID 0000.0001)  ploadbar=  1.01060426379105E+05
 cg2d: Sum(rhs),rhsMax =  -4.35714147312343E+01  2.58092767745808E+00
(PID.TID 0000.0001)  ploadbar=  1.01060609737929E+05
 cg2d: Sum(rhs),rhsMax =  -4.40793133178907E+01  2.55038786665033E+00
(PID.TID 0000.0001)  ploadbar=  1.01060793096753E+05
 cg2d: Sum(rhs),rhsMax =  -4.45608729738840E+01  2.52208923670067E+00
(PID.TID 0000.0001)  ploadbar=  1.01060976455577E+05
 cg2d: Sum(rhs),rhsMax =  -4.50138563531900E+01  2.49602566826109E+00
(PID.TID 0000.0001)  ploadbar=  1.01061159814401E+05
 cg2d: Sum(rhs),rhsMax =  -4.54405501263710E+01  2.47194993683264E+00
(PID.TID 0000.0001)  ploadbar=  1.01061343173225E+05
 cg2d: Sum(rhs),rhsMax =  -4.58445560977381E+01  2.44956467069422E+00
(PID.TID 0000.0001)  ploadbar=  1.01061526532049E+05
 cg2d: Sum(rhs),rhsMax =  -4.62417255985145E+01  2.42792738099428E+00
(PID.TID 0000.0001)  ploadbar=  1.01060913040665E+05
 cg2d: Sum(rhs),rhsMax =  -4.66326963083412E+01  2.40696719858747E+00
(PID.TID 0000.0001)  ploadbar=  1.01060299549280E+05
 cg2d: Sum(rhs),rhsMax =  -4.70267271935578E+01  2.38618317694562E+00
(PID.TID 0000.0001)  ploadbar=  1.01059686057896E+05
 cg2d: Sum(rhs),rhsMax =  -4.74256621197657E+01  2.36547340630267E+00
(PID.TID 0000.0001)  ploadbar=  1.01059072566512E+05
 cg2d: Sum(rhs),rhsMax =  -4.78293994911951E+01  2.34483700407963E+00
(PID.TID 0000.0001)  ploadbar=  1.01058459075128E+05
 cg2d: Sum(rhs),rhsMax =  -4.82364592621911E+01  2.32434176252923E+00
(PID.TID 0000.0001)  ploadbar=  1.01057845583744E+05
 cg2d: Sum(rhs),rhsMax =  -4.86372961154606E+01  2.30453897078872E+00
(PID.TID 0000.0001)  ploadbar=  1.01057382400916E+05
 cg2d: Sum(rhs),rhsMax =  -4.90456425557857E+01  2.28475951099767E+00
(PID.TID 0000.0001)  ploadbar=  1.01056919218087E+05
 cg2d: Sum(rhs),rhsMax =  -4.94275784585464E+01  2.26656538367848E+00
(PID.TID 0000.0001)  ploadbar=  1.01056456035258E+05
 cg2d: Sum(rhs),rhsMax =  -4.94441006419074E+01  2.26531231517626E+00
(PID.TID 0000.0001)  ploadbar=  1.01055992852430E+05
 cg2d: Sum(rhs),rhsMax =  -4.94555069720096E+01  2.26433096623022E+00
(PID.TID 0000.0001)  ploadbar=  1.01055529669601E+05
 cg2d: Sum(rhs),rhsMax =  -4.94713268788560E+01  2.26317867751546E+00
(PID.TID 0000.0001)  ploadbar=  1.01055066486772E+05
 cg2d: Sum(rhs),rhsMax =  -4.94904726223678E+01  2.26187296777093E+00
(PID.TID 0000.0001)  ploadbar=  1.01054246324216E+05
 cg2d: Sum(rhs),rhsMax =  -4.95102763473532E+01  2.26052712350358E+00
(PID.TID 0000.0001)  ploadbar=  1.01053426161659E+05
 cg2d: Sum(rhs),rhsMax =  -4.95273075495212E+01  2.25929251761740E+00
(PID.TID 0000.0001)  ploadbar=  1.01052605999103E+05
 cg2d: Sum(rhs),rhsMax =  -4.95416462395261E+01  2.25816220177577E+00
(PID.TID 0000.0001)  ploadbar=  1.01051785836546E+05
 cg2d: Sum(rhs),rhsMax =  -4.95535306818538E+01  2.25711942291666E+00
(PID.TID 0000.0001)  ploadbar=  1.01050965673990E+05
 cg2d: Sum(rhs),rhsMax =  -4.95633257023719E+01  2.25614259969202E+00
(PID.TID 0000.0001)  ploadbar=  1.01050145511433E+05
 cg2d: Sum(rhs),rhsMax =  -4.95648946044014E+01  2.25556959370056E+00
(PID.TID 0000.0001)  ploadbar=  1.01048355450267E+05
 cg2d: Sum(rhs),rhsMax =  -4.95674362731264E+01  2.25498056335341E+00
(PID.TID 0000.0001)  ploadbar=  1.01046565389101E+05
 cg2d: Sum(rhs),rhsMax =  -4.95700047078313E+01  2.25441593261281E+00
(PID.TID 0000.0001)  ploadbar=  1.01044775327935E+05
 cg2d: Sum(rhs),rhsMax =  -4.95719531668890E+01  2.25390115624960E+00
(PID.TID 0000.0001)  ploadbar=  1.01042985266769E+05
 cg2d: Sum(rhs),rhsMax =  -4.95725756901666E+01  2.25346288031154E+00
(PID.TID 0000.0001)  ploadbar=  1.01041195205604E+05
 cg2d: Sum(rhs),rhsMax =  -4.95781100310733E+01  2.25281273598083E+00
(PID.TID 0000.0001)  ploadbar=  1.01039405144438E+05
 cg2d: Sum(rhs),rhsMax =  -4.95726624514488E+01  2.25263725795419E+00
(PID.TID 0000.0001)  ploadbar=  1.01037768616506E+05
 cg2d: Sum(rhs),rhsMax =  -4.95536885131262E+01  2.25304761595783E+00
(PID.TID 0000.0001)  ploadbar=  1.01036132088575E+05
 cg2d: Sum(rhs),rhsMax =  -4.95270166098057E+01  2.25377475428782E+00
(PID.TID 0000.0001)  ploadbar=  1.01034495560643E+05
 cg2d: Sum(rhs),rhsMax =  -4.94932000312560E+01  2.25479005364416E+00
(PID.TID 0000.0001)  ploadbar=  1.01032859032712E+05
 cg2d: Sum(rhs),rhsMax =  -4.94523550520708E+01  2.25608293204187E+00
(PID.TID 0000.0001)  ploadbar=  1.01031222504780E+05
 cg2d: Sum(rhs),rhsMax =  -4.94053488336892E+01  2.25760764544312E+00
(PID.TID 0000.0001)  ploadbar=  1.01029585976849E+05
 cg2d: Sum(rhs),rhsMax =  -4.93539205112898E+01  2.25938490328283E+00
(PID.TID 0000.0001)  ploadbar=  1.01028903624495E+05
 cg2d: Sum(rhs),rhsMax =  -4.92964245016953E+01  2.26148661008922E+00
(PID.TID 0000.0001)  ploadbar=  1.01028221272140E+05
 cg2d: Sum(rhs),rhsMax =  -4.92384105056913E+01  2.26366137128393E+00
(PID.TID 0000.0001)  ploadbar=  1.01027538919786E+05
 cg2d: Sum(rhs),rhsMax =  -4.91824430744398E+01  2.26578560765360E+00
(PID.TID 0000.0001)  ploadbar=  1.01026856567431E+05
 cg2d: Sum(rhs),rhsMax =  -4.91290472344576E+01  2.26783054443996E+00
(PID.TID 0000.0001)  ploadbar=  1.01026174215077E+05
 cg2d: Sum(rhs),rhsMax =  -4.90789256166496E+01  2.26975850248589E+00
(PID.TID 0000.0001)  ploadbar=  1.01025491862722E+05
 cg2d: Sum(rhs),rhsMax =  -4.90331579990801E+01  2.27146305059235E+00
(PID.TID 0000.0001)  ploadbar=  1.01025047937463E+05
 cg2d: Sum(rhs),rhsMax =  -4.89923590130806E+01  2.27290848359428E+00
(PID.TID 0000.0001)  ploadbar=  1.01024604012204E+05
 cg2d: Sum(rhs),rhsMax =  -4.89606186641954E+01  2.27389856789352E+00
(PID.TID 0000.0001)  ploadbar=  1.01024160086945E+05
 cg2d: Sum(rhs),rhsMax =  -4.89393663910821E+01  2.27436271727336E+00
(PID.TID 0000.0001)  ploadbar=  1.01023716161686E+05
 cg2d: Sum(rhs),rhsMax =  -4.89295339944547E+01  2.27425556739790E+00
(PID.TID 0000.0001)  ploadbar=  1.01023272236427E+05
 cg2d: Sum(rhs),rhsMax =  -4.89319766856616E+01  2.27352994742847E+00
(PID.TID 0000.0001)  ploadbar=  1.01022828311168E+05
 cg2d: Sum(rhs),rhsMax =  -4.89537657907914E+01  2.27193131934970E+00
(PID.TID 0000.0001)  ploadbar=  1.01023412649126E+05
 cg2d: Sum(rhs),rhsMax =  -4.89904487774778E+01  2.26966564641051E+00
(PID.TID 0000.0001)  ploadbar=  1.01023996987084E+05
 cg2d: Sum(rhs),rhsMax =  -4.90394840772139E+01  2.26684879949140E+00
(PID.TID 0000.0001)  ploadbar=  1.01024581325043E+05
 cg2d: Sum(rhs),rhsMax =  -4.90993267230135E+01  2.26354905164465E+00
(PID.TID 0000.0001)  ploadbar=  1.01025165663001E+05
 cg2d: Sum(rhs),rhsMax =  -4.91680044495887E+01  2.25985022620085E+00
(PID.TID 0000.0001)  ploadbar=  1.01025750000959E+05
 cg2d: Sum(rhs),rhsMax =  -4.92445671826137E+01  2.25579172305991E+00
(PID.TID 0000.0001)  ploadbar=  1.01026334338918E+05
 cg2d: Sum(rhs),rhsMax =  -4.93321062593287E+01  2.25123505353682E+00
(PID.TID 0000.0001)  ploadbar=  1.01026465902956E+05
 cg2d: Sum(rhs),rhsMax =  -4.94250670713554E+01  2.24643240121410E+00
(PID.TID 0000.0001)  ploadbar=  1.01026597466995E+05
 cg2d: Sum(rhs),rhsMax =  -4.95257616923237E+01  2.24127606473981E+00
(PID.TID 0000.0001)  ploadbar=  1.01026729031034E+05
 cg2d: Sum(rhs),rhsMax =  -4.96294857407977E+01  2.23597799420862E+00
(PID.TID 0000.0001)  ploadbar=  1.01026860595073E+05
 cg2d: Sum(rhs),rhsMax =  -4.97340210024844E+01  2.23063447204638E+00
(PID.TID 0000.0001)  ploadbar=  1.01026992159112E+05
 cg2d: Sum(rhs),rhsMax =  -4.98381515346966E+01  2.22529563210284E+00
(PID.TID 0000.0001)  ploadbar=  1.01027123723151E+05
 cg2d: Sum(rhs),rhsMax =  -4.99448280274719E+01  2.21987696827335E+00
(PID.TID 0000.0001)  ploadbar=  1.01026758008447E+05
 cg2d: Sum(rhs),rhsMax =  -5.00492180201759E+01  2.21458623512417E+00
(PID.TID 0000.0001)  ploadbar=  1.01026392293742E+05
 cg2d: Sum(rhs),rhsMax =  -5.01487828149129E+01  2.20952834491457E+00
(PID.TID 0000.0001)  ploadbar=  1.01026026579038E+05
 cg2d: Sum(rhs),rhsMax =  -5.02403321046726E+01  2.20483437536251E+00
(PID.TID 0000.0001)  ploadbar=  1.01025660864334E+05
 cg2d: Sum(rhs),rhsMax =  -5.03254739214168E+01  2.20041857458513E+00
(PID.TID 0000.0001)  ploadbar=  1.01025295149629E+05
 cg2d: Sum(rhs),rhsMax =  -5.04040956076518E+01  2.19627695121572E+00
(PID.TID 0000.0001)  ploadbar=  1.01024929434925E+05
 cg2d: Sum(rhs),rhsMax =  -5.04799095666018E+01  2.19229859132225E+00
(PID.TID 0000.0001)  ploadbar=  1.01024534132106E+05
 cg2d: Sum(rhs),rhsMax =  -5.05537755593926E+01  2.18843952980794E+00
(PID.TID 0000.0001)  ploadbar=  1.01024138829286E+05
 cg2d: Sum(rhs),rhsMax =  -5.06244512632101E+01  2.18474744018960E+00
(PID.TID 0000.0001)  ploadbar=  1.01023743526467E+05
 cg2d: Sum(rhs),rhsMax =  -5.06923103684230E+01  2.18119487336740E+00
(PID.TID 0000.0001)  ploadbar=  1.01023348223647E+05
 cg2d: Sum(rhs),rhsMax =  -5.07586698639358E+01  2.17771768557644E+00
(PID.TID 0000.0001)  ploadbar=  1.01022952920828E+05
 cg2d: Sum(rhs),rhsMax =  -5.08278230210364E+01  2.17412385495192E+00
(PID.TID 0000.0001)  ploadbar=  1.01022557618008E+05
 cg2d: Sum(rhs),rhsMax =  -5.09170920625172E+01  2.16973135736656E+00
(PID.TID 0000.0001)  ploadbar=  1.01023299677392E+05
 cg2d: Sum(rhs),rhsMax =  -5.10406721989418E+01  2.16394347996122E+00
(PID.TID 0000.0001)  ploadbar=  1.01024041736776E+05
 cg2d: Sum(rhs),rhsMax =  -5.12005678844796E+01  2.15669262825715E+00
(PID.TID 0000.0001)  ploadbar=  1.01024783796161E+05
 cg2d: Sum(rhs),rhsMax =  -5.13966448114306E+01  2.14800650616470E+00
(PID.TID 0000.0001)  ploadbar=  1.01025525855545E+05
 cg2d: Sum(rhs),rhsMax =  -5.16270499975940E+01  2.13798954640599E+00
(PID.TID 0000.0001)  ploadbar=  1.01026267914929E+05
 cg2d: Sum(rhs),rhsMax =  -5.18914195716277E+01  2.12668583510083E+00
(PID.TID 0000.0001)  ploadbar=  1.01027009974313E+05
 cg2d: Sum(rhs),rhsMax =  -5.21849206781524E+01  2.11435342286594E+00
(PID.TID 0000.0001)  ploadbar=  1.01026606544881E+05
 cg2d: Sum(rhs),rhsMax =  -5.25085808081318E+01  2.10098357300562E+00
(PID.TID 0000.0001)  ploadbar=  1.01026203115448E+05
 cg2d: Sum(rhs),rhsMax =  -5.28445335318163E+01  2.08731763839175E+00
(PID.TID 0000.0001)  ploadbar=  1.01025799686016E+05
 cg2d: Sum(rhs),rhsMax =  -5.31868795697131E+01  2.07359368085123E+00
(PID.TID 0000.0001)  ploadbar=  1.01025396256584E+05
 cg2d: Sum(rhs),rhsMax =  -5.35320073740975E+01  2.05995247827308E+00
(PID.TID 0000.0001)  ploadbar=  1.01024992827152E+05
 cg2d: Sum(rhs),rhsMax =  -5.38730302346688E+01  2.04665038117868E+00
(PID.TID 0000.0001)  ploadbar=  1.01024589397720E+05
 cg2d: Sum(rhs),rhsMax =  -5.41776799346186E+01  2.03487198730038E+00
(PID.TID 0000.0001)  ploadbar=  1.01023975649582E+05
 cg2d: Sum(rhs),rhsMax =  -5.44475794639016E+01  2.02451210147379E+00
(PID.TID 0000.0001)  ploadbar=  1.01023361901445E+05
 cg2d: Sum(rhs),rhsMax =  -5.46651830026708E+01  2.01617280095855E+00
(PID.TID 0000.0001)  ploadbar=  1.01022748153308E+05
 cg2d: Sum(rhs),rhsMax =  -5.48302198223370E+01  2.00981307866102E+00
(PID.TID 0000.0001)  ploadbar=  1.01022134405171E+05
 cg2d: Sum(rhs),rhsMax =  -5.49538796700824E+01  2.00498358661048E+00
(PID.TID 0000.0001)  ploadbar=  1.01021520657034E+05
 cg2d: Sum(rhs),rhsMax =  -5.50509717516954E+01  2.00111839183348E+00
(PID.TID 0000.0001)  ploadbar=  1.01020906908897E+05
 cg2d: Sum(rhs),rhsMax =  -5.51292269550901E+01  1.99798698381710E+00
(PID.TID 0000.0001)  ploadbar=  1.01020955911927E+05
 cg2d: Sum(rhs),rhsMax =  -5.52002668711836E+01  1.99515966690629E+00
(PID.TID 0000.0001)  ploadbar=  1.01021004914958E+05
 cg2d: Sum(rhs),rhsMax =  -5.52604931774764E+01  1.99275828813643E+00
(PID.TID 0000.0001)  ploadbar=  1.01021053917988E+05
 cg2d: Sum(rhs),rhsMax =  -5.52994155740830E+01  1.99115025641276E+00
(PID.TID 0000.0001)  ploadbar=  1.01021102921018E+05
 cg2d: Sum(rhs),rhsMax =  -5.52989498602189E+01  1.99097670007773E+00
(PID.TID 0000.0001)  ploadbar=  1.01021151924048E+05
 cg2d: Sum(rhs),rhsMax =  -5.52391008426365E+01  1.99295011717623E+00
(PID.TID 0000.0001)  ploadbar=  1.01021200927078E+05
 cg2d: Sum(rhs),rhsMax =  -5.50947602511933E+01  1.99801596510306E+00
(PID.TID 0000.0001)  ploadbar=  1.01021240021388E+05
 cg2d: Sum(rhs),rhsMax =  -5.48724935567426E+01  2.00597860823561E+00
(PID.TID 0000.0001)  ploadbar=  1.01021279115698E+05
 cg2d: Sum(rhs),rhsMax =  -5.46122395413462E+01  2.01542795438797E+00
(PID.TID 0000.0001)  ploadbar=  1.01021318210009E+05
 cg2d: Sum(rhs),rhsMax =  -5.43144058665734E+01  2.02638546657401E+00
(PID.TID 0000.0001)  ploadbar=  1.01021357304319E+05
 cg2d: Sum(rhs),rhsMax =  -5.39894035047750E+01  2.03850145111360E+00
(PID.TID 0000.0001)  ploadbar=  1.01021396398629E+05
 cg2d: Sum(rhs),rhsMax =  -5.36527981710405E+01  2.05121351436927E+00
(PID.TID 0000.0001)  ploadbar=  1.01021435492939E+05
 cg2d: Sum(rhs),rhsMax =  -5.33713050234380E+01  2.06197234314644E+00
(PID.TID 0000.0001)  ploadbar=  1.01022319737040E+05
 cg2d: Sum(rhs),rhsMax =  -5.31142568768748E+01  2.07190732644105E+00
(PID.TID 0000.0001)  ploadbar=  1.01023203981140E+05
 cg2d: Sum(rhs),rhsMax =  -5.28966900670791E+01  2.08039216364370E+00
(PID.TID 0000.0001)  ploadbar=  1.01024088225240E+05
 cg2d: Sum(rhs),rhsMax =  -5.27206980918895E+01  2.08730229035007E+00
(PID.TID 0000.0001)  ploadbar=  1.01024972469341E+05
 cg2d: Sum(rhs),rhsMax =  -5.25804044305515E+01  2.09283235596146E+00
(PID.TID 0000.0001)  ploadbar=  1.01025856713441E+05
 cg2d: Sum(rhs),rhsMax =  -5.24735262337876E+01  2.09704761063628E+00
(PID.TID 0000.0001)  ploadbar=  1.01026740957541E+05
 cg2d: Sum(rhs),rhsMax =  -5.24048173793193E+01  2.09975589848603E+00
(PID.TID 0000.0001)  ploadbar=  1.01028171995960E+05
 cg2d: Sum(rhs),rhsMax =  -5.23598577506487E+01  2.10151849999093E+00
(PID.TID 0000.0001)  ploadbar=  1.01029603034379E+05
 cg2d: Sum(rhs),rhsMax =  -5.23271322219248E+01  2.10278974308388E+00
(PID.TID 0000.0001)  ploadbar=  1.01031034072798E+05
 cg2d: Sum(rhs),rhsMax =  -5.23049306390471E+01  2.10362745696183E+00
(PID.TID 0000.0001)  ploadbar=  1.01032465111217E+05
 cg2d: Sum(rhs),rhsMax =  -5.22965474107078E+01  2.10389041332854E+00
(PID.TID 0000.0001)  ploadbar=  1.01033896149636E+05
 cg2d: Sum(rhs),rhsMax =  -5.23055214561708E+01  2.10342949761958E+00
(PID.TID 0000.0001)  ploadbar=  1.01035327188055E+05
 cg2d: Sum(rhs),rhsMax =  -5.23434645881555E+01  2.10181622363299E+00
(PID.TID 0000.0001)  ploadbar=  1.01036201908655E+05
 cg2d: Sum(rhs),rhsMax =  -5.24082549864906E+01  2.09913702083897E+00
(PID.TID 0000.0001)  ploadbar=  1.01037076629255E+05
 cg2d: Sum(rhs),rhsMax =  -5.24905988717191E+01  2.09576484871399E+00
(PID.TID 0000.0001)  ploadbar=  1.01037951349855E+05
 cg2d: Sum(rhs),rhsMax =  -5.25857664367023E+01  2.09188629846462E+00
(PID.TID 0000.0001)  ploadbar=  1.01038826070455E+05
 cg2d: Sum(rhs),rhsMax =  -5.26896454653972E+01  2.08767063323824E+00
(PID.TID 0000.0001)  ploadbar=  1.01039700791055E+05
 cg2d: Sum(rhs),rhsMax =  -5.28012222450224E+01  2.08315391573486E+00
(PID.TID 0000.0001)  ploadbar=  1.01040575511655E+05
 cg2d: Sum(rhs),rhsMax =  -5.29093060527934E+01  2.07882216283879E+00
(PID.TID 0000.0001)  ploadbar=  1.01041320139312E+05
 cg2d: Sum(rhs),rhsMax =  -5.30326837272794E+01  2.07393132302934E+00
(PID.TID 0000.0001)  ploadbar=  1.01042064766970E+05
 cg2d: Sum(rhs),rhsMax =  -5.31723879109562E+01  2.06844380724141E+00
(PID.TID 0000.0001)  ploadbar=  1.01042809394628E+05
 cg2d: Sum(rhs),rhsMax =  -5.33274533450236E+01  2.06240803746226E+00
(PID.TID 0000.0001)  ploadbar=  1.01043554022286E+05
 cg2d: Sum(rhs),rhsMax =  -5.34965719116691E+01  2.05588104880101E+00
(PID.TID 0000.0001)  ploadbar=  1.01044298649944E+05
 cg2d: Sum(rhs),rhsMax =  -5.36832900216864E+01  2.04873531892034E+00
(PID.TID 0000.0001)  ploadbar=  1.01045043277601E+05
 cg2d: Sum(rhs),rhsMax =  -5.38732646400555E+01  2.04154577294899E+00
(PID.TID 0000.0001)  ploadbar=  1.01045631316328E+05
 cg2d: Sum(rhs),rhsMax =  -5.40782498233002E+01  2.03386978410933E+00
(PID.TID 0000.0001)  ploadbar=  1.01046219355054E+05
 cg2d: Sum(rhs),rhsMax =  -5.42930806118771E+01  2.02590796045699E+00
(PID.TID 0000.0001)  ploadbar=  1.01046807393781E+05
 cg2d: Sum(rhs),rhsMax =  -5.45157649267916E+01  2.01773777041865E+00
(PID.TID 0000.0001)  ploadbar=  1.01047395432507E+05
 cg2d: Sum(rhs),rhsMax =  -5.47453399310872E+01  2.00939647271349E+00
(PID.TID 0000.0001)  ploadbar=  1.01047983471233E+05
 cg2d: Sum(rhs),rhsMax =  -5.49807630553224E+01  2.00092553656686E+00
(PID.TID 0000.0001)  ploadbar=  1.01048571509960E+05
 cg2d: Sum(rhs),rhsMax =  -5.52088953050096E+01  1.99278397071735E+00
(PID.TID 0000.0001)  ploadbar=  1.01049954984982E+05
 cg2d: Sum(rhs),rhsMax =  -5.54418508370219E+01  1.98452289930659E+00
(PID.TID 0000.0001)  ploadbar=  1.01051338460005E+05
 cg2d: Sum(rhs),rhsMax =  -5.56761766745030E+01  1.97626261962547E+00
(PID.TID 0000.0001)  ploadbar=  1.01052721935027E+05
 cg2d: Sum(rhs),rhsMax =  -5.59089298466068E+01  1.96810251130298E+00
(PID.TID 0000.0001)  ploadbar=  1.01054105410050E+05
 cg2d: Sum(rhs),rhsMax =  -5.61376744958999E+01  1.96012207687872E+00
(PID.TID 0000.0001)  ploadbar=  1.01055488885072E+05
 cg2d: Sum(rhs),rhsMax =  -5.63595599254486E+01  1.95241524317870E+00
(PID.TID 0000.0001)  ploadbar=  1.01056872360094E+05
 cg2d: Sum(rhs),rhsMax =  -5.65842966072417E+01  1.94468474187102E+00
(PID.TID 0000.0001)  ploadbar=  1.01056330413372E+05
 cg2d: Sum(rhs),rhsMax =  -5.67956591283936E+01  1.93748129884343E+00
(PID.TID 0000.0001)  ploadbar=  1.01055788466649E+05
 cg2d: Sum(rhs),rhsMax =  -5.69932449809910E+01  1.93080449758788E+00
(PID.TID 0000.0001)  ploadbar=  1.01055246519926E+05
 cg2d: Sum(rhs),rhsMax =  -5.71780302840197E+01  1.92460784593763E+00
(PID.TID 0000.0001)  ploadbar=  1.01054704573203E+05
 cg2d: Sum(rhs),rhsMax =  -5.73473183997370E+01  1.91896650527792E+00
(PID.TID 0000.0001)  ploadbar=  1.01054162626481E+05
 cg2d: Sum(rhs),rhsMax =  -5.75002973207302E+01  1.91389174352502E+00
(PID.TID 0000.0001)  ploadbar=  1.01053620679758E+05
 cg2d: Sum(rhs),rhsMax =  -5.76380913896069E+01  1.90937361550087E+00
(PID.TID 0000.0001)  ploadbar=  1.01052442602887E+05
 cg2d: Sum(rhs),rhsMax =  -5.77643990093721E+01  1.90527866046772E+00
(PID.TID 0000.0001)  ploadbar=  1.01051264526016E+05
 cg2d: Sum(rhs),rhsMax =  -5.78892938422291E+01  1.90126967548127E+00
(PID.TID 0000.0001)  ploadbar=  1.01050086449145E+05
 cg2d: Sum(rhs),rhsMax =  -5.80122710267321E+01  1.89735916157303E+00
(PID.TID 0000.0001)  ploadbar=  1.01048908372274E+05
 cg2d: Sum(rhs),rhsMax =  -5.81348130618224E+01  1.89349094975599E+00
(PID.TID 0000.0001)  ploadbar=  1.01047730295403E+05
 cg2d: Sum(rhs),rhsMax =  -5.82573957749164E+01  1.88964841849551E+00
(PID.TID 0000.0001)  ploadbar=  1.01046552218532E+05
 cg2d: Sum(rhs),rhsMax =  -5.83595178354168E+01  1.88646516670584E+00
(PID.TID 0000.0001)  ploadbar=  1.01045263603393E+05
 cg2d: Sum(rhs),rhsMax =  -5.84552380906597E+01  1.88347762336856E+00
(PID.TID 0000.0001)  ploadbar=  1.01043974988254E+05
 cg2d: Sum(rhs),rhsMax =  -5.85492013073640E+01  1.88053081086496E+00
(PID.TID 0000.0001)  ploadbar=  1.01042686373115E+05
 cg2d: Sum(rhs),rhsMax =  -5.86418195683161E+01  1.87760362391676E+00
(PID.TID 0000.0001)  ploadbar=  1.01041397757977E+05
 cg2d: Sum(rhs),rhsMax =  -5.87341240636573E+01  1.87465856599958E+00
(PID.TID 0000.0001)  ploadbar=  1.01040109142838E+05
 cg2d: Sum(rhs),rhsMax =  -5.88265568211696E+01  1.87167764123722E+00
(PID.TID 0000.0001)  ploadbar=  1.01038820527699E+05
 cg2d: Sum(rhs),rhsMax =  -5.89242798921998E+01  1.86853871116251E+00
(PID.TID 0000.0001)  ploadbar=  1.01038816408192E+05
 cg2d: Sum(rhs),rhsMax =  -5.90301333820924E+01  1.86515067618834E+00
(PID.TID 0000.0001)  ploadbar=  1.01038812288685E+05
 cg2d: Sum(rhs),rhsMax =  -5.91358817531558E+01  1.86177087786107E+00
(PID.TID 0000.0001)  ploadbar=  1.01038808169178E+05
 cg2d: Sum(rhs),rhsMax =  -5.92450744887220E+01  1.85828566642287E+00
(PID.TID 0000.0001)  ploadbar=  1.01038804049671E+05
 cg2d: Sum(rhs),rhsMax =  -5.93605460412689E+01  1.85460614298835E+00
(PID.TID 0000.0001)  ploadbar=  1.01038799930164E+05
 cg2d: Sum(rhs),rhsMax =  -5.94863088893984E+01  1.85060506741896E+00
(PID.TID 0000.0001)  ploadbar=  1.01038795810657E+05
 cg2d: Sum(rhs),rhsMax =  -5.96094807433096E+01  1.84667545026044E+00
(PID.TID 0000.0001)  ploadbar=  1.01038351506348E+05
 cg2d: Sum(rhs),rhsMax =  -5.97397919173703E+01  1.84251447939085E+00
(PID.TID 0000.0001)  ploadbar=  1.01037907202038E+05
 cg2d: Sum(rhs),rhsMax =  -5.98955855806393E+01  1.83755929380744E+00
(PID.TID 0000.0001)  ploadbar=  1.01037462897729E+05
 cg2d: Sum(rhs),rhsMax =  -6.00881573993135E+01  1.83147141525439E+00
(PID.TID 0000.0001)  ploadbar=  1.01037018593419E+05
 cg2d: Sum(rhs),rhsMax =  -6.03275424838194E+01  1.82396680469100E+00
(PID.TID 0000.0001)  ploadbar=  1.01036574289110E+05
 cg2d: Sum(rhs),rhsMax =  -6.06118465711214E+01  1.81513389136161E+00
(PID.TID 0000.0001)  ploadbar=  1.01036129984801E+05
 cg2d: Sum(rhs),rhsMax =  -6.09327486658940E+01  1.80533702589829E+00
(PID.TID 0000.0001)  ploadbar=  1.01035254698044E+05
 cg2d: Sum(rhs),rhsMax =  -6.12338247084379E+01  1.79626455101160E+00
(PID.TID 0000.0001)  ploadbar=  1.01034379411288E+05
 cg2d: Sum(rhs),rhsMax =  -6.15441036435636E+01  1.78705080475495E+00
(PID.TID 0000.0001)  ploadbar=  1.01033504124531E+05
 cg2d: Sum(rhs),rhsMax =  -6.17761504982401E+01  1.78021952125427E+00
(PID.TID 0000.0001)  ploadbar=  1.01032628837775E+05
 cg2d: Sum(rhs),rhsMax =  -6.19016056930034E+01  1.77653415631260E+00
(PID.TID 0000.0001)  ploadbar=  1.01031753551018E+05
 cg2d: Sum(rhs),rhsMax =  -6.19721123783643E+01  1.77447871099576E+00
(PID.TID 0000.0001)  ploadbar=  1.01030878264262E+05
 cg2d: Sum(rhs),rhsMax =  -6.19821418646579E+01  1.77415967242941E+00
(PID.TID 0000.0001)  ploadbar=  1.01029722958956E+05
 cg2d: Sum(rhs),rhsMax =  -6.18638655284727E+01  1.77752033744458E+00
(PID.TID 0000.0001)  ploadbar=  1.01028567653649E+05
 cg2d: Sum(rhs),rhsMax =  -6.15566534993258E+01  1.78635827004121E+00
(PID.TID 0000.0001)  ploadbar=  1.01027412348343E+05
 cg2d: Sum(rhs),rhsMax =  -6.11882839628341E+01  1.79707320111993E+00
(PID.TID 0000.0001)  ploadbar=  1.01026257043037E+05
 cg2d: Sum(rhs),rhsMax =  -6.09431032101826E+01  1.80425296970284E+00
(PID.TID 0000.0001)  ploadbar=  1.01025101737730E+05
 cg2d: Sum(rhs),rhsMax =  -6.07374790264659E+01  1.81029741519543E+00
(PID.TID 0000.0001)  ploadbar=  1.01023946432424E+05
 cg2d: Sum(rhs),rhsMax =  -6.05439811470276E+01  1.81600970405413E+00
(PID.TID 0000.0001)  ploadbar=  1.01024357943090E+05
 cg2d: Sum(rhs),rhsMax =  -6.03667874300656E+01  1.82125456625395E+00
(PID.TID 0000.0001)  ploadbar=  1.01024769453755E+05
 cg2d: Sum(rhs),rhsMax =  -6.01951727516306E+01  1.82634791140071E+00
(PID.TID 0000.0001)  ploadbar=  1.01025180964421E+05
 cg2d: Sum(rhs),rhsMax =  -6.00212365743698E+01  1.83152193912347E+00
(PID.TID 0000.0001)  ploadbar=  1.01025592475086E+05
 cg2d: Sum(rhs),rhsMax =  -5.98409794749250E+01  1.83689674845107E+00
(PID.TID 0000.0001)  ploadbar=  1.01026003985752E+05
 cg2d: Sum(rhs),rhsMax =  -5.96523398057559E+01  1.84253755035859E+00
(PID.TID 0000.0001)  ploadbar=  1.01026415496417E+05
 cg2d: Sum(rhs),rhsMax =  -5.94433428195641E+01  1.84882795488901E+00
(PID.TID 0000.0001)  ploadbar=  1.01027313136430E+05
 cg2d: Sum(rhs),rhsMax =  -5.92354956172971E+01  1.85510304900606E+00
(PID.TID 0000.0001)  ploadbar=  1.01028210776443E+05
 cg2d: Sum(rhs),rhsMax =  -5.90368805773494E+01  1.86110189929783E+00
(PID.TID 0000.0001)  ploadbar=  1.01029108416456E+05
 cg2d: Sum(rhs),rhsMax =  -5.88539959793960E+01  1.86661181589650E+00
(PID.TID 0000.0001)  ploadbar=  1.01030006056469E+05
 cg2d: Sum(rhs),rhsMax =  -5.86899039593552E+01  1.87151642177109E+00
(PID.TID 0000.0001)  ploadbar=  1.01030903696482E+05
 cg2d: Sum(rhs),rhsMax =  -5.85450360856501E+01  1.87578616180253E+00
(PID.TID 0000.0001)  ploadbar=  1.01031801336495E+05
 cg2d: Sum(rhs),rhsMax =  -5.84223128397321E+01  1.87938523314564E+00
(PID.TID 0000.0001)  ploadbar=  1.01033433228360E+05
 cg2d: Sum(rhs),rhsMax =  -5.83200330328137E+01  1.88235682534614E+00
(PID.TID 0000.0001)  ploadbar=  1.01035065120224E+05
 cg2d: Sum(rhs),rhsMax =  -5.82317246521665E+01  1.88490244614429E+00
(PID.TID 0000.0001)  ploadbar=  1.01036697012089E+05
 cg2d: Sum(rhs),rhsMax =  -5.81551570607556E+01  1.88708993288122E+00
(PID.TID 0000.0001)  ploadbar=  1.01038328903954E+05
 cg2d: Sum(rhs),rhsMax =  -5.80902073299666E+01  1.88891458167196E+00
(PID.TID 0000.0001)  ploadbar=  1.01039960795819E+05
 cg2d: Sum(rhs),rhsMax =  -5.80355593007368E+01  1.89041296501163E+00
(PID.TID 0000.0001)  ploadbar=  1.01041592687684E+05
 cg2d: Sum(rhs),rhsMax =  -5.79972767334915E+01  1.89138538053323E+00
(PID.TID 0000.0001)  ploadbar=  1.01042804702434E+05
 cg2d: Sum(rhs),rhsMax =  -5.79676070897777E+01  1.89207974174970E+00
(PID.TID 0000.0001)  ploadbar=  1.01044016717184E+05
 cg2d: Sum(rhs),rhsMax =  -5.79462284260462E+01  1.89250323409950E+00
(PID.TID 0000.0001)  ploadbar=  1.01045228731935E+05
 cg2d: Sum(rhs),rhsMax =  -5.79324261561086E+01  1.89267315480861E+00
(PID.TID 0000.0001)  ploadbar=  1.01046440746685E+05
 cg2d: Sum(rhs),rhsMax =  -5.79247762072341E+01  1.89262981069252E+00
(PID.TID 0000.0001)  ploadbar=  1.01047652761435E+05
 cg2d: Sum(rhs),rhsMax =  -5.79226605986324E+01  1.89238928437968E+00
(PID.TID 0000.0001)  ploadbar=  1.01048864776185E+05
 cg2d: Sum(rhs),rhsMax =  -5.79311894465335E+01  1.89183085585244E+00
(PID.TID 0000.0001)  ploadbar=  1.01050299676914E+05
 cg2d: Sum(rhs),rhsMax =  -5.79442305696490E+01  1.89114838703818E+00
(PID.TID 0000.0001)  ploadbar=  1.01051734577643E+05
 cg2d: Sum(rhs),rhsMax =  -5.79596090669312E+01  1.89041196935742E+00
(PID.TID 0000.0001)  ploadbar=  1.01053169478371E+05
 cg2d: Sum(rhs),rhsMax =  -5.79789654744909E+01  1.88956343177912E+00
(PID.TID 0000.0001)  ploadbar=  1.01054604379100E+05
 cg2d: Sum(rhs),rhsMax =  -5.80023308272342E+01  1.88859485022103E+00
(PID.TID 0000.0001)  ploadbar=  1.01056039279828E+05
 cg2d: Sum(rhs),rhsMax =  -5.80301308418009E+01  1.88748723604281E+00
(PID.TID 0000.0001)  ploadbar=  1.01057474180557E+05
 cg2d: Sum(rhs),rhsMax =  -5.80528723126643E+01  1.88653500826899E+00
(PID.TID 0000.0001)  ploadbar=  1.01058147640260E+05
 cg2d: Sum(rhs),rhsMax =  -5.80748419129663E+01  1.88559366306334E+00
(PID.TID 0000.0001)  ploadbar=  1.01058821099964E+05
 cg2d: Sum(rhs),rhsMax =  -5.80962092891735E+01  1.88465199438404E+00
(PID.TID 0000.0001)  ploadbar=  1.01059494559668E+05
 cg2d: Sum(rhs),rhsMax =  -5.81179197832067E+01  1.88367260861911E+00
(PID.TID 0000.0001)  ploadbar=  1.01060168019371E+05
 cg2d: Sum(rhs),rhsMax =  -5.81388445069809E+01  1.88268416211368E+00
(PID.TID 0000.0001)  ploadbar=  1.01060841479075E+05
 cg2d: Sum(rhs),rhsMax =  -5.81583127863109E+01  1.88170370961533E+00
(PID.TID 0000.0001)  ploadbar=  1.01061514938778E+05
 cg2d: Sum(rhs),rhsMax =  -5.81801339813735E+01  1.88067076720708E+00
(PID.TID 0000.0001)  ploadbar=  1.01062298042271E+05
 cg2d: Sum(rhs),rhsMax =  -5.81999545056460E+01  1.87972157761346E+00
(PID.TID 0000.0001)  ploadbar=  1.01063081145763E+05
 cg2d: Sum(rhs),rhsMax =  -5.82145440147166E+01  1.87895520805459E+00
(PID.TID 0000.0001)  ploadbar=  1.01063864249255E+05
 cg2d: Sum(rhs),rhsMax =  -5.82256129152194E+01  1.87830868246677E+00
(PID.TID 0000.0001)  ploadbar=  1.01064647352748E+05
 cg2d: Sum(rhs),rhsMax =  -5.82332890128701E+01  1.87777119633076E+00
(PID.TID 0000.0001)  ploadbar=  1.01065430456240E+05
 cg2d: Sum(rhs),rhsMax =  -5.82367965028308E+01  1.87736308057545E+00
(PID.TID 0000.0001)  ploadbar=  1.01066213559732E+05
 cg2d: Sum(rhs),rhsMax =  -5.82432336722948E+01  1.87685622248836E+00
(PID.TID 0000.0001)  ploadbar=  1.01067074828687E+05
 cg2d: Sum(rhs),rhsMax =  -5.82459477375166E+01  1.87646194167409E+00
(PID.TID 0000.0001)  ploadbar=  1.01067936097642E+05
 cg2d: Sum(rhs),rhsMax =  -5.82514833725223E+01  1.87596466323147E+00
(PID.TID 0000.0001)  ploadbar=  1.01068797366597E+05
 cg2d: Sum(rhs),rhsMax =  -5.82609563273800E+01  1.87532287036458E+00
(PID.TID 0000.0001)  ploadbar=  1.01069658635551E+05
 cg2d: Sum(rhs),rhsMax =  -5.82739848589647E+01  1.87454185032351E+00
(PID.TID 0000.0001)  ploadbar=  1.01070519904506E+05
 cg2d: Sum(rhs),rhsMax =  -5.82913859325229E+01  1.87359256482852E+00
(PID.TID 0000.0001)  ploadbar=  1.01071381173461E+05
 cg2d: Sum(rhs),rhsMax =  -5.83038328678910E+01  1.87280866853256E+00
(PID.TID 0000.0001)  ploadbar=  1.01071611254124E+05
 cg2d: Sum(rhs),rhsMax =  -5.83239011444390E+01  1.87178228023906E+00
(PID.TID 0000.0001)  ploadbar=  1.01071841334787E+05
 cg2d: Sum(rhs),rhsMax =  -5.83551128224413E+01  1.87039809910972E+00
(PID.TID 0000.0001)  ploadbar=  1.01072071415450E+05
 cg2d: Sum(rhs),rhsMax =  -5.83963651384326E+01  1.86868637249144E+00
(PID.TID 0000.0001)  ploadbar=  1.01072301496113E+05
 cg2d: Sum(rhs),rhsMax =  -5.84501467608206E+01  1.86656218429827E+00
(PID.TID 0000.0001)  ploadbar=  1.01072531576776E+05
 cg2d: Sum(rhs),rhsMax =  -5.85170768973054E+01  1.86400055783276E+00
(PID.TID 0000.0001)  ploadbar=  1.01072761657439E+05
 cg2d: Sum(rhs),rhsMax =  -5.85944229660782E+01  1.86112996798920E+00
(PID.TID 0000.0001)  ploadbar=  1.01074111242271E+05
 cg2d: Sum(rhs),rhsMax =  -5.86858881691202E+01  1.85783169194485E+00
(PID.TID 0000.0001)  ploadbar=  1.01075460827104E+05
 cg2d: Sum(rhs),rhsMax =  -5.87954479350672E+01  1.85397895779329E+00
(PID.TID 0000.0001)  ploadbar=  1.01076810411936E+05
 cg2d: Sum(rhs),rhsMax =  -5.89193894605247E+01  1.84968750520569E+00
(PID.TID 0000.0001)  ploadbar=  1.01078159996768E+05
 cg2d: Sum(rhs),rhsMax =  -5.90575192061168E+01  1.84496573387097E+00
(PID.TID 0000.0001)  ploadbar=  1.01079509581600E+05
 cg2d: Sum(rhs),rhsMax =  -5.92096044174950E+01  1.83982418937876E+00
(PID.TID 0000.0001)  ploadbar=  1.01080859166432E+05
 cg2d: Sum(rhs),rhsMax =  -5.93768019001857E+01  1.83425879495793E+00
(PID.TID 0000.0001)  ploadbar=  1.01082920753139E+05
 cg2d: Sum(rhs),rhsMax =  -5.95620245341527E+01  1.82818694700873E+00
(PID.TID 0000.0001)  ploadbar=  1.01084982339845E+05
 cg2d: Sum(rhs),rhsMax =  -5.97690974970560E+01  1.82149988890016E+00
(PID.TID 0000.0001)  ploadbar=  1.01087043926552E+05
 cg2d: Sum(rhs),rhsMax =  -6.00044008323469E+01  1.81401428520923E+00
(PID.TID 0000.0001)  ploadbar=  1.01089105513259E+05
 cg2d: Sum(rhs),rhsMax =  -6.02740723552589E+01  1.80556324460407E+00
(PID.TID 0000.0001)  ploadbar=  1.01091167099965E+05
 cg2d: Sum(rhs),rhsMax =  -6.05747024268901E+01  1.79627337804132E+00
(PID.TID 0000.0001)  ploadbar=  1.01093228686672E+05
 cg2d: Sum(rhs),rhsMax =  -6.09016639759246E+01  1.78631056342446E+00
(PID.TID 0000.0001)  ploadbar=  1.01094313657841E+05
 cg2d: Sum(rhs),rhsMax =  -6.12498307566792E+01  1.77584501591966E+00
(PID.TID 0000.0001)  ploadbar=  1.01095398629011E+05
 cg2d: Sum(rhs),rhsMax =  -6.16088912029991E+01  1.76518687003897E+00
(PID.TID 0000.0001)  ploadbar=  1.01096483600180E+05
 cg2d: Sum(rhs),rhsMax =  -6.19709023103246E+01  1.75456173115883E+00
(PID.TID 0000.0001)  ploadbar=  1.01097568571349E+05
 cg2d: Sum(rhs),rhsMax =  -6.23290492773756E+01  1.74415632444965E+00
(PID.TID 0000.0001)  ploadbar=  1.01098653542519E+05
 cg2d: Sum(rhs),rhsMax =  -6.26041764876264E+01  1.73615585093686E+00
(PID.TID 0000.0001)  ploadbar=  1.01099738513688E+05
 cg2d: Sum(rhs),rhsMax =  -6.28732328938890E+01  1.72838314652832E+00
(PID.TID 0000.0001)  ploadbar=  1.01099399417284E+05
 cg2d: Sum(rhs),rhsMax =  -6.31368843862825E+01  1.72081419331589E+00
(PID.TID 0000.0001)  ploadbar=  1.01099060320881E+05
 cg2d: Sum(rhs),rhsMax =  -6.33882622822801E+01  1.71362594738881E+00
(PID.TID 0000.0001)  ploadbar=  1.01098721224477E+05
 cg2d: Sum(rhs),rhsMax =  -6.36308697739233E+01  1.70670987229872E+00
(PID.TID 0000.0001)  ploadbar=  1.01098382128073E+05
 cg2d: Sum(rhs),rhsMax =  -6.38668011105281E+01  1.69999654830662E+00
(PID.TID 0000.0001)  ploadbar=  1.01098043031670E+05
 cg2d: Sum(rhs),rhsMax =  -6.40968162457971E+01  1.69345791552026E+00
(PID.TID 0000.0001)  ploadbar=  1.01097703935266E+05
 cg2d: Sum(rhs),rhsMax =  -6.43211317250994E+01  1.68713812723637E+00
(PID.TID 0000.0001)  ploadbar=  1.01097084696041E+05
 cg2d: Sum(rhs),rhsMax =  -6.45446660799313E+01  1.68090198779636E+00
(PID.TID 0000.0001)  ploadbar=  1.01096465456815E+05
 cg2d: Sum(rhs),rhsMax =  -6.36955402907482E+01  1.70292865794072E+00
(PID.TID 0000.0001)  ploadbar=  1.01095846217589E+05
 cg2d: Sum(rhs),rhsMax =  -6.24007633705358E+01  1.73788784829636E+00
(PID.TID 0000.0001)  ploadbar=  1.01095226978363E+05
 cg2d: Sum(rhs),rhsMax =  -6.11986334882743E+01  1.77165451301743E+00
(PID.TID 0000.0001)  ploadbar=  1.01094607739137E+05
 cg2d: Sum(rhs),rhsMax =  -6.00814130936058E+01  1.80423209553937E+00
(PID.TID 0000.0001)  ploadbar=  1.01093988499912E+05
 cg2d: Sum(rhs),rhsMax =  -5.90338073631514E+01  1.83590819911513E+00
(PID.TID 0000.0001)  ploadbar=  1.01092887726821E+05
 cg2d: Sum(rhs),rhsMax =  -5.80550124166651E+01  1.86654655672617E+00
(PID.TID 0000.0001)  ploadbar=  1.01091786953730E+05
 cg2d: Sum(rhs),rhsMax =  -5.71318760444038E+01  1.89641512883391E+00
(PID.TID 0000.0001)  ploadbar=  1.01090686180639E+05
 cg2d: Sum(rhs),rhsMax =  -5.62621629281932E+01  1.92545927882677E+00
(PID.TID 0000.0001)  ploadbar=  1.01089585407548E+05
 cg2d: Sum(rhs),rhsMax =  -5.54421860701241E+01  1.95368093882088E+00
(PID.TID 0000.0001)  ploadbar=  1.01088484634457E+05
 cg2d: Sum(rhs),rhsMax =  -5.46718685356969E+01  1.98096347225939E+00
(PID.TID 0000.0001)  ploadbar=  1.01087383861366E+05
 cg2d: Sum(rhs),rhsMax =  -5.39576000145325E+01  2.00693928465968E+00
(PID.TID 0000.0001)  ploadbar=  1.01085991733769E+05
 cg2d: Sum(rhs),rhsMax =  -5.33324582986960E+01  2.03021002623436E+00
(PID.TID 0000.0001)  ploadbar=  1.01084599606173E+05
 cg2d: Sum(rhs),rhsMax =  -5.28218456668796E+01  2.04957122424872E+00
(PID.TID 0000.0001)  ploadbar=  1.01083207478576E+05
 cg2d: Sum(rhs),rhsMax =  -5.24439096386041E+01  2.06406491678344E+00
(PID.TID 0000.0001)  ploadbar=  1.01081815350980E+05
 cg2d: Sum(rhs),rhsMax =  -5.21921246775014E+01  2.07372927226213E+00
(PID.TID 0000.0001)  ploadbar=  1.01080423223384E+05
 cg2d: Sum(rhs),rhsMax =  -5.20594047045785E+01  2.07870317410178E+00
(PID.TID 0000.0001)  ploadbar=  1.01079031095787E+05
 cg2d: Sum(rhs),rhsMax =  -5.20329016136879E+01  2.07950152839560E+00
(PID.TID 0000.0001)  ploadbar=  1.01078273852598E+05
 cg2d: Sum(rhs),rhsMax =  -5.20638309345755E+01  2.07805369895418E+00
(PID.TID 0000.0001)  ploadbar=  1.01077516609409E+05
 cg2d: Sum(rhs),rhsMax =  -5.21250323686233E+01  2.07544098493414E+00
(PID.TID 0000.0001)  ploadbar=  1.01076759366220E+05
 cg2d: Sum(rhs),rhsMax =  -5.22193493164723E+01  2.07155130875916E+00
(PID.TID 0000.0001)  ploadbar=  1.01076002123031E+05
 cg2d: Sum(rhs),rhsMax =  -5.23435727195693E+01  2.06652055139318E+00
(PID.TID 0000.0001)  ploadbar=  1.01075244879842E+05
 cg2d: Sum(rhs),rhsMax =  -5.24990133665908E+01  2.06030829835307E+00
(PID.TID 0000.0001)  ploadbar=  1.01074487636653E+05
 cg2d: Sum(rhs),rhsMax =  -5.26860559729441E+01  2.05290021293723E+00
(PID.TID 0000.0001)  ploadbar=  1.01075159813561E+05
 cg2d: Sum(rhs),rhsMax =  -5.28876273872451E+01  2.04498045221032E+00
(PID.TID 0000.0001)  ploadbar=  1.01075831990469E+05
 cg2d: Sum(rhs),rhsMax =  -5.30891915673120E+01  2.03711476040209E+00
(PID.TID 0000.0001)  ploadbar=  1.01076504167376E+05
 cg2d: Sum(rhs),rhsMax =  -5.32790273584103E+01  2.02974512484756E+00
(PID.TID 0000.0001)  ploadbar=  1.01077176344284E+05
 cg2d: Sum(rhs),rhsMax =  -5.34517609972248E+01  2.02305855079523E+00
(PID.TID 0000.0001)  ploadbar=  1.01077848521192E+05
 cg2d: Sum(rhs),rhsMax =  -5.36040543349673E+01  2.01716119621354E+00
(PID.TID 0000.0001)  ploadbar=  1.01078520698099E+05
 cg2d: Sum(rhs),rhsMax =  -5.37520735772465E+01  2.01146864426369E+00
(PID.TID 0000.0001)  ploadbar=  1.01079360005564E+05
 cg2d: Sum(rhs),rhsMax =  -5.38855422398259E+01  2.00635692186350E+00
(PID.TID 0000.0001)  ploadbar=  1.01080199313028E+05
 cg2d: Sum(rhs),rhsMax =  -5.40015839791148E+01  2.00191832000040E+00
(PID.TID 0000.0001)  ploadbar=  1.01081038620492E+05
 cg2d: Sum(rhs),rhsMax =  -5.41054504075186E+01  1.99794406956346E+00
(PID.TID 0000.0001)  ploadbar=  1.01081877927956E+05
 cg2d: Sum(rhs),rhsMax =  -5.41973632095683E+01  1.99441427670823E+00
(PID.TID 0000.0001)  ploadbar=  1.01082717235421E+05
 cg2d: Sum(rhs),rhsMax =  -5.42850552279013E+01  1.99103619560869E+00
(PID.TID 0000.0001)  ploadbar=  1.01083556542885E+05
 cg2d: Sum(rhs),rhsMax =  -5.43837826262483E+01  1.98724460956283E+00
(PID.TID 0000.0001)  ploadbar=  1.01084300986885E+05
 cg2d: Sum(rhs),rhsMax =  -5.45134473363400E+01  1.98231736358816E+00
(PID.TID 0000.0001)  ploadbar=  1.01085045430886E+05
 cg2d: Sum(rhs),rhsMax =  -5.46887314210836E+01  1.97573467529870E+00
(PID.TID 0000.0001)  ploadbar=  1.01085789874886E+05
 cg2d: Sum(rhs),rhsMax =  -5.49134932442276E+01  1.96738705247890E+00
(PID.TID 0000.0001)  ploadbar=  1.01086534318887E+05
 cg2d: Sum(rhs),rhsMax =  -5.51857128015918E+01  1.95738555119624E+00
(PID.TID 0000.0001)  ploadbar=  1.01087278762887E+05
 cg2d: Sum(rhs),rhsMax =  -5.55083909485944E+01  1.94567136246882E+00
(PID.TID 0000.0001)  ploadbar=  1.01088023206888E+05
 cg2d: Sum(rhs),rhsMax =  -5.58801530077971E+01  1.93238373396823E+00
(PID.TID 0000.0001)  ploadbar=  1.01087853708233E+05
 cg2d: Sum(rhs),rhsMax =  -5.62842478453175E+01  1.91815406234433E+00
(PID.TID 0000.0001)  ploadbar=  1.01087684209579E+05
 cg2d: Sum(rhs),rhsMax =  -5.67204567023339E+01  1.90302909004730E+00
(PID.TID 0000.0001)  ploadbar=  1.01087514710925E+05
 cg2d: Sum(rhs),rhsMax =  -5.71915798554701E+01  1.88695528318492E+00
(PID.TID 0000.0001)  ploadbar=  1.01087345212271E+05
 cg2d: Sum(rhs),rhsMax =  -5.77057599908726E+01  1.86971697502963E+00
(PID.TID 0000.0001)  ploadbar=  1.01087175713616E+05
 cg2d: Sum(rhs),rhsMax =  -5.82740399279549E+01  1.85102894589296E+00
(PID.TID 0000.0001)  ploadbar=  1.01087006214962E+05
 cg2d: Sum(rhs),rhsMax =  -5.88963849349712E+01  1.83099013063851E+00
(PID.TID 0000.0001)  ploadbar=  1.01086807730523E+05
 cg2d: Sum(rhs),rhsMax =  -5.95945302857338E+01  1.80903555596597E+00
(PID.TID 0000.0001)  ploadbar=  1.01086609246083E+05
 cg2d: Sum(rhs),rhsMax =  -6.03879128295450E+01  1.78473619413037E+00
(PID.TID 0000.0001)  ploadbar=  1.01086410761644E+05
 cg2d: Sum(rhs),rhsMax =  -6.12644356409255E+01  1.75863836766220E+00
(PID.TID 0000.0001)  ploadbar=  1.01086212277205E+05
 cg2d: Sum(rhs),rhsMax =  -6.22032468485622E+01  1.73149626030406E+00
(PID.TID 0000.0001)  ploadbar=  1.01086013792765E+05
 cg2d: Sum(rhs),rhsMax =  -6.31698930093329E+01  1.70436010079370E+00
(PID.TID 0000.0001)  ploadbar=  1.01085815308326E+05
 cg2d: Sum(rhs),rhsMax =  -6.40926177037222E+01  1.67922752241553E+00
(PID.TID 0000.0001)  ploadbar=  1.01085495996548E+05
 cg2d: Sum(rhs),rhsMax =  -6.49750831880928E+01  1.65586252756219E+00
(PID.TID 0000.0001)  ploadbar=  1.01085176684769E+05
 cg2d: Sum(rhs),rhsMax =  -6.58161955049262E+01  1.63417570017481E+00
(PID.TID 0000.0001)  ploadbar=  1.01084857372990E+05
 cg2d: Sum(rhs),rhsMax =  -6.66288830785250E+01  1.61374432433088E+00
(PID.TID 0000.0001)  ploadbar=  1.01084538061212E+05
 cg2d: Sum(rhs),rhsMax =  -6.74062093733098E+01  1.59465634418848E+00
(PID.TID 0000.0001)  ploadbar=  1.01084218749433E+05
 cg2d: Sum(rhs),rhsMax =  -6.74518218817257E+01  1.59310911061110E+00
(PID.TID 0000.0001)  ploadbar=  1.01083899437655E+05
 cg2d: Sum(rhs),rhsMax =  -6.75033149871694E+01  1.59141356179952E+00
(PID.TID 0000.0001)  ploadbar=  1.01083693476190E+05
 cg2d: Sum(rhs),rhsMax =  -6.75488046672245E+01  1.58984628898860E+00
(PID.TID 0000.0001)  ploadbar=  1.01083487514725E+05
 cg2d: Sum(rhs),rhsMax =  -6.75881310607109E+01  1.58840414124555E+00
(PID.TID 0000.0001)  ploadbar=  1.01083281553260E+05
 cg2d: Sum(rhs),rhsMax =  -6.76264264553262E+01  1.58696021166298E+00
(PID.TID 0000.0001)  ploadbar=  1.01083075591795E+05
 cg2d: Sum(rhs),rhsMax =  -6.76665010269531E+01  1.58544397767872E+00
(PID.TID 0000.0001)  ploadbar=  1.01082869630330E+05
 cg2d: Sum(rhs),rhsMax =  -6.77093413207221E+01  1.58382482142001E+00
(PID.TID 0000.0001)  ploadbar=  1.01082663668866E+05
 cg2d: Sum(rhs),rhsMax =  -6.77642361197986E+01  1.58195173691309E+00
(PID.TID 0000.0001)  ploadbar=  1.01082534177788E+05
 cg2d: Sum(rhs),rhsMax =  -6.77736640226401E+01  1.58116816282536E+00
(PID.TID 0000.0001)  ploadbar=  1.01082404686711E+05
 cg2d: Sum(rhs),rhsMax =  -6.77401549956749E+01  1.58140696219304E+00
(PID.TID 0000.0001)  ploadbar=  1.01082275195634E+05
 cg2d: Sum(rhs),rhsMax =  -6.77769973467240E+01  1.58002037723952E+00
(PID.TID 0000.0001)  ploadbar=  1.01082145704557E+05
 cg2d: Sum(rhs),rhsMax =  -6.78755696741266E+01  1.57721090053759E+00
(PID.TID 0000.0001)  ploadbar=  1.01082016213480E+05
 cg2d: Sum(rhs),rhsMax =  -6.80223825351894E+01  1.57329651423907E+00
(PID.TID 0000.0001)  ploadbar=  1.01081886722403E+05
 cg2d: Sum(rhs),rhsMax =  -6.81496239938417E+01  1.56984483926678E+00
(PID.TID 0000.0001)  ploadbar=  1.01083244598754E+05
 cg2d: Sum(rhs),rhsMax =  -6.81910491335961E+01  1.56837178648679E+00
(PID.TID 0000.0001)  ploadbar=  1.01084602475106E+05
 cg2d: Sum(rhs),rhsMax =  -6.81203697232983E+01  1.56946620909486E+00
(PID.TID 0000.0001)  ploadbar=  1.01085960351457E+05
 cg2d: Sum(rhs),rhsMax =  -6.79454430054409E+01  1.57295329083061E+00
(PID.TID 0000.0001)  ploadbar=  1.01087318227809E+05
 cg2d: Sum(rhs),rhsMax =  -6.77015905237312E+01  1.57803702679690E+00
(PID.TID 0000.0001)  ploadbar=  1.01088676104160E+05
 cg2d: Sum(rhs),rhsMax =  -6.74196127709018E+01  1.58402029619046E+00
(PID.TID 0000.0001)  ploadbar=  1.01090033980512E+05
 cg2d: Sum(rhs),rhsMax =  -6.71419541854615E+01  1.59000935038898E+00
(PID.TID 0000.0001)  ploadbar=  1.01091270570684E+05
 cg2d: Sum(rhs),rhsMax =  -6.68382748502712E+01  1.59672148163364E+00
(PID.TID 0000.0001)  ploadbar=  1.01092507160856E+05
 cg2d: Sum(rhs),rhsMax =  -6.65142763029973E+01  1.60403105046130E+00
(PID.TID 0000.0001)  ploadbar=  1.01093743751029E+05
 cg2d: Sum(rhs),rhsMax =  -6.61703771047128E+01  1.61193692799098E+00
(PID.TID 0000.0001)  ploadbar=  1.01094980341201E+05
 cg2d: Sum(rhs),rhsMax =  -6.58033433739477E+01  1.62052992464711E+00
(PID.TID 0000.0001)  ploadbar=  1.01096216931373E+05
 cg2d: Sum(rhs),rhsMax =  -6.54122050491659E+01  1.62984756569958E+00
(PID.TID 0000.0001)  ploadbar=  1.01097453521545E+05
 cg2d: Sum(rhs),rhsMax =  -6.49937391159420E+01  1.63997847795594E+00
(PID.TID 0000.0001)  ploadbar=  1.01097182380303E+05
 cg2d: Sum(rhs),rhsMax =  -6.45787551792804E+01  1.65016169587279E+00
(PID.TID 0000.0001)  ploadbar=  1.01096911239060E+05
 cg2d: Sum(rhs),rhsMax =  -6.41803266300051E+01  1.66005203332005E+00
(PID.TID 0000.0001)  ploadbar=  1.01096640097817E+05
 cg2d: Sum(rhs),rhsMax =  -6.38103395759129E+01  1.66932168561876E+00
(PID.TID 0000.0001)  ploadbar=  1.01096368956574E+05
 cg2d: Sum(rhs),rhsMax =  -6.34768414950771E+01  1.67772841485178E+00
(PID.TID 0000.0001)  ploadbar=  1.01096097815331E+05
 cg2d: Sum(rhs),rhsMax =  -6.31861231006815E+01  1.68506878470363E+00
(PID.TID 0000.0001)  ploadbar=  1.01095826674088E+05
 cg2d: Sum(rhs),rhsMax =  -6.29632047449776E+01  1.69069552542659E+00
(PID.TID 0000.0001)  ploadbar=  1.01093779344615E+05
 cg2d: Sum(rhs),rhsMax =  -6.27946564136447E+01  1.69492625194779E+00
(PID.TID 0000.0001)  ploadbar=  1.01091732015141E+05
 cg2d: Sum(rhs),rhsMax =  -6.26856814968755E+01  1.69759506195571E+00
(PID.TID 0000.0001)  ploadbar=  1.01089684685668E+05
 cg2d: Sum(rhs),rhsMax =  -6.26340586060057E+01  1.69873966407002E+00
(PID.TID 0000.0001)  ploadbar=  1.01087637356194E+05
 cg2d: Sum(rhs),rhsMax =  -6.26372134702340E+01  1.69841445599079E+00
(PID.TID 0000.0001)  ploadbar=  1.01085590026720E+05
 cg2d: Sum(rhs),rhsMax =  -6.26944134304643E+01  1.69663523286743E+00
(PID.TID 0000.0001)  ploadbar=  1.01083542697247E+05
 cg2d: Sum(rhs),rhsMax =  -6.28139452981726E+01  1.69316671497622E+00
(PID.TID 0000.0001)  ploadbar=  1.01082221798952E+05
 cg2d: Sum(rhs),rhsMax =  -6.29843755591525E+01  1.68832959385564E+00
(PID.TID 0000.0001)  ploadbar=  1.01080900900658E+05
 cg2d: Sum(rhs),rhsMax =  -6.31908075325071E+01  1.68253619962506E+00
(PID.TID 0000.0001)  ploadbar=  1.01079580002363E+05
 cg2d: Sum(rhs),rhsMax =  -6.34206495070566E+01  1.67613711787643E+00
(PID.TID 0000.0001)  ploadbar=  1.01078259104068E+05
 cg2d: Sum(rhs),rhsMax =  -6.36617798455817E+01  1.66945439178774E+00
(PID.TID 0000.0001)  ploadbar=  1.01076938205774E+05
 cg2d: Sum(rhs),rhsMax =  -6.39044233868800E+01  1.66274616911504E+00
(PID.TID 0000.0001)  ploadbar=  1.01075617307479E+05
 cg2d: Sum(rhs),rhsMax =  -6.41366234273139E+01  1.65638235621007E+00
(PID.TID 0000.0001)  ploadbar=  1.01074143934982E+05
 cg2d: Sum(rhs),rhsMax =  -6.43703567112675E+01  1.65004285354143E+00
(PID.TID 0000.0001)  ploadbar=  1.01072670562484E+05
 cg2d: Sum(rhs),rhsMax =  -6.46168898356994E+01  1.64343543750961E+00
(PID.TID 0000.0001)  ploadbar=  1.01071197189987E+05
 cg2d: Sum(rhs),rhsMax =  -6.48868389446254E+01  1.63629545161138E+00
(PID.TID 0000.0001)  ploadbar=  1.01069723817489E+05
 cg2d: Sum(rhs),rhsMax =  -6.51873006688541E+01  1.62845422568437E+00
(PID.TID 0000.0001)  ploadbar=  1.01068250444991E+05
 cg2d: Sum(rhs),rhsMax =  -6.55225485874662E+01  1.61982218032396E+00
(PID.TID 0000.0001)  ploadbar=  1.01066777072494E+05
 cg2d: Sum(rhs),rhsMax =  -6.58751308219457E+01  1.61086892771835E+00
(PID.TID 0000.0001)  ploadbar=  1.01065735262939E+05
 cg2d: Sum(rhs),rhsMax =  -6.62729728219456E+01  1.60092639559629E+00
(PID.TID 0000.0001)  ploadbar=  1.01064693453383E+05
 cg2d: Sum(rhs),rhsMax =  -6.66893432592802E+01  1.59066541899989E+00
(PID.TID 0000.0001)  ploadbar=  1.01063651643828E+05
 cg2d: Sum(rhs),rhsMax =  -6.71273628475176E+01  1.58002222886199E+00
(PID.TID 0000.0001)  ploadbar=  1.01062609834273E+05
 cg2d: Sum(rhs),rhsMax =  -6.75872564523138E+01  1.56900590983785E+00
(PID.TID 0000.0001)  ploadbar=  1.01061568024718E+05
 cg2d: Sum(rhs),rhsMax =  -6.80683339252771E+01  1.55764636463063E+00
(PID.TID 0000.0001)  ploadbar=  1.01060526215163E+05
 cg2d: Sum(rhs),rhsMax =  -6.85330569092982E+01  1.54681092063980E+00
(PID.TID 0000.0001)  ploadbar=  1.01058557142878E+05
 cg2d: Sum(rhs),rhsMax =  -6.90692357387618E+01  1.53452525662993E+00
(PID.TID 0000.0001)  ploadbar=  1.01056588070593E+05
 cg2d: Sum(rhs),rhsMax =  -6.96663604093025E+01  1.52108791002316E+00
(PID.TID 0000.0001)  ploadbar=  1.01054618998309E+05
 cg2d: Sum(rhs),rhsMax =  -7.03249106081052E+01  1.50654514673573E+00
(PID.TID 0000.0001)  ploadbar=  1.01052649926024E+05
 cg2d: Sum(rhs),rhsMax =  -7.10256507455401E+01  1.49136216053701E+00
(PID.TID 0000.0001)  ploadbar=  1.01050680853740E+05
 cg2d: Sum(rhs),rhsMax =  -7.17381344165289E+01  1.47620652709484E+00
(PID.TID 0000.0001)  ploadbar=  1.01048711781455E+05
 cg2d: Sum(rhs),rhsMax =  -7.24816388021851E+01  1.46069370624292E+00
(PID.TID 0000.0001)  ploadbar=  1.01046485147899E+05
 cg2d: Sum(rhs),rhsMax =  -7.33451901294960E+01  1.44310054106346E+00
(PID.TID 0000.0001)  ploadbar=  1.01044258514342E+05
 cg2d: Sum(rhs),rhsMax =  -7.43820270584704E+01  1.42256372592969E+00
(PID.TID 0000.0001)  ploadbar=  1.01042031880786E+05
 cg2d: Sum(rhs),rhsMax =  -7.56240977993912E+01  1.39875051835400E+00
(PID.TID 0000.0001)  ploadbar=  1.01039805247230E+05
 cg2d: Sum(rhs),rhsMax =  -7.70075329150521E+01  1.37314458172588E+00
(PID.TID 0000.0001)  ploadbar=  1.01037578613673E+05
 cg2d: Sum(rhs),rhsMax =  -7.83489927149210E+01  1.34912513750257E+00
(PID.TID 0000.0001)  ploadbar=  1.01035351980117E+05
 cg2d: Sum(rhs),rhsMax =  -7.96538078144312E+01  1.32655974371521E+00
(PID.TID 0000.0001)  ploadbar=  1.01034186179004E+05
 cg2d: Sum(rhs),rhsMax =  -8.09878786721289E+01  1.30428226344984E+00
(PID.TID 0000.0001)  ploadbar=  1.01033020377891E+05
 cg2d: Sum(rhs),rhsMax =  -8.20099787360918E+01  1.28763614280829E+00
(PID.TID 0000.0001)  ploadbar=  1.01031854576778E+05
 cg2d: Sum(rhs),rhsMax =  -8.14513618194175E+01  1.29609929417668E+00
(PID.TID 0000.0001)  ploadbar=  1.01030688775665E+05
 cg2d: Sum(rhs),rhsMax =  -8.10109919691624E+01  1.30279715752976E+00
(PID.TID 0000.0001)  ploadbar=  1.01029522974552E+05
 cg2d: Sum(rhs),rhsMax =  -8.08054908085259E+01  1.30578193599215E+00
(PID.TID 0000.0001)  ploadbar=  1.01028357173439E+05
 cg2d: Sum(rhs),rhsMax =  -8.11873246408143E+01  1.29932728950979E+00
(PID.TID 0000.0001)  ploadbar=  1.01027275732797E+05
 cg2d: Sum(rhs),rhsMax =  -8.10882858711600E+01  1.30061004463192E+00
(PID.TID 0000.0001)  ploadbar=  1.01026194292156E+05
 cg2d: Sum(rhs),rhsMax =  -8.06708657951620E+01  1.30703828971034E+00
(PID.TID 0000.0001)  ploadbar=  1.01025112851514E+05
 cg2d: Sum(rhs),rhsMax =  -8.01649619601764E+01  1.31498475333625E+00
(PID.TID 0000.0001)  ploadbar=  1.01024031410873E+05
 cg2d: Sum(rhs),rhsMax =  -7.95784290076476E+01  1.32437255528343E+00
(PID.TID 0000.0001)  ploadbar=  1.01022949970231E+05
 cg2d: Sum(rhs),rhsMax =  -7.89659738143695E+01  1.33433535845441E+00
(PID.TID 0000.0001)  ploadbar=  1.01021868529590E+05
 cg2d: Sum(rhs),rhsMax =  -7.85183646032089E+01  1.34164138788474E+00
(PID.TID 0000.0001)  ploadbar=  1.01019493177638E+05
 cg2d: Sum(rhs),rhsMax =  -7.81135240937083E+01  1.34829997170194E+00
(PID.TID 0000.0001)  ploadbar=  1.01017117825685E+05
 cg2d: Sum(rhs),rhsMax =  -7.77777135370212E+01  1.35382848120589E+00
(PID.TID 0000.0001)  ploadbar=  1.01014742473733E+05
 cg2d: Sum(rhs),rhsMax =  -7.74972598845456E+01  1.35843131404060E+00
(PID.TID 0000.0001)  ploadbar=  1.01012367121780E+05
 cg2d: Sum(rhs),rhsMax =  -7.72676501481214E+01  1.36216351959937E+00
(PID.TID 0000.0001)  ploadbar=  1.01009991769828E+05
 cg2d: Sum(rhs),rhsMax =  -7.70866624515558E+01  1.36504614663107E+00
(PID.TID 0000.0001)  ploadbar=  1.01007616417876E+05
 cg2d: Sum(rhs),rhsMax =  -7.69874303808388E+01  1.36645557540728E+00
(PID.TID 0000.0001)  ploadbar=  1.01006686297017E+05
 cg2d: Sum(rhs),rhsMax =  -7.68567720061450E+01  1.36839361344928E+00
(PID.TID 0000.0001)  ploadbar=  1.01005756176158E+05
 cg2d: Sum(rhs),rhsMax =  -7.66452638536105E+01  1.37174711337156E+00
(PID.TID 0000.0001)  ploadbar=  1.01004826055300E+05
 cg2d: Sum(rhs),rhsMax =  -7.63916755312943E+01  1.37583380776869E+00
(PID.TID 0000.0001)  ploadbar=  1.01003895934441E+05
 cg2d: Sum(rhs),rhsMax =  -7.61214781878930E+01  1.38020244524577E+00
(PID.TID 0000.0001)  ploadbar=  1.01002965813583E+05
 cg2d: Sum(rhs),rhsMax =  -7.58451608339971E+01  1.38466497788412E+00
(PID.TID 0000.0001)  ploadbar=  1.01002035692724E+05
 cg2d: Sum(rhs),rhsMax =  -7.56161913746813E+01  1.38834648520957E+00
(PID.TID 0000.0001)  ploadbar=  1.01002088671689E+05
 cg2d: Sum(rhs),rhsMax =  -7.54290480602155E+01  1.39133509970038E+00
(PID.TID 0000.0001)  ploadbar=  1.01002141650654E+05
 cg2d: Sum(rhs),rhsMax =  -7.52322586182333E+01  1.39457012272091E+00
(PID.TID 0000.0001)  ploadbar=  1.01002194629619E+05
 cg2d: Sum(rhs),rhsMax =  -7.50419006642868E+01  1.39774792761723E+00
(PID.TID 0000.0001)  ploadbar=  1.01002247608584E+05
 cg2d: Sum(rhs),rhsMax =  -7.48564243278976E+01  1.40089172939828E+00
(PID.TID 0000.0001)  ploadbar=  1.01002300587549E+05
 cg2d: Sum(rhs),rhsMax =  -7.46499958088617E+01  1.40448449106616E+00
(PID.TID 0000.0001)  ploadbar=  1.01002353566514E+05
 cg2d: Sum(rhs),rhsMax =  -7.44427364102825E+01  1.40812456065952E+00
(PID.TID 0000.0001)  ploadbar=  1.01002084293769E+05
 cg2d: Sum(rhs),rhsMax =  -7.42503329834491E+01  1.41151371947015E+00
(PID.TID 0000.0001)  ploadbar=  1.01001815021024E+05
 cg2d: Sum(rhs),rhsMax =  -7.40177571907629E+01  1.41569683805107E+00
(PID.TID 0000.0001)  ploadbar=  1.01001545748279E+05
 cg2d: Sum(rhs),rhsMax =  -7.41619471655636E+01  1.41269887605855E+00
(PID.TID 0000.0001)  ploadbar=  1.01001276475534E+05
 cg2d: Sum(rhs),rhsMax =  -6.94301695762332E+01  1.50871730782535E+00
(PID.TID 0000.0001)  ploadbar=  1.01001007202789E+05
 cg2d: Sum(rhs),rhsMax =  -6.15807515044441E+01  1.70073459428188E+00
(PID.TID 0000.0001)  ploadbar=  1.01000737930044E+05
 cg2d: Sum(rhs),rhsMax =  -5.42983022296649E+01  1.92851072231828E+00
(PID.TID 0000.0001)  ploadbar=  1.01000696353111E+05
 cg2d: Sum(rhs),rhsMax =  -4.92579294784571E+01  2.12549196936947E+00
(PID.TID 0000.0001)  ploadbar=  1.01000654776179E+05
 cg2d: Sum(rhs),rhsMax =  -4.50268105271084E+01  2.32482905166977E+00
(PID.TID 0000.0001)  ploadbar=  1.01000613199246E+05
 cg2d: Sum(rhs),rhsMax =  -4.19772180512177E+01  2.49328972791782E+00
(PID.TID 0000.0001)  ploadbar=  1.01000571622314E+05
 cg2d: Sum(rhs),rhsMax =  -3.91399620171462E+01  2.67353806747466E+00
(PID.TID 0000.0001)  ploadbar=  1.01000530045381E+05
 cg2d: Sum(rhs),rhsMax =  -3.70098712714666E+01  2.82686232506828E+00
(PID.TID 0000.0001)  ploadbar=  1.01000488468449E+05
 cg2d: Sum(rhs),rhsMax =  -3.56537046199631E+01  2.93377870113009E+00
(PID.TID 0000.0001)  ploadbar=  1.01000887906104E+05
 cg2d: Sum(rhs),rhsMax =  -3.46828873690008E+01  3.01523115050843E+00
(PID.TID 0000.0001)  ploadbar=  1.01001287343759E+05
 cg2d: Sum(rhs),rhsMax =  -3.41415287717191E+01  3.06231769953151E+00
(PID.TID 0000.0001)  ploadbar=  1.01001686781415E+05
 cg2d: Sum(rhs),rhsMax =  -3.39790323563989E+01  3.07618366208400E+00
(PID.TID 0000.0001)  ploadbar=  1.01002086219070E+05
 cg2d: Sum(rhs),rhsMax =  -3.41319265261698E+01  3.06157470093769E+00
(PID.TID 0000.0001)  ploadbar=  1.01002485656725E+05
 cg2d: Sum(rhs),rhsMax =  -3.46077065724758E+01  3.01860788928462E+00
(PID.TID 0000.0001)  ploadbar=  1.01002885094381E+05
 cg2d: Sum(rhs),rhsMax =  -3.53714745766865E+01  2.95265240828133E+00
(PID.TID 0000.0001)  ploadbar=  1.01002356310882E+05
 cg2d: Sum(rhs),rhsMax =  -3.63944867501137E+01  2.86897589841898E+00
(PID.TID 0000.0001)  ploadbar=  1.01001827527384E+05
 cg2d: Sum(rhs),rhsMax =  -3.76026602802375E+01  2.77620351588031E+00
(PID.TID 0000.0001)  ploadbar=  1.01001298743885E+05
 cg2d: Sum(rhs),rhsMax =  -3.91289270078561E+01  2.66740214346049E+00
(PID.TID 0000.0001)  ploadbar=  1.01000769960387E+05
 cg2d: Sum(rhs),rhsMax =  -4.08952817241492E+01  2.55174513929853E+00
(PID.TID 0000.0001)  ploadbar=  1.01000241176888E+05
 cg2d: Sum(rhs),rhsMax =  -4.27863060699925E+01  2.43857317878266E+00
(PID.TID 0000.0001)  ploadbar=  1.00999712393390E+05
 cg2d: Sum(rhs),rhsMax =  -4.47124360840887E+01  2.33316835658678E+00
(PID.TID 0000.0001)  ploadbar=  1.01000629195126E+05
 cg2d: Sum(rhs),rhsMax =  -4.66373100741634E+01  2.23654402901755E+00
(PID.TID 0000.0001)  ploadbar=  1.01001545996862E+05
 cg2d: Sum(rhs),rhsMax =  -4.85385192632960E+01  2.14863659158384E+00
(PID.TID 0000.0001)  ploadbar=  1.01002462798598E+05
 cg2d: Sum(rhs),rhsMax =  -5.05069978881221E+01  2.06460739175227E+00
(PID.TID 0000.0001)  ploadbar=  1.01003379600334E+05
 cg2d: Sum(rhs),rhsMax =  -4.83273905092781E+01  2.15742192633398E+00
(PID.TID 0000.0001)  ploadbar=  1.01004296402071E+05
 cg2d: Sum(rhs),rhsMax =  -4.54916884723556E+01  2.29157664728774E+00
(PID.TID 0000.0001)  ploadbar=  1.01005213203807E+05
 cg2d: Sum(rhs),rhsMax =  -4.32908858061817E+01  2.40772209261469E+00
(PID.TID 0000.0001)  ploadbar=  1.01005952425574E+05
 cg2d: Sum(rhs),rhsMax =  -4.15496028841532E+01  2.50823870393170E+00
(PID.TID 0000.0001)  ploadbar=  1.01006691647341E+05
 cg2d: Sum(rhs),rhsMax =  -4.01344689918257E+01  2.59624839777093E+00
(PID.TID 0000.0001)  ploadbar=  1.01007430869109E+05
 cg2d: Sum(rhs),rhsMax =  -3.89656454873429E+01  2.67364382930283E+00
(PID.TID 0000.0001)  ploadbar=  1.01008170090876E+05
 cg2d: Sum(rhs),rhsMax =  -3.79890313053403E+01  2.74183170130265E+00
(PID.TID 0000.0001)  ploadbar=  1.01008909312643E+05
 cg2d: Sum(rhs),rhsMax =  -3.71643796938633E+01  2.80204708974986E+00
(PID.TID 0000.0001)  ploadbar=  1.01009648534410E+05
 cg2d: Sum(rhs),rhsMax =  -3.64248281857928E+01  2.85825504172076E+00
(PID.TID 0000.0001)  ploadbar=  1.01010365342816E+05
 cg2d: Sum(rhs),rhsMax =  -3.57663235629421E+01  2.91012968726514E+00
(PID.TID 0000.0001)  ploadbar=  1.01011082151222E+05
 cg2d: Sum(rhs),rhsMax =  -3.53610379279850E+01  2.94266659207532E+00
(PID.TID 0000.0001)  ploadbar=  1.01011798959628E+05
 cg2d: Sum(rhs),rhsMax =  -3.51668647908299E+01  2.95802486108409E+00
(PID.TID 0000.0001)  ploadbar=  1.01012515768035E+05
 cg2d: Sum(rhs),rhsMax =  -3.50997528621992E+01  2.96271986829891E+00
(PID.TID 0000.0001)  ploadbar=  1.01013232576441E+05
 cg2d: Sum(rhs),rhsMax =  -3.50558561639313E+01  2.96538979680785E+00
(PID.TID 0000.0001)  ploadbar=  1.01013949384847E+05
 cg2d: Sum(rhs),rhsMax =  -3.50430189075569E+01  2.96554589946599E+00
(PID.TID 0000.0001)  ploadbar=  1.01014010139742E+05
 cg2d: Sum(rhs),rhsMax =  -3.50554332195084E+01  2.96366868723826E+00
(PID.TID 0000.0001)  ploadbar=  1.01014070894638E+05
 cg2d: Sum(rhs),rhsMax =  -3.50896890066709E+01  2.96004424763363E+00
(PID.TID 0000.0001)  ploadbar=  1.01014131649533E+05
 cg2d: Sum(rhs),rhsMax =  -3.51534230989858E+01  2.95403431887452E+00
(PID.TID 0000.0001)  ploadbar=  1.01014192404428E+05
 cg2d: Sum(rhs),rhsMax =  -3.52477627483334E+01  2.94556350267670E+00
(PID.TID 0000.0001)  ploadbar=  1.01014253159324E+05
 cg2d: Sum(rhs),rhsMax =  -3.53686680714421E+01  2.93500032126161E+00
(PID.TID 0000.0001)  ploadbar=  1.01014313914219E+05
 cg2d: Sum(rhs),rhsMax =  -3.55452532573324E+01  2.91991398156228E+00
(PID.TID 0000.0001)  ploadbar=  1.01016147119366E+05
 cg2d: Sum(rhs),rhsMax =  -3.57460974459295E+01  2.90298388558555E+00
(PID.TID 0000.0001)  ploadbar=  1.01017980324513E+05
 cg2d: Sum(rhs),rhsMax =  -3.59662189544910E+01  2.88466686802696E+00
(PID.TID 0000.0001)  ploadbar=  1.01019813529660E+05
 cg2d: Sum(rhs),rhsMax =  -3.62009886679992E+01  2.86537466638354E+00
(PID.TID 0000.0001)  ploadbar=  1.01021646734807E+05
 cg2d: Sum(rhs),rhsMax =  -3.64464605246975E+01  2.84545507240252E+00
(PID.TID 0000.0001)  ploadbar=  1.01023479939954E+05
 cg2d: Sum(rhs),rhsMax =  -3.66997536259173E+01  2.82515480779941E+00
(PID.TID 0000.0001)  ploadbar=  1.01025313145101E+05
 cg2d: Sum(rhs),rhsMax =  -3.69519107763745E+01  2.80525787901761E+00
(PID.TID 0000.0001)  ploadbar=  1.01027691607735E+05
 cg2d: Sum(rhs),rhsMax =  -3.72112472803130E+01  2.78511422360096E+00
(PID.TID 0000.0001)  ploadbar=  1.01030070070369E+05
 cg2d: Sum(rhs),rhsMax =  -3.74765226307516E+01  2.76482429590222E+00
(PID.TID 0000.0001)  ploadbar=  1.01032448533003E+05
 cg2d: Sum(rhs),rhsMax =  -3.77481005530308E+01  2.74437114421462E+00
(PID.TID 0000.0001)  ploadbar=  1.01034826995637E+05
 cg2d: Sum(rhs),rhsMax =  -3.80257544052036E+01  2.72377562371666E+00
(PID.TID 0000.0001)  ploadbar=  1.01037205458271E+05
 cg2d: Sum(rhs),rhsMax =  -3.83095571281551E+01  2.70303614593154E+00
(PID.TID 0000.0001)  ploadbar=  1.01039583920905E+05
 cg2d: Sum(rhs),rhsMax =  -3.86060936007463E+01  2.68169826664395E+00
(PID.TID 0000.0001)  ploadbar=  1.01041229190506E+05
 cg2d: Sum(rhs),rhsMax =  -3.89118545433596E+01  2.66003221021575E+00
(PID.TID 0000.0001)  ploadbar=  1.01042874460107E+05
 cg2d: Sum(rhs),rhsMax =  -3.92276144424228E+01  2.63800375725280E+00
(PID.TID 0000.0001)  ploadbar=  1.01044519729709E+05
 cg2d: Sum(rhs),rhsMax =  -3.95534760637505E+01  2.61562461827818E+00
(PID.TID 0000.0001)  ploadbar=  1.01046164999310E+05
 cg2d: Sum(rhs),rhsMax =  -3.98895549175849E+01  2.59290315309255E+00
(PID.TID 0000.0001)  ploadbar=  1.01047810268911E+05
 cg2d: Sum(rhs),rhsMax =  -4.02353101484288E+01  2.56989213781976E+00
(PID.TID 0000.0001)  ploadbar=  1.01049455538512E+05
 cg2d: Sum(rhs),rhsMax =  -4.05811721451006E+01  2.54731888539463E+00
(PID.TID 0000.0001)  ploadbar=  1.01051461323973E+05
 cg2d: Sum(rhs),rhsMax =  -4.09352273122489E+01  2.52466634902812E+00
(PID.TID 0000.0001)  ploadbar=  1.01053467109433E+05
 cg2d: Sum(rhs),rhsMax =  -4.12946547543486E+01  2.50211236733793E+00
(PID.TID 0000.0001)  ploadbar=  1.01055472894893E+05
 cg2d: Sum(rhs),rhsMax =  -4.16608598661441E+01  2.47957240034403E+00
(PID.TID 0000.0001)  ploadbar=  1.01057478680354E+05
 cg2d: Sum(rhs),rhsMax =  -4.20343011048490E+01  2.45701833877654E+00
(PID.TID 0000.0001)  ploadbar=  1.01059484465814E+05
 cg2d: Sum(rhs),rhsMax =  -4.24157203213964E+01  2.43440960960691E+00
(PID.TID 0000.0001)  ploadbar=  1.01061490251275E+05
 cg2d: Sum(rhs),rhsMax =  -4.28090379911652E+01  2.41149495989207E+00
(PID.TID 0000.0001)  ploadbar=  1.01063246779660E+05
 cg2d: Sum(rhs),rhsMax =  -4.32033319544111E+01  2.38890026829963E+00
(PID.TID 0000.0001)  ploadbar=  1.01065003308045E+05
 cg2d: Sum(rhs),rhsMax =  -4.36037620882796E+01  2.36633246508796E+00
(PID.TID 0000.0001)  ploadbar=  1.01066759836430E+05
 cg2d: Sum(rhs),rhsMax =  -4.40087027032274E+01  2.34388153909356E+00
(PID.TID 0000.0001)  ploadbar=  1.01068516364815E+05
 cg2d: Sum(rhs),rhsMax =  -4.44197450604446E+01  2.32146225949365E+00
(PID.TID 0000.0001)  ploadbar=  1.01070272893201E+05
 cg2d: Sum(rhs),rhsMax =  -4.48371958355722E+01  2.29906239324651E+00
(PID.TID 0000.0001)  ploadbar=  1.01072029421586E+05
 cg2d: Sum(rhs),rhsMax =  -4.52610564898511E+01  2.27679603713662E+00
(PID.TID 0000.0001)  ploadbar=  1.01073260296643E+05
 cg2d: Sum(rhs),rhsMax =  -4.56869661179615E+01  2.25487173787469E+00
(PID.TID 0000.0001)  ploadbar=  1.01074491171700E+05
 cg2d: Sum(rhs),rhsMax =  -4.61136644184727E+01  2.23333724724512E+00
(PID.TID 0000.0001)  ploadbar=  1.01075722046757E+05
 cg2d: Sum(rhs),rhsMax =  -4.65369944913804E+01  2.21237331682154E+00
(PID.TID 0000.0001)  ploadbar=  1.01076952921814E+05
 cg2d: Sum(rhs),rhsMax =  -4.69520215869519E+01  2.19218409681473E+00
(PID.TID 0000.0001)  ploadbar=  1.01078183796871E+05
 cg2d: Sum(rhs),rhsMax =  -4.73510571985372E+01  2.17308263773400E+00
(PID.TID 0000.0001)  ploadbar=  1.01079414671928E+05
 cg2d: Sum(rhs),rhsMax =  -4.77444982420268E+01  2.15453109823252E+00
(PID.TID 0000.0001)  ploadbar=  1.01080233914893E+05
 cg2d: Sum(rhs),rhsMax =  -4.81188878217637E+01  2.13710279722033E+00
(PID.TID 0000.0001)  ploadbar=  1.01081053157858E+05
 cg2d: Sum(rhs),rhsMax =  -4.84710086678108E+01  2.12088217884717E+00
(PID.TID 0000.0001)  ploadbar=  1.01081872400823E+05
 cg2d: Sum(rhs),rhsMax =  -4.87985485705717E+01  2.10590937105624E+00
(PID.TID 0000.0001)  ploadbar=  1.01082691643788E+05
 cg2d: Sum(rhs),rhsMax =  -4.91039457796118E+01  2.09202762622775E+00
(PID.TID 0000.0001)  ploadbar=  1.01083510886753E+05
 cg2d: Sum(rhs),rhsMax =  -4.93877670659809E+01  2.07916859295632E+00
(PID.TID 0000.0001)  ploadbar=  1.01084330129718E+05
 cg2d: Sum(rhs),rhsMax =  -4.96565026239678E+01  2.06716375388108E+00
(PID.TID 0000.0001)  ploadbar=  1.01084636131699E+05
 cg2d: Sum(rhs),rhsMax =  -4.99342464344685E+01  2.05499396666651E+00
(PID.TID 0000.0001)  ploadbar=  1.01084942133680E+05
 cg2d: Sum(rhs),rhsMax =  -5.01964134745480E+01  2.04366166671789E+00
(PID.TID 0000.0001)  ploadbar=  1.01085248135661E+05
 cg2d: Sum(rhs),rhsMax =  -5.04361967536178E+01  2.03341079478480E+00
(PID.TID 0000.0001)  ploadbar=  1.01085554137641E+05
 cg2d: Sum(rhs),rhsMax =  -5.06586636402581E+01  2.02400190372173E+00
(PID.TID 0000.0001)  ploadbar=  1.01085860139622E+05
 cg2d: Sum(rhs),rhsMax =  -5.08559968634923E+01  2.01572235656902E+00
(PID.TID 0000.0001)  ploadbar=  1.01086166141603E+05
 cg2d: Sum(rhs),rhsMax =  -5.10393137114966E+01  2.00805680259007E+00
(PID.TID 0000.0001)  ploadbar=  1.01085337284306E+05
 cg2d: Sum(rhs),rhsMax =  -5.11931397529018E+01  2.00159249558270E+00
(PID.TID 0000.0001)  ploadbar=  1.01084508427009E+05
 cg2d: Sum(rhs),rhsMax =  -5.12946431049029E+01  1.99719009656008E+00
(PID.TID 0000.0001)  ploadbar=  1.01083679569712E+05
 cg2d: Sum(rhs),rhsMax =  -5.13620386241820E+01  1.99411280694971E+00
(PID.TID 0000.0001)  ploadbar=  1.01082850712415E+05
 cg2d: Sum(rhs),rhsMax =  -5.14143781221335E+01  1.99160082479731E+00
(PID.TID 0000.0001)  ploadbar=  1.01082021855118E+05
 cg2d: Sum(rhs),rhsMax =  -5.14611437168221E+01  1.98927658954206E+00
(PID.TID 0000.0001)  ploadbar=  1.01081192997821E+05
 cg2d: Sum(rhs),rhsMax =  -5.14819077436472E+01  1.98800819896394E+00
(PID.TID 0000.0001)  ploadbar=  1.01079912296023E+05
 cg2d: Sum(rhs),rhsMax =  -5.14882427224965E+01  1.98734128397664E+00
(PID.TID 0000.0001)  ploadbar=  1.01078631594224E+05
 cg2d: Sum(rhs),rhsMax =  -5.14623593477468E+01  1.98795551705776E+00
(PID.TID 0000.0001)  ploadbar=  1.01077350892426E+05
 cg2d: Sum(rhs),rhsMax =  -5.14119208929730E+01  1.98954869041982E+00
(PID.TID 0000.0001)  ploadbar=  1.01076070190628E+05
 cg2d: Sum(rhs),rhsMax =  -5.13473175348581E+01  1.99171580715623E+00
(PID.TID 0000.0001)  ploadbar=  1.01074789488829E+05
 cg2d: Sum(rhs),rhsMax =  -5.12495522703726E+01  1.99519640755410E+00
(PID.TID 0000.0001)  ploadbar=  1.01073508787031E+05
 cg2d: Sum(rhs),rhsMax =  -5.10822408635963E+01  2.00139899749791E+00
(PID.TID 0000.0001)  ploadbar=  1.01073027512710E+05
 cg2d: Sum(rhs),rhsMax =  -5.09167082567806E+01  2.00755833259685E+00
(PID.TID 0000.0001)  ploadbar=  1.01072546238388E+05
 cg2d: Sum(rhs),rhsMax =  -5.07762086384019E+01  2.01274648691402E+00
(PID.TID 0000.0001)  ploadbar=  1.01072064964066E+05
 cg2d: Sum(rhs),rhsMax =  -5.06990050653465E+01  2.01541903174929E+00
(PID.TID 0000.0001)  ploadbar=  1.01071583689745E+05
 cg2d: Sum(rhs),rhsMax =  -5.07219281786275E+01  2.01408394562806E+00
(PID.TID 0000.0001)  ploadbar=  1.01071102415423E+05
 cg2d: Sum(rhs),rhsMax =  -5.08664401351447E+01  2.00790319628348E+00
(PID.TID 0000.0001)  ploadbar=  1.01070621141102E+05
 cg2d: Sum(rhs),rhsMax =  -5.11939328386111E+01  1.99466714644675E+00
(PID.TID 0000.0001)  ploadbar=  1.01070750223783E+05
 cg2d: Sum(rhs),rhsMax =  -5.17649494399027E+01  1.97233875106676E+00
(PID.TID 0000.0001)  ploadbar=  1.01070879306465E+05
 cg2d: Sum(rhs),rhsMax =  -5.22433675893078E+01  1.95401026610849E+00
(PID.TID 0000.0001)  ploadbar=  1.01071008389146E+05
 cg2d: Sum(rhs),rhsMax =  -5.20280601816094E+01  1.96187901009507E+00
(PID.TID 0000.0001)  ploadbar=  1.01071137471828E+05
 cg2d: Sum(rhs),rhsMax =  -5.17757224903892E+01  1.97126684598195E+00
(PID.TID 0000.0001)  ploadbar=  1.01071266554509E+05
 cg2d: Sum(rhs),rhsMax =  -5.14804277238154E+01  1.98243663550238E+00
(PID.TID 0000.0001)  ploadbar=  1.01071395637190E+05
 cg2d: Sum(rhs),rhsMax =  -5.11800356823718E+01  1.99391905906119E+00
(PID.TID 0000.0001)  ploadbar=  1.01072734981630E+05
 cg2d: Sum(rhs),rhsMax =  -5.08697686444054E+01  2.00590753123614E+00
(PID.TID 0000.0001)  ploadbar=  1.01074074326071E+05
 cg2d: Sum(rhs),rhsMax =  -5.05695680986258E+01  2.01761699149760E+00
(PID.TID 0000.0001)  ploadbar=  1.01075413670511E+05
 cg2d: Sum(rhs),rhsMax =  -5.02880499850554E+01  2.02868179191459E+00
(PID.TID 0000.0001)  ploadbar=  1.01076753014951E+05
 cg2d: Sum(rhs),rhsMax =  -5.00293044148564E+01  2.03890681596203E+00
(PID.TID 0000.0001)  ploadbar=  1.01078092359391E+05
 cg2d: Sum(rhs),rhsMax =  -4.97944558792917E+01  2.04821472520611E+00
(PID.TID 0000.0001)  ploadbar=  1.01079431703831E+05
 cg2d: Sum(rhs),rhsMax =  -4.95851310469453E+01  2.05658220188612E+00
(PID.TID 0000.0001)  ploadbar=  1.01079398214477E+05
 cg2d: Sum(rhs),rhsMax =  -4.93935390146895E+01  2.06430407208205E+00
(PID.TID 0000.0001)  ploadbar=  1.01079364725124E+05
 cg2d: Sum(rhs),rhsMax =  -4.92095333748988E+01  2.07178656851166E+00
(PID.TID 0000.0001)  ploadbar=  1.01079331235770E+05
 cg2d: Sum(rhs),rhsMax =  -4.90376817718714E+01  2.07882309183542E+00
(PID.TID 0000.0001)  ploadbar=  1.01079297746417E+05
 cg2d: Sum(rhs),rhsMax =  -4.88819782688921E+01  2.08523026628929E+00
(PID.TID 0000.0001)  ploadbar=  1.01079264257063E+05
 cg2d: Sum(rhs),rhsMax =  -4.87663697557289E+01  2.08996671791088E+00
(PID.TID 0000.0001)  ploadbar=  1.01079230767710E+05
 cg2d: Sum(rhs),rhsMax =  -4.86562103051309E+01  2.09448950734507E+00
(PID.TID 0000.0001)  ploadbar=  1.01079499770181E+05
 cg2d: Sum(rhs),rhsMax =  -4.85739452105304E+01  2.09782393390195E+00
(PID.TID 0000.0001)  ploadbar=  1.01079768772651E+05
 cg2d: Sum(rhs),rhsMax =  -4.85249396830094E+01  2.09972101065775E+00
(PID.TID 0000.0001)  ploadbar=  1.01080037775122E+05
 cg2d: Sum(rhs),rhsMax =  -4.85294089613058E+01  2.09929433343012E+00
(PID.TID 0000.0001)  ploadbar=  1.01080306777593E+05
 cg2d: Sum(rhs),rhsMax =  -4.86156990577942E+01  2.09531741523329E+00
(PID.TID 0000.0001)  ploadbar=  1.01080575780064E+05
 cg2d: Sum(rhs),rhsMax =  -4.88077280438725E+01  2.08680313954937E+00
(PID.TID 0000.0001)  ploadbar=  1.01080844782535E+05
 cg2d: Sum(rhs),rhsMax =  -4.90434031684947E+01  2.07655804017724E+00
(PID.TID 0000.0001)  ploadbar=  1.01079508708155E+05
 cg2d: Sum(rhs),rhsMax =  -4.93306115154418E+01  2.06430277163993E+00
(PID.TID 0000.0001)  ploadbar=  1.01078172633775E+05
 cg2d: Sum(rhs),rhsMax =  -4.96991851593023E+01  2.04887936505974E+00
(PID.TID 0000.0001)  ploadbar=  1.01076836559395E+05
 cg2d: Sum(rhs),rhsMax =  -5.04380829167488E+01  2.01879814523201E+00
(PID.TID 0000.0001)  ploadbar=  1.01075500485016E+05
 cg2d: Sum(rhs),rhsMax =  -5.13647634666753E+01  1.98235370311039E+00
(PID.TID 0000.0001)  ploadbar=  1.01074164410636E+05
 cg2d: Sum(rhs),rhsMax =  -5.23877403630605E+01  1.94366024024923E+00
(PID.TID 0000.0001)  ploadbar=  1.01072828336256E+05
 cg2d: Sum(rhs),rhsMax =  -5.29904397935561E+01  1.92153243584402E+00
(PID.TID 0000.0001)  ploadbar=  1.01072570594464E+05
 cg2d: Sum(rhs),rhsMax =  -5.26943043932805E+01  1.93227033963883E+00
(PID.TID 0000.0001)  ploadbar=  1.01072312852672E+05
 cg2d: Sum(rhs),rhsMax =  -5.21025300998962E+01  1.95411128809113E+00
(PID.TID 0000.0001)  ploadbar=  1.01072055110879E+05
 cg2d: Sum(rhs),rhsMax =  -5.22535258314557E+01  1.94831276359861E+00
(PID.TID 0000.0001)  ploadbar=  1.01071797369087E+05
 cg2d: Sum(rhs),rhsMax =  -5.18315871198071E+01  1.96397078405040E+00
(PID.TID 0000.0001)  ploadbar=  1.01071539627295E+05
 cg2d: Sum(rhs),rhsMax =  -5.10538481474757E+01  1.99363465004641E+00
(PID.TID 0000.0001)  ploadbar=  1.01071281885503E+05
 cg2d: Sum(rhs),rhsMax =  -5.02892263544553E+01  2.02369651141767E+00
(PID.TID 0000.0001)  ploadbar=  1.01070540366926E+05
 cg2d: Sum(rhs),rhsMax =  -4.95543048906095E+01  2.05345701654576E+00
(PID.TID 0000.0001)  ploadbar=  1.01069798848349E+05
 cg2d: Sum(rhs),rhsMax =  -4.88392293714126E+01  2.08326452695948E+00
(PID.TID 0000.0001)  ploadbar=  1.01069057329773E+05
 cg2d: Sum(rhs),rhsMax =  -4.81422846753463E+01  2.11315433430939E+00
(PID.TID 0000.0001)  ploadbar=  1.01068315811196E+05
 cg2d: Sum(rhs),rhsMax =  -4.65613460104534E+01  2.18460985202832E+00
(PID.TID 0000.0001)  ploadbar=  1.01067574292619E+05
 cg2d: Sum(rhs),rhsMax =  -4.44080155675960E+01  2.29021059132059E+00
(PID.TID 0000.0001)  ploadbar=  1.01066832774043E+05
 cg2d: Sum(rhs),rhsMax =  -4.26073731981676E+01  2.38661153948207E+00
(PID.TID 0000.0001)  ploadbar=  1.01066141915548E+05
 cg2d: Sum(rhs),rhsMax =  -4.10963600377931E+01  2.47391620707412E+00
(PID.TID 0000.0001)  ploadbar=  1.01065451057054E+05
 cg2d: Sum(rhs),rhsMax =  -3.99129453989281E+01  2.54675728326099E+00
(PID.TID 0000.0001)  ploadbar=  1.01064760198559E+05
 cg2d: Sum(rhs),rhsMax =  -3.90083468127873E+01  2.60523054927417E+00
(PID.TID 0000.0001)  ploadbar=  1.01064069340065E+05
 cg2d: Sum(rhs),rhsMax =  -3.83720930879789E+01  2.64776160369012E+00
(PID.TID 0000.0001)  ploadbar=  1.01063378481571E+05
 cg2d: Sum(rhs),rhsMax =  -3.77273055947655E+01  2.69225593813422E+00
(PID.TID 0000.0001)  ploadbar=  1.01062687623076E+05
 cg2d: Sum(rhs),rhsMax =  -3.73278524123693E+01  2.72039674689847E+00
(PID.TID 0000.0001)  ploadbar=  1.01062871133530E+05
 cg2d: Sum(rhs),rhsMax =  -3.72756525516864E+01  2.72362709614928E+00
(PID.TID 0000.0001)  ploadbar=  1.01063054643983E+05
 cg2d: Sum(rhs),rhsMax =  -3.76264167394106E+01  2.69775204594441E+00
(PID.TID 0000.0001)  ploadbar=  1.01063238154437E+05
 cg2d: Sum(rhs),rhsMax =  -3.81145392137151E+01  2.66280255165125E+00
(PID.TID 0000.0001)  ploadbar=  1.01063421664890E+05
 cg2d: Sum(rhs),rhsMax =  -3.85592874422287E+01  2.63176592807443E+00
(PID.TID 0000.0001)  ploadbar=  1.01063605175344E+05
 cg2d: Sum(rhs),rhsMax =  -3.88536708498314E+01  2.61157323338051E+00
(PID.TID 0000.0001)  ploadbar=  1.01063788685797E+05
 cg2d: Sum(rhs),rhsMax =  -3.88242319246921E+01  2.61329834721458E+00
(PID.TID 0000.0001)  ploadbar=  1.01063904249148E+05
 cg2d: Sum(rhs),rhsMax =  -3.85675844235466E+01  2.63042547321241E+00
(PID.TID 0000.0001)  ploadbar=  1.01064019812500E+05
 cg2d: Sum(rhs),rhsMax =  -3.81750298274095E+01  2.65719526412937E+00
(PID.TID 0000.0001)  ploadbar=  1.01064135375851E+05
 cg2d: Sum(rhs),rhsMax =  -3.76946700022836E+01  2.69075989115998E+00
(PID.TID 0000.0001)  ploadbar=  1.01064250939202E+05
 cg2d: Sum(rhs),rhsMax =  -3.71837525208284E+01  2.72741213607785E+00
(PID.TID 0000.0001)  ploadbar=  1.01064366502553E+05
 cg2d: Sum(rhs),rhsMax =  -3.66436668537567E+01  2.76726649018495E+00
(PID.TID 0000.0001)  ploadbar=  1.01064482065904E+05
 cg2d: Sum(rhs),rhsMax =  -3.60639161399954E+01  2.81133790447086E+00
(PID.TID 0000.0001)  ploadbar=  1.01065025376384E+05
 cg2d: Sum(rhs),rhsMax =  -3.54303897187744E+01  2.86111329296081E+00
(PID.TID 0000.0001)  ploadbar=  1.01065568686864E+05
 cg2d: Sum(rhs),rhsMax =  -3.47904819810891E+01  2.91316024771159E+00
(PID.TID 0000.0001)  ploadbar=  1.01066111997344E+05
 cg2d: Sum(rhs),rhsMax =  -3.41880805851144E+01  2.96381865983462E+00
(PID.TID 0000.0001)  ploadbar=  1.01066655307824E+05
 cg2d: Sum(rhs),rhsMax =  -3.36464188119999E+01  3.01075887211814E+00
(PID.TID 0000.0001)  ploadbar=  1.01067198618304E+05
 cg2d: Sum(rhs),rhsMax =  -3.31884863356701E+01  3.05141893984062E+00
(PID.TID 0000.0001)  ploadbar=  1.01067741928785E+05
 cg2d: Sum(rhs),rhsMax =  -3.30976687363726E+01  3.05885193703846E+00
(PID.TID 0000.0001)  ploadbar=  1.01068187669685E+05
 cg2d: Sum(rhs),rhsMax =  -3.32976891750305E+01  3.03948328810811E+00
(PID.TID 0000.0001)  ploadbar=  1.01068633410586E+05
 cg2d: Sum(rhs),rhsMax =  -3.33990326920653E+01  3.02920275783898E+00
(PID.TID 0000.0001)  ploadbar=  1.01069079151486E+05
 cg2d: Sum(rhs),rhsMax =  -3.35255017670429E+01  3.01664610041856E+00
(PID.TID 0000.0001)  ploadbar=  1.01069524892387E+05
 cg2d: Sum(rhs),rhsMax =  -3.36685077777657E+01  3.00262405729740E+00
(PID.TID 0000.0001)  ploadbar=  1.01069970633288E+05
 cg2d: Sum(rhs),rhsMax =  -3.38340458888740E+01  2.98663553359683E+00
(PID.TID 0000.0001)  ploadbar=  1.01070416374188E+05
 cg2d: Sum(rhs),rhsMax =  -3.40344537132288E+01  2.96780315534201E+00
(PID.TID 0000.0001)  ploadbar=  1.01071685352178E+05
 cg2d: Sum(rhs),rhsMax =  -3.42684058885066E+01  2.94634259020766E+00
(PID.TID 0000.0001)  ploadbar=  1.01072954330167E+05
 cg2d: Sum(rhs),rhsMax =  -3.45234776990162E+01  2.92341690549690E+00
(PID.TID 0000.0001)  ploadbar=  1.01074223308156E+05
 cg2d: Sum(rhs),rhsMax =  -3.47938837706458E+01  2.89957219060796E+00
(PID.TID 0000.0001)  ploadbar=  1.01075492286146E+05
 cg2d: Sum(rhs),rhsMax =  -3.50719279255569E+01  2.87548064476135E+00
(PID.TID 0000.0001)  ploadbar=  1.01076761264135E+05
 cg2d: Sum(rhs),rhsMax =  -3.53470060589526E+01  2.85200940955876E+00
(PID.TID 0000.0001)  ploadbar=  1.01078030242125E+05
 cg2d: Sum(rhs),rhsMax =  -3.56209266731187E+01  2.82896499026345E+00
(PID.TID 0000.0001)  ploadbar=  1.01079447088565E+05
 cg2d: Sum(rhs),rhsMax =  -3.58856584754803E+01  2.80695696086931E+00
(PID.TID 0000.0001)  ploadbar=  1.01080863935005E+05
 cg2d: Sum(rhs),rhsMax =  -3.61388703379742E+01  2.78611916513178E+00
(PID.TID 0000.0001)  ploadbar=  1.01082280781446E+05
 cg2d: Sum(rhs),rhsMax =  -3.63844292409092E+01  2.76610735077415E+00
(PID.TID 0000.0001)  ploadbar=  1.01083697627886E+05
 cg2d: Sum(rhs),rhsMax =  -3.66083847701734E+01  2.74793344476475E+00
(PID.TID 0000.0001)  ploadbar=  1.01085114474326E+05
 cg2d: Sum(rhs),rhsMax =  -3.68082409189112E+01  2.73171238339699E+00
(PID.TID 0000.0001)  ploadbar=  1.01086531320767E+05
 cg2d: Sum(rhs),rhsMax =  -3.69624339301790E+01  2.71903787764200E+00
(PID.TID 0000.0001)  ploadbar=  1.01087920924903E+05
 cg2d: Sum(rhs),rhsMax =  -3.70848901567318E+01  2.70879464543121E+00
(PID.TID 0000.0001)  ploadbar=  1.01089310529039E+05
 cg2d: Sum(rhs),rhsMax =  -3.71734665109047E+01  2.70108286462722E+00
(PID.TID 0000.0001)  ploadbar=  1.01090700133175E+05
 cg2d: Sum(rhs),rhsMax =  -3.72358244273646E+01  2.69529838858457E+00
(PID.TID 0000.0001)  ploadbar=  1.01092089737311E+05
 cg2d: Sum(rhs),rhsMax =  -3.72840305901830E+01  2.69054358209988E+00
(PID.TID 0000.0001)  ploadbar=  1.01093479341447E+05
 cg2d: Sum(rhs),rhsMax =  -3.73257882128613E+01  2.68624674345365E+00
(PID.TID 0000.0001)  ploadbar=  1.01094868945583E+05
 cg2d: Sum(rhs),rhsMax =  -3.73458331548932E+01  2.68351021282993E+00
(PID.TID 0000.0001)  ploadbar=  1.01095455152549E+05
 cg2d: Sum(rhs),rhsMax =  -3.73683466580529E+01  2.68058706346317E+00
(PID.TID 0000.0001)  ploadbar=  1.01096041359516E+05
 cg2d: Sum(rhs),rhsMax =  -3.73886586588381E+01  2.67780896479969E+00
(PID.TID 0000.0001)  ploadbar=  1.01096627566483E+05
 cg2d: Sum(rhs),rhsMax =  -3.74069212690435E+01  2.67515724728408E+00
(PID.TID 0000.0001)  ploadbar=  1.01097213773450E+05
 cg2d: Sum(rhs),rhsMax =  -3.74225561355164E+01  2.67266668645536E+00
(PID.TID 0000.0001)  ploadbar=  1.01097799980416E+05
 cg2d: Sum(rhs),rhsMax =  -3.74307591082292E+01  2.67067417026166E+00
(PID.TID 0000.0001)  ploadbar=  1.01098386187383E+05
 cg2d: Sum(rhs),rhsMax =  -3.74064598161145E+01  2.67105068352477E+00
(PID.TID 0000.0001)  ploadbar=  1.01098762334951E+05
 cg2d: Sum(rhs),rhsMax =  -3.73727745826172E+01  2.67214553439600E+00
(PID.TID 0000.0001)  ploadbar=  1.01099138482520E+05
 cg2d: Sum(rhs),rhsMax =  -3.73361474819503E+01  2.67349798270108E+00
(PID.TID 0000.0001)  ploadbar=  1.01099514630088E+05
 cg2d: Sum(rhs),rhsMax =  -3.72996010767008E+01  2.67488098026140E+00
(PID.TID 0000.0001)  ploadbar=  1.01099890777657E+05
 cg2d: Sum(rhs),rhsMax =  -3.72659380728407E+01  2.67608404909787E+00
(PID.TID 0000.0001)  ploadbar=  1.01100266925225E+05
 cg2d: Sum(rhs),rhsMax =  -3.72393860772978E+01  2.67679005632652E+00
(PID.TID 0000.0001)  ploadbar=  1.01100643072794E+05
 cg2d: Sum(rhs),rhsMax =  -3.72349309109055E+01  2.67598692181923E+00
(PID.TID 0000.0001)  ploadbar=  1.01100940399897E+05
 cg2d: Sum(rhs),rhsMax =  -3.72188906427265E+01  2.67608963814175E+00
(PID.TID 0000.0001)  ploadbar=  1.01101237727001E+05
 cg2d: Sum(rhs),rhsMax =  -3.71908209550354E+01  2.67712250279729E+00
(PID.TID 0000.0001)  ploadbar=  1.01101535054104E+05
 cg2d: Sum(rhs),rhsMax =  -3.71424691518540E+01  2.67967538243065E+00
(PID.TID 0000.0001)  ploadbar=  1.01101832381208E+05
 cg2d: Sum(rhs),rhsMax =  -3.70699577828809E+01  2.68403410376794E+00
(PID.TID 0000.0001)  ploadbar=  1.01102129708311E+05
 cg2d: Sum(rhs),rhsMax =  -3.69715966176053E+01  2.69033642749369E+00
(PID.TID 0000.0001)  ploadbar=  1.01102427035415E+05
 cg2d: Sum(rhs),rhsMax =  -3.68532113223210E+01  2.69820013384962E+00
(PID.TID 0000.0001)  ploadbar=  1.01103557619709E+05
 cg2d: Sum(rhs),rhsMax =  -3.67100305038837E+01  2.70799740485936E+00
(PID.TID 0000.0001)  ploadbar=  1.01104688204003E+05
 cg2d: Sum(rhs),rhsMax =  -3.65354488871890E+01  2.72025245540152E+00
(PID.TID 0000.0001)  ploadbar=  1.01105818788297E+05
 cg2d: Sum(rhs),rhsMax =  -3.63206621420306E+01  2.73568474024051E+00
(PID.TID 0000.0001)  ploadbar=  1.01106949372591E+05
 cg2d: Sum(rhs),rhsMax =  -3.60689496434293E+01  2.75414387095181E+00
(PID.TID 0000.0001)  ploadbar=  1.01108079956886E+05
 cg2d: Sum(rhs),rhsMax =  -3.57823169344170E+01  2.77558425180711E+00
(PID.TID 0000.0001)  ploadbar=  1.01109210541180E+05
 cg2d: Sum(rhs),rhsMax =  -3.54551655413427E+01  2.80048898647493E+00
(PID.TID 0000.0001)  ploadbar=  1.01108598721862E+05
 cg2d: Sum(rhs),rhsMax =  -3.50995831436173E+01  2.82806183090030E+00
(PID.TID 0000.0001)  ploadbar=  1.01107986902545E+05
 cg2d: Sum(rhs),rhsMax =  -3.47216463841062E+01  2.85794730248794E+00
(PID.TID 0000.0001)  ploadbar=  1.01107375083227E+05
 cg2d: Sum(rhs),rhsMax =  -3.43359771624926E+01  2.88902867176120E+00
(PID.TID 0000.0001)  ploadbar=  1.01106763263910E+05
 cg2d: Sum(rhs),rhsMax =  -3.39427289307967E+01  2.92135433410771E+00
(PID.TID 0000.0001)  ploadbar=  1.01106151444593E+05
 cg2d: Sum(rhs),rhsMax =  -3.35511109410946E+01  2.95417664450830E+00
(PID.TID 0000.0001)  ploadbar=  1.01105539625275E+05
 cg2d: Sum(rhs),rhsMax =  -3.31878606350286E+01  2.98531259191047E+00
(PID.TID 0000.0001)  ploadbar=  1.01105070464296E+05
 cg2d: Sum(rhs),rhsMax =  -3.28650559093752E+01  3.01351354155237E+00
(PID.TID 0000.0001)  ploadbar=  1.01104601303317E+05
 cg2d: Sum(rhs),rhsMax =  -3.25815808564784E+01  3.03868622912052E+00
(PID.TID 0000.0001)  ploadbar=  1.01104132142338E+05
 cg2d: Sum(rhs),rhsMax =  -3.23375815467896E+01  3.06063521424830E+00
(PID.TID 0000.0001)  ploadbar=  1.01103662981359E+05
 cg2d: Sum(rhs),rhsMax =  -3.21303458101020E+01  3.07945440391842E+00
(PID.TID 0000.0001)  ploadbar=  1.01103193820380E+05
 cg2d: Sum(rhs),rhsMax =  -3.19551454291133E+01  3.09547100600044E+00
(PID.TID 0000.0001)  ploadbar=  1.01102724659401E+05
 cg2d: Sum(rhs),rhsMax =  -3.18051337830188E+01  3.10925827586429E+00
(PID.TID 0000.0001)  ploadbar=  1.01102248446998E+05
 cg2d: Sum(rhs),rhsMax =  -3.18468098540705E+01  3.10442758032987E+00
(PID.TID 0000.0001)  ploadbar=  1.01101772234595E+05
 cg2d: Sum(rhs),rhsMax =  -3.20526637354463E+01  3.08376776033775E+00
(PID.TID 0000.0001)  ploadbar=  1.01101296022192E+05
 cg2d: Sum(rhs),rhsMax =  -3.22613254026545E+01  3.06312955450608E+00
(PID.TID 0000.0001)  ploadbar=  1.01100819809789E+05
 cg2d: Sum(rhs),rhsMax =  -3.24718453019405E+01  3.04259347521570E+00
(PID.TID 0000.0001)  ploadbar=  1.01100343597386E+05
 cg2d: Sum(rhs),rhsMax =  -3.26835993707382E+01  3.02221629514018E+00
(PID.TID 0000.0001)  ploadbar=  1.01099867384983E+05
 cg2d: Sum(rhs),rhsMax =  -3.29044830680092E+01  3.00128743281331E+00
(PID.TID 0000.0001)  ploadbar=  1.01099539901682E+05
 cg2d: Sum(rhs),rhsMax =  -3.31290204065046E+01  2.98032477895026E+00
(PID.TID 0000.0001)  ploadbar=  1.01099212418382E+05
 cg2d: Sum(rhs),rhsMax =  -3.33559543803896E+01  2.95944323961308E+00
(PID.TID 0000.0001)  ploadbar=  1.01098884935082E+05
 cg2d: Sum(rhs),rhsMax =  -3.35880836045430E+01  2.93839194056675E+00
(PID.TID 0000.0001)  ploadbar=  1.01098557451782E+05
 cg2d: Sum(rhs),rhsMax =  -3.38261835708332E+01  2.91710720888633E+00
(PID.TID 0000.0001)  ploadbar=  1.01098229968482E+05
 cg2d: Sum(rhs),rhsMax =  -3.40695885297948E+01  2.89565470375807E+00
(PID.TID 0000.0001)  ploadbar=  1.01097902485181E+05
 cg2d: Sum(rhs),rhsMax =  -3.43167985778208E+01  2.87412515380016E+00
(PID.TID 0000.0001)  ploadbar=  1.01096837892639E+05
 cg2d: Sum(rhs),rhsMax =  -3.45686065269897E+01  2.85245707903359E+00
(PID.TID 0000.0001)  ploadbar=  1.01095773300097E+05
 cg2d: Sum(rhs),rhsMax =  -3.48279962598599E+01  2.83041136940789E+00
(PID.TID 0000.0001)  ploadbar=  1.01094708707555E+05
 cg2d: Sum(rhs),rhsMax =  -3.50965640076652E+01  2.80787198906718E+00
(PID.TID 0000.0001)  ploadbar=  1.01093644115013E+05
 cg2d: Sum(rhs),rhsMax =  -3.53765421667719E+01  2.78468736763843E+00
(PID.TID 0000.0001)  ploadbar=  1.01092579522471E+05
 cg2d: Sum(rhs),rhsMax =  -3.56698952136888E+01  2.76074357375636E+00
(PID.TID 0000.0001)  ploadbar=  1.01091514929929E+05
 cg2d: Sum(rhs),rhsMax =  -3.59704497016983E+01  2.73671726731363E+00
(PID.TID 0000.0001)  ploadbar=  1.01091819617786E+05
 cg2d: Sum(rhs),rhsMax =  -3.62807636061378E+01  2.71243028668135E+00
(PID.TID 0000.0001)  ploadbar=  1.01092124305644E+05
 cg2d: Sum(rhs),rhsMax =  -3.65983576713107E+01  2.68808396408255E+00
(PID.TID 0000.0001)  ploadbar=  1.01092428993502E+05
 cg2d: Sum(rhs),rhsMax =  -3.69214329828991E+01  2.66381237264658E+00
(PID.TID 0000.0001)  ploadbar=  1.01092733681359E+05
 cg2d: Sum(rhs),rhsMax =  -3.72470720132936E+01  2.63982795810996E+00
(PID.TID 0000.0001)  ploadbar=  1.01093038369217E+05
 cg2d: Sum(rhs),rhsMax =  -3.75737456945309E+01  2.61622630976963E+00
(PID.TID 0000.0001)  ploadbar=  1.01093343057075E+05
 cg2d: Sum(rhs),rhsMax =  -3.79004623360293E+01  2.59306881108242E+00
(PID.TID 0000.0001)  ploadbar=  1.01092413705705E+05
 cg2d: Sum(rhs),rhsMax =  -3.82294826820767E+01  2.57018682807296E+00
(PID.TID 0000.0001)  ploadbar=  1.01091484354335E+05
 cg2d: Sum(rhs),rhsMax =  -3.85662159839140E+01  2.54721175700185E+00
(PID.TID 0000.0001)  ploadbar=  1.01090555002965E+05
 cg2d: Sum(rhs),rhsMax =  -3.89186743750483E+01  2.52362987508080E+00
(PID.TID 0000.0001)  ploadbar=  1.01089625651595E+05
 cg2d: Sum(rhs),rhsMax =  -3.92853308574347E+01  2.49957754576366E+00
(PID.TID 0000.0001)  ploadbar=  1.01088696300225E+05
 cg2d: Sum(rhs),rhsMax =  -3.96614649581018E+01  2.47537913708177E+00
(PID.TID 0000.0001)  ploadbar=  1.01087766948855E+05
 cg2d: Sum(rhs),rhsMax =  -3.99835247031385E+01  2.45496534926179E+00
(PID.TID 0000.0001)  ploadbar=  1.01085888696090E+05
 cg2d: Sum(rhs),rhsMax =  -4.02462324068128E+01  2.43847712244383E+00
(PID.TID 0000.0001)  ploadbar=  1.01084010443325E+05
 cg2d: Sum(rhs),rhsMax =  -4.04958993146333E+01  2.42298446505859E+00
(PID.TID 0000.0001)  ploadbar=  1.01082132190560E+05
 cg2d: Sum(rhs),rhsMax =  -4.07480504283641E+01  2.40752486804826E+00
(PID.TID 0000.0001)  ploadbar=  1.01080253937795E+05
 cg2d: Sum(rhs),rhsMax =  -4.10071589358528E+01  2.39182710351032E+00
(PID.TID 0000.0001)  ploadbar=  1.01078375685030E+05
 cg2d: Sum(rhs),rhsMax =  -4.12726625053756E+01  2.37593035640441E+00
(PID.TID 0000.0001)  ploadbar=  1.01076497432265E+05
 cg2d: Sum(rhs),rhsMax =  -4.15337646126754E+01  2.36043778947062E+00
(PID.TID 0000.0001)  ploadbar=  1.01075491137783E+05
 cg2d: Sum(rhs),rhsMax =  -4.17948839443058E+01  2.34508523749435E+00
(PID.TID 0000.0001)  ploadbar=  1.01074484843301E+05
 cg2d: Sum(rhs),rhsMax =  -4.20534719813899E+01  2.33000292402425E+00
(PID.TID 0000.0001)  ploadbar=  1.01073478548819E+05
 cg2d: Sum(rhs),rhsMax =  -4.23051480607391E+01  2.31540706533203E+00
(PID.TID 0000.0001)  ploadbar=  1.01072472254337E+05
 cg2d: Sum(rhs),rhsMax =  -4.25425820265213E+01  2.30166732135872E+00
(PID.TID 0000.0001)  ploadbar=  1.01071465959855E+05
 cg2d: Sum(rhs),rhsMax =  -4.27576811836788E+01  2.28918561074629E+00
(PID.TID 0000.0001)  ploadbar=  1.01070459665373E+05
 cg2d: Sum(rhs),rhsMax =  -4.29398612070962E+01  2.27866766958510E+00
(PID.TID 0000.0001)  ploadbar=  1.01070341059394E+05
 cg2d: Sum(rhs),rhsMax =  -4.30934345922262E+01  2.26983357531128E+00
(PID.TID 0000.0001)  ploadbar=  1.01070222453415E+05
 cg2d: Sum(rhs),rhsMax =  -4.32230615401057E+01  2.26239586143127E+00
(PID.TID 0000.0001)  ploadbar=  1.01070103847437E+05
 cg2d: Sum(rhs),rhsMax =  -4.33338049920842E+01  2.25605788992824E+00
(PID.TID 0000.0001)  ploadbar=  1.01069985241458E+05
 cg2d: Sum(rhs),rhsMax =  -4.34329780047577E+01  2.25041551056386E+00
(PID.TID 0000.0001)  ploadbar=  1.01069866635479E+05
 cg2d: Sum(rhs),rhsMax =  -4.35262000444274E+01  2.24516162419582E+00
(PID.TID 0000.0001)  ploadbar=  1.01069748029501E+05
 cg2d: Sum(rhs),rhsMax =  -4.36203227000696E+01  2.23993053648453E+00
(PID.TID 0000.0001)  ploadbar=  1.01068796806073E+05
 cg2d: Sum(rhs),rhsMax =  -4.37220511560508E+01  2.23437239701123E+00
(PID.TID 0000.0001)  ploadbar=  1.01067845582645E+05
 cg2d: Sum(rhs),rhsMax =  -4.38556101439749E+01  2.22725297076763E+00
(PID.TID 0000.0001)  ploadbar=  1.01066894359216E+05
 cg2d: Sum(rhs),rhsMax =  -4.40212401624365E+01  2.21858472021478E+00
(PID.TID 0000.0001)  ploadbar=  1.01065943135788E+05
 cg2d: Sum(rhs),rhsMax =  -4.42215746445147E+01  2.20826750841306E+00
(PID.TID 0000.0001)  ploadbar=  1.01064991912360E+05
 cg2d: Sum(rhs),rhsMax =  -4.44606928466747E+01  2.19614099754492E+00
(PID.TID 0000.0001)  ploadbar=  1.01064040688932E+05
 cg2d: Sum(rhs),rhsMax =  -4.47353562209602E+01  2.18241486901007E+00
(PID.TID 0000.0001)  ploadbar=  1.01063322732117E+05
 cg2d: Sum(rhs),rhsMax =  -4.50176818429313E+01  2.16848575158643E+00
(PID.TID 0000.0001)  ploadbar=  1.01062604775303E+05
 cg2d: Sum(rhs),rhsMax =  -4.53117490376595E+01  2.15416583612774E+00
(PID.TID 0000.0001)  ploadbar=  1.01061886818488E+05
 cg2d: Sum(rhs),rhsMax =  -4.56213212789019E+01  2.13928489690682E+00
(PID.TID 0000.0001)  ploadbar=  1.01061168861673E+05
 cg2d: Sum(rhs),rhsMax =  -4.59507930261914E+01  2.12365820852476E+00
(PID.TID 0000.0001)  ploadbar=  1.01060450904858E+05
 cg2d: Sum(rhs),rhsMax =  -4.63077689134244E+01  2.10696452149068E+00
(PID.TID 0000.0001)  ploadbar=  1.01059732948043E+05
 cg2d: Sum(rhs),rhsMax =  -4.66922813615933E+01  2.08926073581412E+00
(PID.TID 0000.0001)  ploadbar=  1.01058900309908E+05
 cg2d: Sum(rhs),rhsMax =  -4.70948234986148E+01  2.07101793955845E+00
(PID.TID 0000.0001)  ploadbar=  1.01058067671773E+05
 cg2d: Sum(rhs),rhsMax =  -4.75350661107780E+01  2.05141013598736E+00
(PID.TID 0000.0001)  ploadbar=  1.01057235033638E+05
 cg2d: Sum(rhs),rhsMax =  -4.78317065795273E+01  2.03820474951230E+00
(PID.TID 0000.0001)  ploadbar=  1.01056402395502E+05
 cg2d: Sum(rhs),rhsMax =  -4.76959639168366E+01  2.04345288421058E+00
(PID.TID 0000.0001)  ploadbar=  1.01055569757367E+05
 cg2d: Sum(rhs),rhsMax =  -4.75577470756574E+01  2.04876447015774E+00
(PID.TID 0000.0001)  ploadbar=  1.01054737119232E+05
 cg2d: Sum(rhs),rhsMax =  -4.74231158294112E+01  2.05400220512267E+00
(PID.TID 0000.0001)  ploadbar=  1.01054914790028E+05
 cg2d: Sum(rhs),rhsMax =  -4.72914443993440E+01  2.05918663342595E+00
(PID.TID 0000.0001)  ploadbar=  1.01055092460824E+05
 cg2d: Sum(rhs),rhsMax =  -4.71610107609136E+01  2.06438487631952E+00
(PID.TID 0000.0001)  ploadbar=  1.01055270131619E+05
 cg2d: Sum(rhs),rhsMax =  -4.70333254012142E+01  2.06952738992035E+00
(PID.TID 0000.0001)  ploadbar=  1.01055447802415E+05
 cg2d: Sum(rhs),rhsMax =  -4.69093681682053E+01  2.07456116484172E+00
(PID.TID 0000.0001)  ploadbar=  1.01055625473211E+05
 cg2d: Sum(rhs),rhsMax =  -4.67903255027662E+01  2.07942481844982E+00
(PID.TID 0000.0001)  ploadbar=  1.01055803144007E+05
 cg2d: Sum(rhs),rhsMax =  -4.66846915596026E+01  2.08371806018177E+00
(PID.TID 0000.0001)  ploadbar=  1.01056500444550E+05
 cg2d: Sum(rhs),rhsMax =  -4.65842502449537E+01  2.08779530533085E+00
(PID.TID 0000.0001)  ploadbar=  1.01057197745093E+05
 cg2d: Sum(rhs),rhsMax =  -4.64925313221228E+01  2.09148969728074E+00
(PID.TID 0000.0001)  ploadbar=  1.01057895045636E+05
 cg2d: Sum(rhs),rhsMax =  -4.64107159841142E+01  2.09473786576317E+00
(PID.TID 0000.0001)  ploadbar=  1.01058592346180E+05
 cg2d: Sum(rhs),rhsMax =  -4.63385548614270E+01  2.09754071663114E+00
(PID.TID 0000.0001)  ploadbar=  1.01059289646723E+05
 cg2d: Sum(rhs),rhsMax =  -4.62766941759148E+01  2.09985918521893E+00
(PID.TID 0000.0001)  ploadbar=  1.01059986947266E+05
 cg2d: Sum(rhs),rhsMax =  -4.62340218503379E+01  2.10133325987246E+00
(PID.TID 0000.0001)  ploadbar=  1.01061471055024E+05
 cg2d: Sum(rhs),rhsMax =  -4.62072797381354E+01  2.10210137031641E+00
(PID.TID 0000.0001)  ploadbar=  1.01062955162781E+05
 cg2d: Sum(rhs),rhsMax =  -4.61931924932436E+01  2.10230250200366E+00
(PID.TID 0000.0001)  ploadbar=  1.01064439270539E+05
 cg2d: Sum(rhs),rhsMax =  -4.61924442578101E+01  2.10189395976604E+00
(PID.TID 0000.0001)  ploadbar=  1.01065923378296E+05
 cg2d: Sum(rhs),rhsMax =  -4.62051261843838E+01  2.10086096564655E+00
(PID.TID 0000.0001)  ploadbar=  1.01067407486054E+05
 cg2d: Sum(rhs),rhsMax =  -4.62301631325284E+01  2.09924583350537E+00
(PID.TID 0000.0001)  ploadbar=  1.01068891593811E+05
 cg2d: Sum(rhs),rhsMax =  -4.62690961266893E+01  2.09697924089719E+00
(PID.TID 0000.0001)  ploadbar=  1.01068692750907E+05
 cg2d: Sum(rhs),rhsMax =  -4.63191730896371E+01  2.09417726861370E+00
(PID.TID 0000.0001)  ploadbar=  1.01068493908002E+05
 cg2d: Sum(rhs),rhsMax =  -4.63748641617427E+01  2.09108897479497E+00
(PID.TID 0000.0001)  ploadbar=  1.01068295065098E+05
 cg2d: Sum(rhs),rhsMax =  -4.64352247362464E+01  2.08775293603791E+00
(PID.TID 0000.0001)  ploadbar=  1.01068096222193E+05
 cg2d: Sum(rhs),rhsMax =  -4.65001805683048E+01  2.08416802334455E+00
(PID.TID 0000.0001)  ploadbar=  1.01067897379289E+05
 cg2d: Sum(rhs),rhsMax =  -4.65689549718975E+01  2.08036685842582E+00
(PID.TID 0000.0001)  ploadbar=  1.01067698536384E+05
 cg2d: Sum(rhs),rhsMax =  -4.66410267065225E+01  2.07651466515068E+00
(PID.TID 0000.0001)  ploadbar=  1.01068368803043E+05
 cg2d: Sum(rhs),rhsMax =  -4.67223717308091E+01  2.07234461453131E+00
(PID.TID 0000.0001)  ploadbar=  1.01069039069702E+05
 cg2d: Sum(rhs),rhsMax =  -4.68087988762914E+01  2.06804167341465E+00
(PID.TID 0000.0001)  ploadbar=  1.01069709336361E+05
 cg2d: Sum(rhs),rhsMax =  -4.68994252246831E+01  2.06364401998630E+00
(PID.TID 0000.0001)  ploadbar=  1.01070379603020E+05
 cg2d: Sum(rhs),rhsMax =  -4.69945867563865E+01  2.05912802804079E+00
(PID.TID 0000.0001)  ploadbar=  1.01071049869679E+05
 cg2d: Sum(rhs),rhsMax =  -4.70943040627173E+01  2.05448946720112E+00
(PID.TID 0000.0001)  ploadbar=  1.01071720136338E+05
 cg2d: Sum(rhs),rhsMax =  -4.71848027799871E+01  2.05031666782228E+00
(PID.TID 0000.0001)  ploadbar=  1.01072942513307E+05
 cg2d: Sum(rhs),rhsMax =  -4.72799750041097E+01  2.04600050506706E+00
(PID.TID 0000.0001)  ploadbar=  1.01074164890276E+05
 cg2d: Sum(rhs),rhsMax =  -4.73814546531192E+01  2.04146767308364E+00
(PID.TID 0000.0001)  ploadbar=  1.01075387267245E+05
 cg2d: Sum(rhs),rhsMax =  -4.74871349263895E+01  2.03680438296899E+00
(PID.TID 0000.0001)  ploadbar=  1.01076609644214E+05
 cg2d: Sum(rhs),rhsMax =  -4.75964298930461E+01  2.03202969960756E+00
(PID.TID 0000.0001)  ploadbar=  1.01077832021183E+05
 cg2d: Sum(rhs),rhsMax =  -4.77092272577709E+01  2.02713889946956E+00
(PID.TID 0000.0001)  ploadbar=  1.01079054398153E+05
 cg2d: Sum(rhs),rhsMax =  -4.78267371844323E+01  2.02205043045205E+00
(PID.TID 0000.0001)  ploadbar=  1.01078975715657E+05
 cg2d: Sum(rhs),rhsMax =  -4.79474897239270E+01  2.01682456423729E+00
(PID.TID 0000.0001)  ploadbar=  1.01078897033161E+05
 cg2d: Sum(rhs),rhsMax =  -4.80722827322810E+01  2.01142438386222E+00
(PID.TID 0000.0001)  ploadbar=  1.01078818350665E+05
 cg2d: Sum(rhs),rhsMax =  -4.81987626252620E+01  2.00594592770192E+00
(PID.TID 0000.0001)  ploadbar=  1.01078739668169E+05
 cg2d: Sum(rhs),rhsMax =  -4.83249569201148E+01  2.00046593483377E+00
(PID.TID 0000.0001)  ploadbar=  1.01078660985673E+05
 cg2d: Sum(rhs),rhsMax =  -4.84496101317263E+01  1.99503008869603E+00
(PID.TID 0000.0001)  ploadbar=  1.01078582303177E+05
 cg2d: Sum(rhs),rhsMax =  -4.85717287124309E+01  1.98968396519044E+00
(PID.TID 0000.0001)  ploadbar=  1.01078540943981E+05
 cg2d: Sum(rhs),rhsMax =  -4.86926393545947E+01  1.98436552841362E+00
(PID.TID 0000.0001)  ploadbar=  1.01078499584785E+05
 cg2d: Sum(rhs),rhsMax =  -4.88126349821271E+01  1.97905786771505E+00
(PID.TID 0000.0001)  ploadbar=  1.01078458225589E+05
 cg2d: Sum(rhs),rhsMax =  -4.89312181574343E+01  1.97377850978576E+00
(PID.TID 0000.0001)  ploadbar=  1.01078416866393E+05
 cg2d: Sum(rhs),rhsMax =  -4.90474755709166E+01  1.96856101686288E+00
(PID.TID 0000.0001)  ploadbar=  1.01078375507197E+05
 cg2d: Sum(rhs),rhsMax =  -4.91607110291304E+01  1.96342935277598E+00
(PID.TID 0000.0001)  ploadbar=  1.01078334148001E+05
 cg2d: Sum(rhs),rhsMax =  -4.92823618598200E+01  1.95808028624186E+00
(PID.TID 0000.0001)  ploadbar=  1.01079350392767E+05
 cg2d: Sum(rhs),rhsMax =  -4.94026518972421E+01  1.95290087160917E+00
(PID.TID 0000.0001)  ploadbar=  1.01080366637532E+05
 cg2d: Sum(rhs),rhsMax =  -4.95212610916797E+01  1.94789808930872E+00
(PID.TID 0000.0001)  ploadbar=  1.01081382882298E+05
 cg2d: Sum(rhs),rhsMax =  -4.96399035083122E+01  1.94299996985347E+00
(PID.TID 0000.0001)  ploadbar=  1.01082399127064E+05
 cg2d: Sum(rhs),rhsMax =  -4.97585959305152E+01  1.93819988060911E+00
(PID.TID 0000.0001)  ploadbar=  1.01083415371829E+05
 cg2d: Sum(rhs),rhsMax =  -4.98767279414457E+01  1.93351422202502E+00
(PID.TID 0000.0001)  ploadbar=  1.01084431616595E+05
 cg2d: Sum(rhs),rhsMax =  -4.99970810030629E+01  1.92878649620088E+00
(PID.TID 0000.0001)  ploadbar=  1.01084421160623E+05
 cg2d: Sum(rhs),rhsMax =  -5.01168201092076E+01  1.92412323853574E+00
(PID.TID 0000.0001)  ploadbar=  1.01084410704651E+05
 cg2d: Sum(rhs),rhsMax =  -5.02321317945016E+01  1.91966627751590E+00
(PID.TID 0000.0001)  ploadbar=  1.01084400248679E+05
 cg2d: Sum(rhs),rhsMax =  -5.03449442402887E+01  1.91533232801825E+00
(PID.TID 0000.0001)  ploadbar=  1.01084389792707E+05
 cg2d: Sum(rhs),rhsMax =  -5.04574994784834E+01  1.91103191546783E+00
(PID.TID 0000.0001)  ploadbar=  1.01084379336735E+05
 cg2d: Sum(rhs),rhsMax =  -5.05701840963860E+01  1.90674529187444E+00
(PID.TID 0000.0001)  ploadbar=  1.01084368880763E+05
 cg2d: Sum(rhs),rhsMax =  -5.06802498633987E+01  1.90256123908076E+00
(PID.TID 0000.0001)  ploadbar=  1.01084777539960E+05
 cg2d: Sum(rhs),rhsMax =  -5.07903152539403E+01  1.89837672384203E+00
(PID.TID 0000.0001)  ploadbar=  1.01085186199157E+05
 cg2d: Sum(rhs),rhsMax =  -5.08979734792573E+01  1.89427881441708E+00
(PID.TID 0000.0001)  ploadbar=  1.01085594858354E+05
 cg2d: Sum(rhs),rhsMax =  -5.10028262171382E+01  1.89027822165789E+00
(PID.TID 0000.0001)  ploadbar=  1.01086003517551E+05
 cg2d: Sum(rhs),rhsMax =  -5.11045064396684E+01  1.88638197353836E+00
(PID.TID 0000.0001)  ploadbar=  1.01086412176749E+05
 cg2d: Sum(rhs),rhsMax =  -5.12027449904469E+01  1.88259517110403E+00
(PID.TID 0000.0001)  ploadbar=  1.01086820835946E+05
 cg2d: Sum(rhs),rhsMax =  -5.12968746157482E+01  1.87891926271785E+00
(PID.TID 0000.0001)  ploadbar=  1.01086353845880E+05
 cg2d: Sum(rhs),rhsMax =  -5.13886535522640E+01  1.87528621700217E+00
(PID.TID 0000.0001)  ploadbar=  1.01085886855814E+05
 cg2d: Sum(rhs),rhsMax =  -5.14774501615591E+01  1.87171630321482E+00
(PID.TID 0000.0001)  ploadbar=  1.01085419865749E+05
 cg2d: Sum(rhs),rhsMax =  -5.15631664516904E+01  1.86820714009734E+00
(PID.TID 0000.0001)  ploadbar=  1.01084952875683E+05
 cg2d: Sum(rhs),rhsMax =  -5.16410759725745E+01  1.86492290875442E+00
(PID.TID 0000.0001)  ploadbar=  1.01084485885617E+05
 cg2d: Sum(rhs),rhsMax =  -5.17072195434691E+01  1.86200252261932E+00
(PID.TID 0000.0001)  ploadbar=  1.01084018895551E+05
 cg2d: Sum(rhs),rhsMax =  -5.17687444680633E+01  1.85933820150632E+00
(PID.TID 0000.0001)  ploadbar=  1.01082179717137E+05
 cg2d: Sum(rhs),rhsMax =  -5.18212540116803E+01  1.85707967023311E+00
(PID.TID 0000.0001)  ploadbar=  1.01080340538722E+05
 cg2d: Sum(rhs),rhsMax =  -5.18684221655697E+01  1.85508674492316E+00
(PID.TID 0000.0001)  ploadbar=  1.01078501360308E+05
 cg2d: Sum(rhs),rhsMax =  -5.19120260555292E+01  1.85328977598314E+00
(PID.TID 0000.0001)  ploadbar=  1.01076662181893E+05
 cg2d: Sum(rhs),rhsMax =  -5.19521643938141E+01  1.85168127717622E+00
(PID.TID 0000.0001)  ploadbar=  1.01074823003479E+05
 cg2d: Sum(rhs),rhsMax =  -5.19892202020995E+01  1.85024408233082E+00
(PID.TID 0000.0001)  ploadbar=  1.01072983825064E+05
 cg2d: Sum(rhs),rhsMax =  -5.20184250284944E+01  1.84910976771270E+00
(PID.TID 0000.0001)  ploadbar=  1.01071853264084E+05
 cg2d: Sum(rhs),rhsMax =  -5.20398474863896E+01  1.84827072309416E+00
(PID.TID 0000.0001)  ploadbar=  1.01070722703104E+05
 cg2d: Sum(rhs),rhsMax =  -5.20522843407261E+01  1.84776539298130E+00
(PID.TID 0000.0001)  ploadbar=  1.01069592142123E+05
 cg2d: Sum(rhs),rhsMax =  -5.20563499202591E+01  1.84756755659247E+00
(PID.TID 0000.0001)  ploadbar=  1.01068461581143E+05
 cg2d: Sum(rhs),rhsMax =  -5.20524266284311E+01  1.84765853413838E+00
(PID.TID 0000.0001)  ploadbar=  1.01067331020163E+05
 cg2d: Sum(rhs),rhsMax =  -5.20406526589438E+01  1.84803070795397E+00
(PID.TID 0000.0001)  ploadbar=  1.01066200459182E+05
 cg2d: Sum(rhs),rhsMax =  -5.20159289538266E+01  1.84886421121400E+00
(PID.TID 0000.0001)  ploadbar=  1.01066924826054E+05
 cg2d: Sum(rhs),rhsMax =  -5.19824945708917E+01  1.85000620189480E+00
(PID.TID 0000.0001)  ploadbar=  1.01067649192925E+05
 cg2d: Sum(rhs),rhsMax =  -5.19378230383661E+01  1.85154234473752E+00
(PID.TID 0000.0001)  ploadbar=  1.01068373559797E+05
 cg2d: Sum(rhs),rhsMax =  -5.18810665813942E+01  1.85349920598656E+00
(PID.TID 0000.0001)  ploadbar=  1.01069097926669E+05
 cg2d: Sum(rhs),rhsMax =  -5.18119811437506E+01  1.85588239626702E+00
(PID.TID 0000.0001)  ploadbar=  1.01069822293540E+05
 cg2d: Sum(rhs),rhsMax =  -5.17308050771815E+01  1.85868118602687E+00
(PID.TID 0000.0001)  ploadbar=  1.01070546660412E+05
 cg2d: Sum(rhs),rhsMax =  -5.16458645899818E+01  1.86158197842496E+00
(PID.TID 0000.0001)  ploadbar=  1.01069638644633E+05
 cg2d: Sum(rhs),rhsMax =  -5.15550489978675E+01  1.86465904344509E+00
(PID.TID 0000.0001)  ploadbar=  1.01068730628854E+05
 cg2d: Sum(rhs),rhsMax =  -5.14580298962431E+01  1.86791929343664E+00
(PID.TID 0000.0001)  ploadbar=  1.01067822613075E+05
 cg2d: Sum(rhs),rhsMax =  -5.13600412992367E+01  1.87116849426572E+00
(PID.TID 0000.0001)  ploadbar=  1.01066914597296E+05
 cg2d: Sum(rhs),rhsMax =  -5.12649653697845E+01  1.87426251153413E+00
(PID.TID 0000.0001)  ploadbar=  1.01066006581517E+05
 cg2d: Sum(rhs),rhsMax =  -5.11743096817233E+01  1.87713794044478E+00
(PID.TID 0000.0001)  ploadbar=  1.01065098565738E+05
 cg2d: Sum(rhs),rhsMax =  -5.10729327318591E+01  1.88046796746789E+00
(PID.TID 0000.0001)  ploadbar=  1.01064009867662E+05
 cg2d: Sum(rhs),rhsMax =  -5.09700899121365E+01  1.88390846690157E+00
(PID.TID 0000.0001)  ploadbar=  1.01062921169586E+05
 cg2d: Sum(rhs),rhsMax =  -5.08675848665779E+01  1.88738841844152E+00
(PID.TID 0000.0001)  ploadbar=  1.01061832471511E+05
 cg2d: Sum(rhs),rhsMax =  -5.07601414314216E+01  1.89109877505519E+00
(PID.TID 0000.0001)  ploadbar=  1.01060743773435E+05
 cg2d: Sum(rhs),rhsMax =  -5.06443339782276E+01  1.89516418600504E+00
(PID.TID 0000.0001)  ploadbar=  1.01059655075359E+05
 cg2d: Sum(rhs),rhsMax =  -5.05182537016486E+01  1.89965332073246E+00
(PID.TID 0000.0001)  ploadbar=  1.01058566377283E+05
 cg2d: Sum(rhs),rhsMax =  -5.03721094186530E+01  1.90489301911456E+00
(PID.TID 0000.0001)  ploadbar=  1.01059428007307E+05
 cg2d: Sum(rhs),rhsMax =  -5.02170424618079E+01  1.91046629799322E+00
(PID.TID 0000.0001)  ploadbar=  1.01060289637331E+05
 cg2d: Sum(rhs),rhsMax =  -5.00492767006503E+01  1.91652091158673E+00
(PID.TID 0000.0001)  ploadbar=  1.01061151267355E+05
 cg2d: Sum(rhs),rhsMax =  -4.98674960409086E+01  1.92311061457996E+00
(PID.TID 0000.0001)  ploadbar=  1.01062012897379E+05
 cg2d: Sum(rhs),rhsMax =  -4.96741510457407E+01  1.93014813644572E+00
(PID.TID 0000.0001)  ploadbar=  1.01062874527403E+05
 cg2d: Sum(rhs),rhsMax =  -4.94713247420961E+01  1.93755677140594E+00
(PID.TID 0000.0001)  ploadbar=  1.01063736157427E+05
 cg2d: Sum(rhs),rhsMax =  -4.92323582026830E+01  1.94646744737322E+00
(PID.TID 0000.0001)  ploadbar=  1.01065331110463E+05
 cg2d: Sum(rhs),rhsMax =  -4.89876357794358E+01  1.95570558384585E+00
(PID.TID 0000.0001)  ploadbar=  1.01066926063499E+05
 cg2d: Sum(rhs),rhsMax =  -4.87564205230484E+01  1.96449945344063E+00
(PID.TID 0000.0001)  ploadbar=  1.01068521016535E+05
 cg2d: Sum(rhs),rhsMax =  -4.85476324704269E+01  1.97246611403471E+00
(PID.TID 0000.0001)  ploadbar=  1.01070115969571E+05
 cg2d: Sum(rhs),rhsMax =  -4.83788356766582E+01  1.97885748101000E+00
(PID.TID 0000.0001)  ploadbar=  1.01071710922607E+05
 cg2d: Sum(rhs),rhsMax =  -4.82670936060248E+01  1.98293270854407E+00
(PID.TID 0000.0001)  ploadbar=  1.01073305875643E+05
 cg2d: Sum(rhs),rhsMax =  -4.82848818778650E+01  1.98163516483475E+00
(PID.TID 0000.0001)  ploadbar=  1.01073857102402E+05
 cg2d: Sum(rhs),rhsMax =  -4.83574767360343E+01  1.97803445571654E+00
(PID.TID 0000.0001)  ploadbar=  1.01074408329161E+05
 cg2d: Sum(rhs),rhsMax =  -4.84827393623011E+01  1.97223840697663E+00
(PID.TID 0000.0001)  ploadbar=  1.01074959555920E+05
 cg2d: Sum(rhs),rhsMax =  -4.86506720482443E+01  1.96468423040518E+00
(PID.TID 0000.0001)  ploadbar=  1.01075510782680E+05
 cg2d: Sum(rhs),rhsMax =  -4.88615672362241E+01  1.95539557059385E+00
(PID.TID 0000.0001)  ploadbar=  1.01076062009439E+05
 cg2d: Sum(rhs),rhsMax =  -4.91181704731566E+01  1.94430739402542E+00
(PID.TID 0000.0001)  ploadbar=  1.01076613236198E+05
 cg2d: Sum(rhs),rhsMax =  -4.94385322116676E+01  1.93092637475141E+00
(PID.TID 0000.0001)  ploadbar=  1.01077637433040E+05
 cg2d: Sum(rhs),rhsMax =  -4.97677515993717E+01  1.91745547452811E+00
(PID.TID 0000.0001)  ploadbar=  1.01078661629883E+05
 cg2d: Sum(rhs),rhsMax =  -5.00884503077182E+01  1.90456163117558E+00
(PID.TID 0000.0001)  ploadbar=  1.01079685826725E+05
 cg2d: Sum(rhs),rhsMax =  -5.03949170852114E+01  1.89243859040962E+00
(PID.TID 0000.0001)  ploadbar=  1.01080710023567E+05
 cg2d: Sum(rhs),rhsMax =  -5.06784700678269E+01  1.88137848580397E+00
(PID.TID 0000.0001)  ploadbar=  1.01081734220409E+05
 cg2d: Sum(rhs),rhsMax =  -5.09374932236134E+01  1.87140507937572E+00
(PID.TID 0000.0001)  ploadbar=  1.01082758417252E+05
 cg2d: Sum(rhs),rhsMax =  -5.11462408531176E+01  1.86336685496789E+00
(PID.TID 0000.0001)  ploadbar=  1.01083109795349E+05
 cg2d: Sum(rhs),rhsMax =  -5.13454835175323E+01  1.85574086625863E+00
(PID.TID 0000.0001)      cg2d_init_res =   1.80368599531807E-01
(PID.TID 0000.0001)      cg2d_iters(min,last) =      -1     132
(PID.TID 0000.0001)      cg2d_last_res =   9.47912237157099E-08
(PID.TID 0000.0001) // =======================================================
(PID.TID 0000.0001) // Begin MONITOR dynamic field statistics
(PID.TID 0000.0001) // =======================================================
(PID.TID 0000.0001) %MON time_tsnumber                =                 10512
(PID.TID 0000.0001) %MON time_secondsf                =   3.7843200000000E+07
(PID.TID 0000.0001) %MON dynstat_eta_max              =   1.0910276657325E+00
(PID.TID 0000.0001) %MON dynstat_eta_min              =  -6.6679116541902E+00
(PID.TID 0000.0001) %MON dynstat_eta_mean             =   4.8226151281954E-02
(PID.TID 0000.0001) %MON dynstat_eta_sd               =   7.4796211555015E-01
(PID.TID 0000.0001) %MON dynstat_eta_del2             =   2.1296946520719E-04
(PID.TID 0000.0001) %MON dynstat_uvel_max             =   1.3065236810019E+00
(PID.TID 0000.0001) %MON dynstat_uvel_min             =  -7.9641929623343E-01
(PID.TID 0000.0001) %MON dynstat_uvel_mean            =   1.4378884458537E-03
(PID.TID 0000.0001) %MON dynstat_uvel_sd              =   2.0985687421003E-02
(PID.TID 0000.0001) %MON dynstat_uvel_del2            =   9.0620071452031E-06
(PID.TID 0000.0001) %MON dynstat_vvel_max             =   1.1682913027548E+00
(PID.TID 0000.0001) %MON dynstat_vvel_min             =  -9.3635185477415E-01
(PID.TID 0000.0001) %MON dynstat_vvel_mean            =   1.1496125168781E-03
(PID.TID 0000.0001) %MON dynstat_vvel_sd              =   2.2056689404358E-02
(PID.TID 0000.0001) %MON dynstat_vvel_del2            =   9.3119354709724E-06
(PID.TID 0000.0001) %MON dynstat_wvel_max             =   4.8206262283402E-04
(PID.TID 0000.0001) %MON dynstat_wvel_min             =  -1.0081918300764E-03
(PID.TID 0000.0001) %MON dynstat_wvel_mean            =   1.4295906188914E-08
(PID.TID 0000.0001) %MON dynstat_wvel_sd              =   2.3208375397621E-05
(PID.TID 0000.0001) %MON dynstat_wvel_del2            =   1.7521862518303E-08
(PID.TID 0000.0001) %MON dynstat_theta_max            =   3.0908787216564E+01
(PID.TID 0000.0001) %MON dynstat_theta_min            =  -1.9726910196796E+00
(PID.TID 0000.0001) %MON dynstat_theta_mean           =   3.5858227745195E+00
(PID.TID 0000.0001) %MON dynstat_theta_sd             =   4.4348685547168E+00
(PID.TID 0000.0001) %MON dynstat_theta_del2           =   8.9377121845039E-05
(PID.TID 0000.0001) %MON dynstat_salt_max             =   4.0645378628402E+01
(PID.TID 0000.0001) %MON dynstat_salt_min             =   2.4774070989587E+01
(PID.TID 0000.0001) %MON dynstat_salt_mean            =   3.4727188802310E+01
(PID.TID 0000.0001) %MON dynstat_salt_sd              =   3.7614330349832E-01
(PID.TID 0000.0001) %MON dynstat_salt_del2            =   1.9866076350953E-05
(PID.TID 0000.0001) %MON dynstat_sst_max              =   3.0908787216564E+01
(PID.TID 0000.0001) %MON dynstat_sst_min              =  -1.9606697709482E+00
(PID.TID 0000.0001) %MON dynstat_sst_mean             =   1.8427462883885E+01
(PID.TID 0000.0001) %MON dynstat_sst_sd               =   1.0180498697378E+01
(PID.TID 0000.0001) %MON dynstat_sst_del2             =   6.7581433307299E-04
(PID.TID 0000.0001) %MON dynstat_sss_max              =   3.9933674153649E+01
(PID.TID 0000.0001) %MON dynstat_sss_min              =   2.4774070989587E+01
(PID.TID 0000.0001) %MON dynstat_sss_mean             =   3.4754604426455E+01
(PID.TID 0000.0001) %MON dynstat_sss_sd               =   1.1591518723175E+00
(PID.TID 0000.0001) %MON dynstat_sss_del2             =   3.1160867835484E-04
(PID.TID 0000.0001) %MON forcing_qnet_max             =   1.6187764454514E+03
(PID.TID 0000.0001) %MON forcing_qnet_min             =  -5.7976106197381E+02
(PID.TID 0000.0001) %MON forcing_qnet_mean            =   1.6963715639601E+01
(PID.TID 0000.0001) %MON forcing_qnet_sd              =   2.0025821257147E+02
(PID.TID 0000.0001) %MON forcing_qnet_del2            =   1.0539417572224E-01
(PID.TID 0000.0001) %MON forcing_qsw_max              =   6.0419003321913E+01
(PID.TID 0000.0001) %MON forcing_qsw_min              =  -6.3871023562478E+02
(PID.TID 0000.0001) %MON forcing_qsw_mean             =  -1.4833962223788E+02
(PID.TID 0000.0001) %MON forcing_qsw_sd               =   1.6475191127447E+02
(PID.TID 0000.0001) %MON forcing_qsw_del2             =   5.1736523891133E-02
(PID.TID 0000.0001) %MON forcing_empmr_max            =   1.4182516626823E-03
(PID.TID 0000.0001) %MON forcing_empmr_min            =  -4.2998305279962E-03
(PID.TID 0000.0001) %MON forcing_empmr_mean           =   2.9364798171596E-06
(PID.TID 0000.0001) %MON forcing_empmr_sd             =   1.0396395923907E-04
(PID.TID 0000.0001) %MON forcing_empmr_del2           =   2.8208129229325E-07
(PID.TID 0000.0001) %MON forcing_fu_max               =   1.2855952599018E+00
(PID.TID 0000.0001) %MON forcing_fu_min               =  -1.4368111093839E+00
(PID.TID 0000.0001) %MON forcing_fu_mean              =   1.1801028977238E-02
(PID.TID 0000.0001) %MON forcing_fu_sd                =   1.3840648346111E-01
(PID.TID 0000.0001) %MON forcing_fu_del2              =   7.4670234131600E-05
(PID.TID 0000.0001) %MON forcing_fv_max               =   1.7922726074855E+00
(PID.TID 0000.0001) %MON forcing_fv_min               =  -1.3469048854749E+00
(PID.TID 0000.0001) %MON forcing_fv_mean              =   4.2621496927107E-03
(PID.TID 0000.0001) %MON forcing_fv_sd                =   1.4370877639976E-01
(PID.TID 0000.0001) %MON forcing_fv_del2              =   8.0013197896455E-05
(PID.TID 0000.0001) %MON trAdv_CFL_u_max              =   5.3760576327267E-02
(PID.TID 0000.0001) %MON trAdv_CFL_v_max              =   6.0465960581804E-02
(PID.TID 0000.0001) %MON trAdv_CFL_w_max              =   1.6704746328152E-01
(PID.TID 0000.0001) %MON advcfl_uvel_max              =   5.6960848743790E-02
(PID.TID 0000.0001) %MON advcfl_vvel_max              =   5.4933679768316E-02
(PID.TID 0000.0001) %MON advcfl_wvel_max              =   1.6853507089307E-01
(PID.TID 0000.0001) %MON advcfl_W_hf_max              =   1.7031307277834E-01
(PID.TID 0000.0001) %MON pe_b_mean                    =   1.6063486032697E-03
(PID.TID 0000.0001) %MON ke_max                       =   8.4064341474293E-01
(PID.TID 0000.0001) %MON ke_mean                      =   4.4857932736608E-04
(PID.TID 0000.0001) %MON ke_vol                       =   1.3350151462479E+18
(PID.TID 0000.0001) %MON vort_r_min                   =  -2.9412014951416E-05
(PID.TID 0000.0001) %MON vort_r_max                   =   1.6968040307410E-05
(PID.TID 0000.0001) %MON vort_a_mean                  =  -1.9727725668894E-05
(PID.TID 0000.0001) %MON vort_a_sd                    =   7.4543022083862E-05
(PID.TID 0000.0001) %MON vort_p_mean                  =  -2.1760044157751E-05
(PID.TID 0000.0001) %MON vort_p_sd                    =   9.7244104939770E-05
(PID.TID 0000.0001) %MON surfExpan_theta_mean         =   2.1814796175940E-07
(PID.TID 0000.0001) %MON surfExpan_salt_mean          =   1.4070294336826E-08
(PID.TID 0000.0001) // =======================================================
(PID.TID 0000.0001) // End MONITOR dynamic field statistics
(PID.TID 0000.0001) // =======================================================
(PID.TID 0000.0001)  ploadbar=  1.01083461173447E+05
(PID.TID 0000.0001) %SBO sbo_mass                     =   1.3737568013983E+21
(PID.TID 0000.0001) %SBO sbo_mass_fw                  =   4.3986027797869E+16
(PID.TID 0000.0001) %SBO sbo_zoamc                    =   1.2770701234128E+25
(PID.TID 0000.0001) %SBO sbo_zoamp                    =   2.9276643006054E+30
(PID.TID 0000.0001) // =======================================================
(PID.TID 0000.0001) // Begin MONITOR SEAICE statistics
(PID.TID 0000.0001) // =======================================================
(PID.TID 0000.0001) %MON seaice_tsnumber              =                 10512
(PID.TID 0000.0001) %MON seaice_time_sec              =   3.7843200000000E+07
(PID.TID 0000.0001) %MON seaice_uice_max              =   4.0000000000000E-01
(PID.TID 0000.0001) %MON seaice_uice_min              =  -4.0000000000000E-01
(PID.TID 0000.0001) %MON seaice_uice_mean             =   1.2963478688011E-02
(PID.TID 0000.0001) %MON seaice_uice_sd               =   1.7487672347705E-01
(PID.TID 0000.0001) %MON seaice_uice_del2             =   1.4299354758169E-04
(PID.TID 0000.0001) %MON seaice_vice_max              =   4.0000000000000E-01
(PID.TID 0000.0001) %MON seaice_vice_min              =  -4.0000000000000E-01
(PID.TID 0000.0001) %MON seaice_vice_mean             =  -7.6507084149386E-03
(PID.TID 0000.0001) %MON seaice_vice_sd               =   1.7645222571558E-01
(PID.TID 0000.0001) %MON seaice_vice_del2             =   1.4540244007649E-04
(PID.TID 0000.0001) %MON seaice_area_max              =   9.7000000000000E-01
(PID.TID 0000.0001) %MON seaice_area_min              =   0.0000000000000E+00
(PID.TID 0000.0001) %MON seaice_area_mean             =   5.1876835619257E-02
(PID.TID 0000.0001) %MON seaice_area_sd               =   2.1120142448755E-01
(PID.TID 0000.0001) %MON seaice_area_del2             =   2.2679496356432E-04
(PID.TID 0000.0001) %MON seaice_heff_max              =   6.8113101800612E+00
(PID.TID 0000.0001) %MON seaice_heff_min              =   0.0000000000000E+00
(PID.TID 0000.0001) %MON seaice_heff_mean             =   7.6955109748391E-02
(PID.TID 0000.0001) %MON seaice_heff_sd               =   3.8819428681190E-01
(PID.TID 0000.0001) %MON seaice_heff_del2             =   2.1506418649395E-04
(PID.TID 0000.0001) %MON seaice_hsnow_max             =   1.0939982790730E+00
(PID.TID 0000.0001) %MON seaice_hsnow_min             =  -7.1291266823669E-05
(PID.TID 0000.0001) %MON seaice_hsnow_mean            =   9.7193421740866E-03
(PID.TID 0000.0001) %MON seaice_hsnow_sd              =   5.0290915695976E-02
(PID.TID 0000.0001) %MON seaice_hsnow_del2            =   4.7934247916312E-05
(PID.TID 0000.0001) // =======================================================
(PID.TID 0000.0001) // End MONITOR SEAICE statistics
(PID.TID 0000.0001) // =======================================================
(PID.TID 0000.0001) // =======================================================
(PID.TID 0000.0001) // Begin MONITOR EXF statistics
(PID.TID 0000.0001) // =======================================================
(PID.TID 0000.0001) %MON exf_tsnumber                 =                 10512
(PID.TID 0000.0001) %MON exf_time_sec                 =   3.7843200000000E+07
(PID.TID 0000.0001) %MON exf_ustress_max              =   1.3173592090607E+00
(PID.TID 0000.0001) %MON exf_ustress_min              =  -1.6459183692932E+00
(PID.TID 0000.0001) %MON exf_ustress_mean             =   1.1364943364971E-02
(PID.TID 0000.0001) %MON exf_ustress_sd               =   1.3680485316432E-01
(PID.TID 0000.0001) %MON exf_ustress_del2             =   9.6399659763053E-05
(PID.TID 0000.0001) %MON exf_vstress_max              =   1.7689213156700E+00
(PID.TID 0000.0001) %MON exf_vstress_min              =  -2.7178792953491E+00
(PID.TID 0000.0001) %MON exf_vstress_mean             =   5.1167831079845E-03
(PID.TID 0000.0001) %MON exf_vstress_sd               =   1.4428809823895E-01
(PID.TID 0000.0001) %MON exf_vstress_del2             =   1.0633712081367E-04
(PID.TID 0000.0001) %MON exf_hflux_max                =   1.4818189051726E+03
(PID.TID 0000.0001) %MON exf_hflux_min                =  -5.6682774849426E+02
(PID.TID 0000.0001) %MON exf_hflux_mean               =   3.4938004478434E+01
(PID.TID 0000.0001) %MON exf_hflux_sd                 =   2.1978840053503E+02
(PID.TID 0000.0001) %MON exf_hflux_del2               =   5.2542589731561E-01
(PID.TID 0000.0001) %MON exf_sflux_max                =   4.0250194997955E-07
(PID.TID 0000.0001) %MON exf_sflux_min                =  -4.2679292420399E-06
(PID.TID 0000.0001) %MON exf_sflux_mean               =   1.0342832040143E-09
(PID.TID 0000.0001) %MON exf_sflux_sd                 =   9.7211724420303E-08
(PID.TID 0000.0001) %MON exf_sflux_del2               =   2.6463315118591E-10
(PID.TID 0000.0001) %MON exf_wspeed_max               =   2.3972170829773E+01
(PID.TID 0000.0001) %MON exf_wspeed_min               =   4.0680915117264E-01
(PID.TID 0000.0001) %MON exf_wspeed_mean              =   7.0009154098237E+00
(PID.TID 0000.0001) %MON exf_wspeed_sd                =   3.5892124374914E+00
(PID.TID 0000.0001) %MON exf_wspeed_del2              =   1.7384659168334E-02
(PID.TID 0000.0001) %MON exf_atemp_max                =   3.0672969284058E+02
(PID.TID 0000.0001) %MON exf_atemp_min                =   2.2567059745789E+02
(PID.TID 0000.0001) %MON exf_atemp_mean               =   2.8920474784090E+02
(PID.TID 0000.0001) %MON exf_atemp_sd                 =   1.2892238005608E+01
(PID.TID 0000.0001) %MON exf_atemp_del2               =   3.8073539783077E-02
(PID.TID 0000.0001) %MON exf_aqh_max                  =   2.1373907104135E-02
(PID.TID 0000.0001) %MON exf_aqh_min                  =  -1.1093865032308E-04
(PID.TID 0000.0001) %MON exf_aqh_mean                 =   1.1012636537463E-02
(PID.TID 0000.0001) %MON exf_aqh_sd                   =   5.7680898893743E-03
(PID.TID 0000.0001) %MON exf_aqh_del2                 =   2.0981427630261E-05
(PID.TID 0000.0001) %MON exf_lwflux_max               =   2.2857505444334E+02
(PID.TID 0000.0001) %MON exf_lwflux_min               =  -3.0544126450817E+01
(PID.TID 0000.0001) %MON exf_lwflux_mean              =   4.8456543547446E+01
(PID.TID 0000.0001) %MON exf_lwflux_sd                =   2.8794470459518E+01
(PID.TID 0000.0001) %MON exf_lwflux_del2              =   1.3186909128321E-01
(PID.TID 0000.0001) %MON exf_evap_max                 =   4.1780407387606E-07
(PID.TID 0000.0001) %MON exf_evap_min                 =  -1.2033171792784E-07
(PID.TID 0000.0001) %MON exf_evap_mean                =   4.4134667576268E-08
(PID.TID 0000.0001) %MON exf_evap_sd                  =   3.5033154344843E-08
(PID.TID 0000.0001) %MON exf_evap_del2                =   1.0195272820538E-10
(PID.TID 0000.0001) %MON exf_precip_max               =   2.4043725375122E-06
(PID.TID 0000.0001) %MON exf_precip_min               =  -2.4749696514448E-08
(PID.TID 0000.0001) %MON exf_precip_mean              =   3.9473109763900E-08
(PID.TID 0000.0001) %MON exf_precip_sd                =   7.3878504505014E-08
(PID.TID 0000.0001) %MON exf_precip_del2              =   2.2085350622865E-10
(PID.TID 0000.0001) %MON exf_swflux_max               =   1.1805767162377E+02
(PID.TID 0000.0001) %MON exf_swflux_min               =  -5.7702978812058E+02
(PID.TID 0000.0001) %MON exf_swflux_mean              =  -1.5432302804070E+02
(PID.TID 0000.0001) %MON exf_swflux_sd                =   1.5938996466642E+02
(PID.TID 0000.0001) %MON exf_swflux_del2              =   3.8996011005913E-01
(PID.TID 0000.0001) %MON exf_swdown_max               =   6.2191586303711E+02
(PID.TID 0000.0001) %MON exf_swdown_min               =  -1.4900189971924E+02
(PID.TID 0000.0001) %MON exf_swdown_mean              =   1.6735082014819E+02
(PID.TID 0000.0001) %MON exf_swdown_sd                =   1.7230504665608E+02
(PID.TID 0000.0001) %MON exf_swdown_del2              =   4.2360055193041E-01
(PID.TID 0000.0001) %MON exf_lwdown_max               =   4.5584849548340E+02
(PID.TID 0000.0001) %MON exf_lwdown_min               =   7.1088562011719E+01
(PID.TID 0000.0001) %MON exf_lwdown_mean              =   3.6281893782123E+02
(PID.TID 0000.0001) %MON exf_lwdown_sd                =   6.5108446153490E+01
(PID.TID 0000.0001) %MON exf_lwdown_del2              =   6.9421557341712E-01
(PID.TID 0000.0001) %MON exf_apressure_max            =   1.0461806250000E+05
(PID.TID 0000.0001) %MON exf_apressure_min            =   9.6137640625000E+04
(PID.TID 0000.0001) %MON exf_apressure_mean           =   1.0108381255154E+05
(PID.TID 0000.0001) %MON exf_apressure_sd             =   1.0319047012006E+03
(PID.TID 0000.0001) %MON exf_apressure_del2           =   2.0687384955182E+02
(PID.TID 0000.0001) %MON exf_runoff_max               =   4.1616140845428E-06
(PID.TID 0000.0001) %MON exf_runoff_min               =   0.0000000000000E+00
(PID.TID 0000.0001) %MON exf_runoff_mean              =   3.6272746083540E-09
(PID.TID 0000.0001) %MON exf_runoff_sd                =   4.6684030161543E-08
(PID.TID 0000.0001) %MON exf_runoff_del2              =   1.4166060067744E-10
(PID.TID 0000.0001) // =======================================================
(PID.TID 0000.0001) // End MONITOR EXF statistics
(PID.TID 0000.0001) // =======================================================
 cg2d: Sum(rhs),rhsMax =  -5.15338443982388E+01  1.84855799591725E+00
(PID.TID 0000.0001)  ploadbar=  1.01083812551545E+05
 cg2d: Sum(rhs),rhsMax =  -5.17226218217818E+01  1.84140653914603E+00
(PID.TID 0000.0001)  ploadbar=  1.01084163929642E+05
 cg2d: Sum(rhs),rhsMax =  -5.19135021051807E+01  1.83422350941339E+00
(PID.TID 0000.0001)  ploadbar=  1.01084515307740E+05
 cg2d: Sum(rhs),rhsMax =  -5.21069459657871E+01  1.82699069192076E+00
(PID.TID 0000.0001)  ploadbar=  1.01084866685838E+05
 cg2d: Sum(rhs),rhsMax =  -5.23001040502816E+01  1.81981430755403E+00
(PID.TID 0000.0001)  ploadbar=  1.01084229772564E+05
 cg2d: Sum(rhs),rhsMax =  -5.24969031165520E+01  1.81255377229278E+00
(PID.TID 0000.0001)  ploadbar=  1.01083592859290E+05
 cg2d: Sum(rhs),rhsMax =  -5.26989908076294E+01  1.80515081874484E+00
(PID.TID 0000.0001)  ploadbar=  1.01082955946016E+05
 cg2d: Sum(rhs),rhsMax =  -5.29037565700754E+01  1.79769669572306E+00
(PID.TID 0000.0001)  ploadbar=  1.01082319032742E+05
 cg2d: Sum(rhs),rhsMax =  -5.31080673673554E+01  1.79029374131057E+00
(PID.TID 0000.0001)  ploadbar=  1.01081682119469E+05
 cg2d: Sum(rhs),rhsMax =  -5.33085809939200E+01  1.78304880578972E+00
(PID.TID 0000.0001)  ploadbar=  1.01081045206195E+05
 cg2d: Sum(rhs),rhsMax =  -5.34916443422108E+01  1.77639667536776E+00
(PID.TID 0000.0001)  ploadbar=  1.01080019786361E+05
 cg2d: Sum(rhs),rhsMax =  -5.36642352843513E+01  1.77009582592026E+00
(PID.TID 0000.0001)  ploadbar=  1.01078994366527E+05
 cg2d: Sum(rhs),rhsMax =  -5.38223620613099E+01  1.76426772876187E+00
(PID.TID 0000.0001)  ploadbar=  1.01077968946693E+05
 cg2d: Sum(rhs),rhsMax =  -5.39676400654665E+01  1.75884984574164E+00
(PID.TID 0000.0001)  ploadbar=  1.01076943526859E+05
 cg2d: Sum(rhs),rhsMax =  -5.41029038653979E+01  1.75374020431044E+00
(PID.TID 0000.0001)  ploadbar=  1.01075918107024E+05
 cg2d: Sum(rhs),rhsMax =  -5.42282603850844E+01  1.74892431272262E+00
(PID.TID 0000.0001)  ploadbar=  1.01074892687190E+05
 cg2d: Sum(rhs),rhsMax =  -5.43440583284581E+01  1.74449874337670E+00
(PID.TID 0000.0001)  ploadbar=  1.01074258354558E+05
 cg2d: Sum(rhs),rhsMax =  -5.44482149051510E+01  1.74052545229450E+00
(PID.TID 0000.0001)  ploadbar=  1.01073624021926E+05
 cg2d: Sum(rhs),rhsMax =  -5.45343224298490E+01  1.73719859665006E+00
(PID.TID 0000.0001)  ploadbar=  1.01072989689293E+05
 cg2d: Sum(rhs),rhsMax =  -5.45961513608696E+01  1.73470828897617E+00
(PID.TID 0000.0001)  ploadbar=  1.01072355356661E+05
 cg2d: Sum(rhs),rhsMax =  -5.46318087924988E+01  1.73310425003449E+00
(PID.TID 0000.0001)  ploadbar=  1.01071721024028E+05
 cg2d: Sum(rhs),rhsMax =  -5.46405574370436E+01  1.73240180008901E+00
(PID.TID 0000.0001)  ploadbar=  1.01071086691396E+05
 cg2d: Sum(rhs),rhsMax =  -5.46329292496099E+01  1.73220885810501E+00
(PID.TID 0000.0001)  ploadbar=  1.01069989446600E+05
 cg2d: Sum(rhs),rhsMax =  -5.46062305395153E+01  1.73260821265111E+00
(PID.TID 0000.0001)  ploadbar=  1.01068892201804E+05
 cg2d: Sum(rhs),rhsMax =  -5.45568413868734E+01  1.73371201090814E+00
(PID.TID 0000.0001)  ploadbar=  1.01067794957009E+05
 cg2d: Sum(rhs),rhsMax =  -5.44918872738065E+01  1.73529319376658E+00
(PID.TID 0000.0001)  ploadbar=  1.01066697712213E+05
 cg2d: Sum(rhs),rhsMax =  -5.44141295000293E+01  1.73726406982053E+00
(PID.TID 0000.0001)  ploadbar=  1.01065600467417E+05
 cg2d: Sum(rhs),rhsMax =  -5.43242842660268E+01  1.73960505770157E+00
(PID.TID 0000.0001)  ploadbar=  1.01064503222622E+05
 cg2d: Sum(rhs),rhsMax =  -5.42256853064194E+01  1.74226475561436E+00
(PID.TID 0000.0001)  ploadbar=  1.01062752309824E+05
 cg2d: Sum(rhs),rhsMax =  -5.41209352249082E+01  1.74515742292275E+00
(PID.TID 0000.0001)  ploadbar=  1.01061001397027E+05
 cg2d: Sum(rhs),rhsMax =  -5.40293138410103E+01  1.74765543742967E+00
(PID.TID 0000.0001)  ploadbar=  1.01059250484230E+05
 cg2d: Sum(rhs),rhsMax =  -5.39318219615776E+01  1.75036742544937E+00
(PID.TID 0000.0001)  ploadbar=  1.01057499571433E+05
 cg2d: Sum(rhs),rhsMax =  -5.38290105386009E+01  1.75327144532488E+00
(PID.TID 0000.0001)  ploadbar=  1.01055748658636E+05
 cg2d: Sum(rhs),rhsMax =  -5.37216936851805E+01  1.75633439029673E+00
(PID.TID 0000.0001)  ploadbar=  1.01053997745839E+05
 cg2d: Sum(rhs),rhsMax =  -5.36069438209079E+01  1.75962017719208E+00
(PID.TID 0000.0001)  ploadbar=  1.01053254086146E+05
 cg2d: Sum(rhs),rhsMax =  -5.34913129004838E+01  1.76291375919489E+00
(PID.TID 0000.0001)  ploadbar=  1.01052510426452E+05
 cg2d: Sum(rhs),rhsMax =  -5.33733026443890E+01  1.76626188605341E+00
(PID.TID 0000.0001)  ploadbar=  1.01051766766758E+05
 cg2d: Sum(rhs),rhsMax =  -5.32539201454570E+01  1.76962725593216E+00
(PID.TID 0000.0001)  ploadbar=  1.01051023107065E+05
 cg2d: Sum(rhs),rhsMax =  -5.31355641884658E+01  1.77292707827634E+00
(PID.TID 0000.0001)  ploadbar=  1.01050279447371E+05
 cg2d: Sum(rhs),rhsMax =  -5.30189230600923E+01  1.77613445211649E+00
(PID.TID 0000.0001)  ploadbar=  1.01049535787678E+05
 cg2d: Sum(rhs),rhsMax =  -5.28934496639589E+01  1.77969321449547E+00
(PID.TID 0000.0001)  ploadbar=  1.01048306720933E+05
 cg2d: Sum(rhs),rhsMax =  -5.27679265846559E+01  1.78330616340351E+00
(PID.TID 0000.0001)  ploadbar=  1.01047077654189E+05
 cg2d: Sum(rhs),rhsMax =  -5.26434721506204E+01  1.78692957161643E+00
(PID.TID 0000.0001)  ploadbar=  1.01045848587444E+05
 cg2d: Sum(rhs),rhsMax =  -5.25176986905056E+01  1.79064234919308E+00
(PID.TID 0000.0001)  ploadbar=  1.01044619520700E+05
 cg2d: Sum(rhs),rhsMax =  -5.23920236993811E+01  1.79438994374607E+00
(PID.TID 0000.0001)  ploadbar=  1.01043390453956E+05
 cg2d: Sum(rhs),rhsMax =  -5.22687498715500E+01  1.79808655890655E+00
(PID.TID 0000.0001)  ploadbar=  1.01042161387211E+05
 cg2d: Sum(rhs),rhsMax =  -5.21460471030814E+01  1.80177877622306E+00
(PID.TID 0000.0001)  ploadbar=  1.01042040022617E+05
 cg2d: Sum(rhs),rhsMax =  -5.20242638555932E+01  1.80544942951038E+00
(PID.TID 0000.0001)  ploadbar=  1.01041918658023E+05
 cg2d: Sum(rhs),rhsMax =  -5.19062101935712E+01  1.80899595732891E+00
(PID.TID 0000.0001)  ploadbar=  1.01041797293429E+05
 cg2d: Sum(rhs),rhsMax =  -5.17904135884984E+01  1.81246066893630E+00
(PID.TID 0000.0001)  ploadbar=  1.01041675928835E+05
 cg2d: Sum(rhs),rhsMax =  -5.16776022414696E+01  1.81581296666670E+00
(PID.TID 0000.0001)  ploadbar=  1.01041554564241E+05
 cg2d: Sum(rhs),rhsMax =  -5.15681072633584E+01  1.81903517628183E+00
(PID.TID 0000.0001)  ploadbar=  1.01041433199647E+05
 cg2d: Sum(rhs),rhsMax =  -5.14584283678235E+01  1.82226423579602E+00
(PID.TID 0000.0001)  ploadbar=  1.01040904024638E+05
 cg2d: Sum(rhs),rhsMax =  -5.13515314854051E+01  1.82539082139062E+00
(PID.TID 0000.0001)  ploadbar=  1.01040374849628E+05
 cg2d: Sum(rhs),rhsMax =  -5.12492186437863E+01  1.82834387657858E+00
(PID.TID 0000.0001)  ploadbar=  1.01039845674618E+05
 cg2d: Sum(rhs),rhsMax =  -5.11498913840001E+01  1.83117262150305E+00
(PID.TID 0000.0001)  ploadbar=  1.01039316499609E+05
 cg2d: Sum(rhs),rhsMax =  -5.10533091950306E+01  1.83387687451532E+00
(PID.TID 0000.0001)  ploadbar=  1.01038787324599E+05
 cg2d: Sum(rhs),rhsMax =  -5.09596216781183E+01  1.83644345255748E+00
(PID.TID 0000.0001)  ploadbar=  1.01038258149590E+05
 cg2d: Sum(rhs),rhsMax =  -5.08701388578347E+01  1.83882933078209E+00
(PID.TID 0000.0001)  ploadbar=  1.01039232673391E+05
 cg2d: Sum(rhs),rhsMax =  -5.07792187234519E+01  1.84123455564720E+00
(PID.TID 0000.0001)  ploadbar=  1.01040207197192E+05
 cg2d: Sum(rhs),rhsMax =  -5.06844148569015E+01  1.84374560349562E+00
(PID.TID 0000.0001)  ploadbar=  1.01041181720993E+05
 cg2d: Sum(rhs),rhsMax =  -5.05858955955634E+01  1.84635175304251E+00
(PID.TID 0000.0001)  ploadbar=  1.01042156244794E+05
 cg2d: Sum(rhs),rhsMax =  -5.04824227147828E+01  1.84909446957359E+00
(PID.TID 0000.0001)  ploadbar=  1.01043130768595E+05
 cg2d: Sum(rhs),rhsMax =  -5.03739145296687E+01  1.85197392334160E+00
(PID.TID 0000.0001)  ploadbar=  1.01044105292396E+05
 cg2d: Sum(rhs),rhsMax =  -5.02538401687877E+01  1.85534971436635E+00
(PID.TID 0000.0001)  ploadbar=  1.01044826226993E+05
 cg2d: Sum(rhs),rhsMax =  -5.01256499903714E+01  1.85909510658095E+00
(PID.TID 0000.0001)  ploadbar=  1.01045547161589E+05
 cg2d: Sum(rhs),rhsMax =  -4.99895526406284E+01  1.86320164243226E+00
(PID.TID 0000.0001)  ploadbar=  1.01046268096186E+05
 cg2d: Sum(rhs),rhsMax =  -4.98516349259237E+01  1.86743790653855E+00
(PID.TID 0000.0001)  ploadbar=  1.01046989030782E+05
 cg2d: Sum(rhs),rhsMax =  -4.97204263624159E+01  1.87147744801459E+00
(PID.TID 0000.0001)  ploadbar=  1.01047709965379E+05
 cg2d: Sum(rhs),rhsMax =  -4.96103143751926E+01  1.87476631262010E+00
(PID.TID 0000.0001)  ploadbar=  1.01048430899975E+05
 cg2d: Sum(rhs),rhsMax =  -4.95508623801505E+01  1.87617475495530E+00
(PID.TID 0000.0001)  ploadbar=  1.01048990268010E+05
 cg2d: Sum(rhs),rhsMax =  -4.95530569340582E+01  1.87526714682983E+00
(PID.TID 0000.0001)  ploadbar=  1.01049549636044E+05
 cg2d: Sum(rhs),rhsMax =  -4.96316887172241E+01  1.87147928976959E+00
(PID.TID 0000.0001)  ploadbar=  1.01050109004078E+05
 cg2d: Sum(rhs),rhsMax =  -4.97919344387955E+01  1.86463746995754E+00
(PID.TID 0000.0001)  ploadbar=  1.01050668372113E+05
 cg2d: Sum(rhs),rhsMax =  -5.00257939938981E+01  1.85509195563254E+00
(PID.TID 0000.0001)  ploadbar=  1.01051227740147E+05
 cg2d: Sum(rhs),rhsMax =  -5.03188499651602E+01  1.84344581827912E+00
(PID.TID 0000.0001)  ploadbar=  1.01051787108182E+05
 cg2d: Sum(rhs),rhsMax =  -5.06608581669188E+01  1.83018464461092E+00
(PID.TID 0000.0001)  ploadbar=  1.01053157880846E+05
 cg2d: Sum(rhs),rhsMax =  -5.10275213932609E+01  1.81623420126993E+00
(PID.TID 0000.0001)  ploadbar=  1.01054528653510E+05
 cg2d: Sum(rhs),rhsMax =  -5.14023522015950E+01  1.80220142252771E+00
(PID.TID 0000.0001)  ploadbar=  1.01055899426174E+05
 cg2d: Sum(rhs),rhsMax =  -5.17830880341564E+01  1.78816230667548E+00
(PID.TID 0000.0001)  ploadbar=  1.01057270198838E+05
 cg2d: Sum(rhs),rhsMax =  -5.21636414687352E+01  1.77432322218677E+00
(PID.TID 0000.0001)  ploadbar=  1.01058640971502E+05
 cg2d: Sum(rhs),rhsMax =  -5.25413480154846E+01  1.76076330671763E+00
(PID.TID 0000.0001)  ploadbar=  1.01060011744166E+05
 cg2d: Sum(rhs),rhsMax =  -5.29030175304210E+01  1.74793704675542E+00
(PID.TID 0000.0001)  ploadbar=  1.01061060585982E+05
 cg2d: Sum(rhs),rhsMax =  -5.32404909153717E+01  1.73607797073021E+00
(PID.TID 0000.0001)  ploadbar=  1.01062109427798E+05
 cg2d: Sum(rhs),rhsMax =  -5.35469843176842E+01  1.72536420971620E+00
(PID.TID 0000.0001)  ploadbar=  1.01063158269615E+05
 cg2d: Sum(rhs),rhsMax =  -5.38192677948781E+01  1.71584799874022E+00
(PID.TID 0000.0001)  ploadbar=  1.01064207111431E+05
 cg2d: Sum(rhs),rhsMax =  -5.40573108945065E+01  1.70748343243143E+00
(PID.TID 0000.0001)  ploadbar=  1.01065255953247E+05
 cg2d: Sum(rhs),rhsMax =  -5.42629461548483E+01  1.70017816185866E+00
(PID.TID 0000.0001)  ploadbar=  1.01066304795063E+05
 cg2d: Sum(rhs),rhsMax =  -5.44378999554850E+01  1.69396327712274E+00
(PID.TID 0000.0001)  ploadbar=  1.01066544396914E+05
 cg2d: Sum(rhs),rhsMax =  -5.45952230886046E+01  1.68841558038100E+00
(PID.TID 0000.0001)  ploadbar=  1.01066783998764E+05
 cg2d: Sum(rhs),rhsMax =  -5.47438181144483E+01  1.68324545448029E+00
(PID.TID 0000.0001)  ploadbar=  1.01067023600615E+05
 cg2d: Sum(rhs),rhsMax =  -5.48863314599346E+01  1.67836265745007E+00
(PID.TID 0000.0001)  ploadbar=  1.01067263202466E+05
 cg2d: Sum(rhs),rhsMax =  -5.50260841518074E+01  1.67365798857946E+00
(PID.TID 0000.0001)  ploadbar=  1.01067502804316E+05
 cg2d: Sum(rhs),rhsMax =  -5.51644340324108E+01  1.66907778399916E+00
(PID.TID 0000.0001)  ploadbar=  1.01067742406167E+05
 cg2d: Sum(rhs),rhsMax =  -5.53111528178378E+01  1.66423688353031E+00
(PID.TID 0000.0001)  ploadbar=  1.01068188390344E+05
 cg2d: Sum(rhs),rhsMax =  -5.54624114358893E+01  1.65925055816714E+00
(PID.TID 0000.0001)  ploadbar=  1.01068634374521E+05
 cg2d: Sum(rhs),rhsMax =  -5.56168570395022E+01  1.65416010538037E+00
(PID.TID 0000.0001)  ploadbar=  1.01069080358697E+05
 cg2d: Sum(rhs),rhsMax =  -5.57761669115528E+01  1.64891242623652E+00
(PID.TID 0000.0001)  ploadbar=  1.01069526342874E+05
 cg2d: Sum(rhs),rhsMax =  -5.59412844489990E+01  1.64348124365965E+00
(PID.TID 0000.0001)  ploadbar=  1.01069972327051E+05
 cg2d: Sum(rhs),rhsMax =  -5.61134009809336E+01  1.63783202398835E+00
(PID.TID 0000.0001)  ploadbar=  1.01070418311228E+05
 cg2d: Sum(rhs),rhsMax =  -5.62918477272238E+01  1.63209578961512E+00
(PID.TID 0000.0001)  ploadbar=  1.01070900805615E+05
 cg2d: Sum(rhs),rhsMax =  -5.64720153884219E+01  1.62640218732199E+00
(PID.TID 0000.0001)  ploadbar=  1.01071383300002E+05
 cg2d: Sum(rhs),rhsMax =  -5.66535525650569E+01  1.62075532256696E+00
(PID.TID 0000.0001)  ploadbar=  1.01071865794389E+05
 cg2d: Sum(rhs),rhsMax =  -5.68356769979364E+01  1.61517185963576E+00
(PID.TID 0000.0001)  ploadbar=  1.01072348288776E+05
 cg2d: Sum(rhs),rhsMax =  -5.70174705426339E+01  1.60967052277055E+00
(PID.TID 0000.0001)  ploadbar=  1.01072830783164E+05
 cg2d: Sum(rhs),rhsMax =  -5.71981812146255E+01  1.60426122982397E+00
(PID.TID 0000.0001)  ploadbar=  1.01073313277551E+05
 cg2d: Sum(rhs),rhsMax =  -5.73849576296234E+01  1.59869334480428E+00
(PID.TID 0000.0001)  ploadbar=  1.01072083856466E+05
 cg2d: Sum(rhs),rhsMax =  -5.75752986661108E+01  1.59303278902846E+00
(PID.TID 0000.0001)  ploadbar=  1.01070854435382E+05
 cg2d: Sum(rhs),rhsMax =  -5.77642249030356E+01  1.58741365378763E+00
(PID.TID 0000.0001)  ploadbar=  1.01069625014297E+05
 cg2d: Sum(rhs),rhsMax =  -5.79541581064010E+01  1.58176334842977E+00
(PID.TID 0000.0001)  ploadbar=  1.01068395593213E+05
 cg2d: Sum(rhs),rhsMax =  -5.81453368738069E+01  1.57607225487513E+00
(PID.TID 0000.0001)  ploadbar=  1.01067166172128E+05
 cg2d: Sum(rhs),rhsMax =  -5.83370840821527E+01  1.57035372836637E+00
(PID.TID 0000.0001)  ploadbar=  1.01065936751043E+05
 cg2d: Sum(rhs),rhsMax =  -5.85285638382081E+01  1.56473809353733E+00
(PID.TID 0000.0001)  ploadbar=  1.01065075926970E+05
 cg2d: Sum(rhs),rhsMax =  -5.87234779658311E+01  1.55912438358019E+00
(PID.TID 0000.0001)  ploadbar=  1.01064215102897E+05
 cg2d: Sum(rhs),rhsMax =  -5.89153345590377E+01  1.55367840838364E+00
(PID.TID 0000.0001)  ploadbar=  1.01063354278823E+05
 cg2d: Sum(rhs),rhsMax =  -5.91021408872304E+01  1.54844298757982E+00
(PID.TID 0000.0001)  ploadbar=  1.01062493454750E+05
 cg2d: Sum(rhs),rhsMax =  -5.92832705134775E+01  1.54342452230885E+00
(PID.TID 0000.0001)  ploadbar=  1.01061632630676E+05
 cg2d: Sum(rhs),rhsMax =  -5.94574955940439E+01  1.53864401716980E+00
(PID.TID 0000.0001)  ploadbar=  1.01060771806603E+05
 cg2d: Sum(rhs),rhsMax =  -5.96253983225844E+01  1.53406301042154E+00
(PID.TID 0000.0001)  ploadbar=  1.01059349863927E+05
 cg2d: Sum(rhs),rhsMax =  -5.97921650875686E+01  1.52954015374246E+00
(PID.TID 0000.0001)  ploadbar=  1.01057927921251E+05
 cg2d: Sum(rhs),rhsMax =  -5.99570764436266E+01  1.52508761075848E+00
(PID.TID 0000.0001)  ploadbar=  1.01056505978574E+05
 cg2d: Sum(rhs),rhsMax =  -6.01184994191044E+01  1.52073844815583E+00
(PID.TID 0000.0001)  ploadbar=  1.01055084035898E+05
 cg2d: Sum(rhs),rhsMax =  -6.02764949174226E+01  1.51647702047070E+00
(PID.TID 0000.0001)  ploadbar=  1.01053662093222E+05
 cg2d: Sum(rhs),rhsMax =  -6.04303929724697E+01  1.51230834101084E+00
(PID.TID 0000.0001)  ploadbar=  1.01052240150546E+05
 cg2d: Sum(rhs),rhsMax =  -6.05601983010085E+01  1.50874524968264E+00
(PID.TID 0000.0001)  ploadbar=  1.01050121938352E+05
 cg2d: Sum(rhs),rhsMax =  -6.06690811448212E+01  1.50570331202171E+00
(PID.TID 0000.0001)  ploadbar=  1.01048003726159E+05
 cg2d: Sum(rhs),rhsMax =  -6.07632360567141E+01  1.50301789492768E+00
(PID.TID 0000.0001)  ploadbar=  1.01045885513965E+05
 cg2d: Sum(rhs),rhsMax =  -6.08341907064852E+01  1.50089267136748E+00
(PID.TID 0000.0001)  ploadbar=  1.01043767301771E+05
 cg2d: Sum(rhs),rhsMax =  -6.08812024255037E+01  1.49933822651912E+00
(PID.TID 0000.0001)  ploadbar=  1.01041649089578E+05
 cg2d: Sum(rhs),rhsMax =  -6.09080864788600E+01  1.49825272758457E+00
(PID.TID 0000.0001)  ploadbar=  1.01039530877384E+05
 cg2d: Sum(rhs),rhsMax =  -6.05855840138521E+01  1.50578213899279E+00
(PID.TID 0000.0001)  ploadbar=  1.01039548006352E+05
 cg2d: Sum(rhs),rhsMax =  -5.93945659329041E+01  1.53549789628529E+00
(PID.TID 0000.0001)  ploadbar=  1.01039565135320E+05
 cg2d: Sum(rhs),rhsMax =  -5.84505573928199E+01  1.55978209470260E+00
(PID.TID 0000.0001)  ploadbar=  1.01039582264288E+05
 cg2d: Sum(rhs),rhsMax =  -5.77257522490551E+01  1.57881368123220E+00
(PID.TID 0000.0001)  ploadbar=  1.01039599393256E+05
 cg2d: Sum(rhs),rhsMax =  -5.71775541848347E+01  1.59335714390503E+00
(PID.TID 0000.0001)  ploadbar=  1.01039616522223E+05
 cg2d: Sum(rhs),rhsMax =  -5.67690381255286E+01  1.60418956271902E+00
(PID.TID 0000.0001)  ploadbar=  1.01039633651191E+05
 cg2d: Sum(rhs),rhsMax =  -5.64916818976564E+01  1.61152289906734E+00
(PID.TID 0000.0001)  ploadbar=  1.01040373194049E+05
 cg2d: Sum(rhs),rhsMax =  -5.63247338793519E+01  1.61584751947326E+00
(PID.TID 0000.0001)  ploadbar=  1.01041112736906E+05
 cg2d: Sum(rhs),rhsMax =  -5.62481294974428E+01  1.61768555568798E+00
(PID.TID 0000.0001)  ploadbar=  1.01041852279763E+05
 cg2d: Sum(rhs),rhsMax =  -5.62439962586327E+01  1.61752821237952E+00
(PID.TID 0000.0001)  ploadbar=  1.01042591822620E+05
 cg2d: Sum(rhs),rhsMax =  -5.63025310009158E+01  1.61564750628055E+00
(PID.TID 0000.0001)  ploadbar=  1.01043331365477E+05
 cg2d: Sum(rhs),rhsMax =  -5.64269948663191E+01  1.61195451226825E+00
(PID.TID 0000.0001)  ploadbar=  1.01044070908335E+05
 cg2d: Sum(rhs),rhsMax =  -5.66076015998585E+01  1.60668320333184E+00
(PID.TID 0000.0001)  ploadbar=  1.01045290652252E+05
 cg2d: Sum(rhs),rhsMax =  -5.68329131652138E+01  1.60018246502473E+00
(PID.TID 0000.0001)  ploadbar=  1.01046510396169E+05
 cg2d: Sum(rhs),rhsMax =  -5.71060399066007E+01  1.59238748848993E+00
(PID.TID 0000.0001)  ploadbar=  1.01047730140087E+05
 cg2d: Sum(rhs),rhsMax =  -5.74266493960249E+01  1.58333452726385E+00
(PID.TID 0000.0001)  ploadbar=  1.01048949884004E+05
 cg2d: Sum(rhs),rhsMax =  -5.77803128239877E+01  1.57345479657674E+00
(PID.TID 0000.0001)  ploadbar=  1.01050169627921E+05
 cg2d: Sum(rhs),rhsMax =  -5.81669493343954E+01  1.56278266880281E+00
(PID.TID 0000.0001)  ploadbar=  1.01051389371839E+05
 cg2d: Sum(rhs),rhsMax =  -5.85772963520193E+01  1.55161718515241E+00
(PID.TID 0000.0001)  ploadbar=  1.01052678255644E+05
 cg2d: Sum(rhs),rhsMax =  -5.90104801185669E+01  1.54000510909278E+00
(PID.TID 0000.0001)  ploadbar=  1.01053967139449E+05
 cg2d: Sum(rhs),rhsMax =  -5.94724885478370E+01  1.52781194240506E+00
(PID.TID 0000.0001)  ploadbar=  1.01055256023254E+05
 cg2d: Sum(rhs),rhsMax =  -5.99713003443956E+01  1.51486292649828E+00
(PID.TID 0000.0001)  ploadbar=  1.01056544907059E+05
 cg2d: Sum(rhs),rhsMax =  -6.05209357749742E+01  1.50085150481823E+00
(PID.TID 0000.0001)  ploadbar=  1.01057833790864E+05
 cg2d: Sum(rhs),rhsMax =  -6.11310793996085E+01  1.48559833082100E+00
(PID.TID 0000.0001)  ploadbar=  1.01059122674669E+05
 cg2d: Sum(rhs),rhsMax =  -6.17708715622522E+01  1.46990873152457E+00
(PID.TID 0000.0001)  ploadbar=  1.01060310622718E+05
 cg2d: Sum(rhs),rhsMax =  -6.24228664699053E+01  1.45422037734596E+00
(PID.TID 0000.0001)  ploadbar=  1.01061498570767E+05
 cg2d: Sum(rhs),rhsMax =  -6.30697607703250E+01  1.43893164534473E+00
(PID.TID 0000.0001)  ploadbar=  1.01062686518816E+05
 cg2d: Sum(rhs),rhsMax =  -6.37015071436674E+01  1.42424914962353E+00
(PID.TID 0000.0001)  ploadbar=  1.01063874466864E+05
 cg2d: Sum(rhs),rhsMax =  -6.41708639454884E+01  1.41337772526266E+00
(PID.TID 0000.0001)  ploadbar=  1.01065062414913E+05
 cg2d: Sum(rhs),rhsMax =  -6.42527050144777E+01  1.41107747262486E+00
(PID.TID 0000.0001)  ploadbar=  1.01066250362962E+05
 cg2d: Sum(rhs),rhsMax =  -6.43201544151402E+01  1.40915526072186E+00
(PID.TID 0000.0001)  ploadbar=  1.01066025593410E+05
 cg2d: Sum(rhs),rhsMax =  -6.43843280807323E+01  1.40736440569974E+00
(PID.TID 0000.0001)  ploadbar=  1.01065800823859E+05
 cg2d: Sum(rhs),rhsMax =  -6.44413871474123E+01  1.40578365883328E+00
(PID.TID 0000.0001)  ploadbar=  1.01065576054307E+05
 cg2d: Sum(rhs),rhsMax =  -6.44915401362632E+01  1.40440310591918E+00
(PID.TID 0000.0001)  ploadbar=  1.01065351284755E+05
 cg2d: Sum(rhs),rhsMax =  -6.45375107535036E+01  1.40315587978894E+00
(PID.TID 0000.0001)  ploadbar=  1.01065126515204E+05
 cg2d: Sum(rhs),rhsMax =  -6.45806505214013E+01  1.40200237087400E+00
(PID.TID 0000.0001)  ploadbar=  1.01064901745652E+05
 cg2d: Sum(rhs),rhsMax =  -6.45920354750402E+01  1.40153989109988E+00
(PID.TID 0000.0001)  ploadbar=  1.01065709089233E+05
 cg2d: Sum(rhs),rhsMax =  -6.45889485714281E+01  1.40138686805410E+00
(PID.TID 0000.0001)  ploadbar=  1.01066516432813E+05
 cg2d: Sum(rhs),rhsMax =  -6.45767957305627E+01  1.40141802530960E+00
(PID.TID 0000.0001)  ploadbar=  1.01067323776394E+05
 cg2d: Sum(rhs),rhsMax =  -6.45485529037977E+01  1.40177919316718E+00
(PID.TID 0000.0001)  ploadbar=  1.01068131119975E+05
 cg2d: Sum(rhs),rhsMax =  -6.45022015969965E+01  1.40251253150970E+00
(PID.TID 0000.0001)  ploadbar=  1.01068938463555E+05
 cg2d: Sum(rhs),rhsMax =  -6.44357518004913E+01  1.40365608840708E+00
(PID.TID 0000.0001)  ploadbar=  1.01069745807136E+05
 cg2d: Sum(rhs),rhsMax =  -6.43593261734541E+01  1.40501425128132E+00
(PID.TID 0000.0001)  ploadbar=  1.01071273411471E+05
 cg2d: Sum(rhs),rhsMax =  -6.42596898004338E+01  1.40687727617727E+00
(PID.TID 0000.0001)  ploadbar=  1.01072801015807E+05
 cg2d: Sum(rhs),rhsMax =  -6.41399688971588E+01  1.40917791960020E+00
(PID.TID 0000.0001)  ploadbar=  1.01074328620142E+05
 cg2d: Sum(rhs),rhsMax =  -6.40012687418496E+01  1.41189309498061E+00
(PID.TID 0000.0001)  ploadbar=  1.01075856224478E+05
 cg2d: Sum(rhs),rhsMax =  -6.38418964232917E+01  1.41505995705933E+00
(PID.TID 0000.0001)  ploadbar=  1.01077383828813E+05
 cg2d: Sum(rhs),rhsMax =  -6.36607397096885E+01  1.41870368930030E+00
(PID.TID 0000.0001)  ploadbar=  1.01078911433149E+05
 cg2d: Sum(rhs),rhsMax =  -6.34601146384009E+01  1.42276223864150E+00
(PID.TID 0000.0001)  ploadbar=  1.01079164824774E+05
 cg2d: Sum(rhs),rhsMax =  -6.32385153056406E+01  1.42727464165516E+00
(PID.TID 0000.0001)  ploadbar=  1.01079418216399E+05
 cg2d: Sum(rhs),rhsMax =  -6.30059899020636E+01  1.43201849465394E+00
(PID.TID 0000.0001)  ploadbar=  1.01079671608025E+05
 cg2d: Sum(rhs),rhsMax =  -6.27607202360484E+01  1.43703706563576E+00
(PID.TID 0000.0001)  ploadbar=  1.01079924999650E+05
 cg2d: Sum(rhs),rhsMax =  -6.25014565834432E+01  1.44236292239257E+00
(PID.TID 0000.0001)  ploadbar=  1.01080178391276E+05
 cg2d: Sum(rhs),rhsMax =  -6.22296740404944E+01  1.44796668229010E+00
(PID.TID 0000.0001)  ploadbar=  1.01080431782901E+05
 cg2d: Sum(rhs),rhsMax =  -6.19724922368549E+01  1.45333336944466E+00
(PID.TID 0000.0001)  ploadbar=  1.01080845374981E+05
 cg2d: Sum(rhs),rhsMax =  -6.17135759059388E+01  1.45883758091474E+00
(PID.TID 0000.0001)  ploadbar=  1.01081258967061E+05
 cg2d: Sum(rhs),rhsMax =  -6.14521931221987E+01  1.46449664638703E+00
(PID.TID 0000.0001)  ploadbar=  1.01081672559141E+05
 cg2d: Sum(rhs),rhsMax =  -6.11930639189991E+01  1.47019583998240E+00
(PID.TID 0000.0001)  ploadbar=  1.01082086151220E+05
 cg2d: Sum(rhs),rhsMax =  -6.09366591561136E+01  1.47591982451087E+00
(PID.TID 0000.0001)  ploadbar=  1.01082499743300E+05
 cg2d: Sum(rhs),rhsMax =  -6.06836458641781E+01  1.48164553132124E+00
(PID.TID 0000.0001)  ploadbar=  1.01082913335380E+05
 cg2d: Sum(rhs),rhsMax =  -6.04267172606375E+01  1.48752451767930E+00
(PID.TID 0000.0001)  ploadbar=  1.01084374949727E+05
 cg2d: Sum(rhs),rhsMax =  -6.01769455711916E+01  1.49328082319577E+00
(PID.TID 0000.0001)  ploadbar=  1.01085836564074E+05
 cg2d: Sum(rhs),rhsMax =  -5.99349290075031E+01  1.49888774285197E+00
(PID.TID 0000.0001)  ploadbar=  1.01087298178421E+05
 cg2d: Sum(rhs),rhsMax =  -5.96986412008829E+01  1.50438608002576E+00
(PID.TID 0000.0001)  ploadbar=  1.01088759792768E+05
 cg2d: Sum(rhs),rhsMax =  -5.94668494924820E+01  1.50980218357201E+00
(PID.TID 0000.0001)  ploadbar=  1.01090221407115E+05
 cg2d: Sum(rhs),rhsMax =  -5.92391690818150E+01  1.51513996733915E+00
(PID.TID 0000.0001)  ploadbar=  1.01091683021462E+05
 cg2d: Sum(rhs),rhsMax =  -5.90215741290951E+01  1.52027111262382E+00
(PID.TID 0000.0001)  ploadbar=  1.01092445683921E+05
 cg2d: Sum(rhs),rhsMax =  -5.88057209899725E+01  1.52540249318160E+00
(PID.TID 0000.0001)  ploadbar=  1.01093208346380E+05
 cg2d: Sum(rhs),rhsMax =  -5.85899882154888E+01  1.53057154986493E+00
(PID.TID 0000.0001)  ploadbar=  1.01093971008839E+05
 cg2d: Sum(rhs),rhsMax =  -5.83722701763893E+01  1.53582790043638E+00
(PID.TID 0000.0001)  ploadbar=  1.01094733671298E+05
 cg2d: Sum(rhs),rhsMax =  -5.81534875175279E+01  1.54114560749154E+00
(PID.TID 0000.0001)  ploadbar=  1.01095496333758E+05
 cg2d: Sum(rhs),rhsMax =  -5.79342436884044E+01  1.54650814386011E+00
(PID.TID 0000.0001)  ploadbar=  1.01096258996217E+05
 cg2d: Sum(rhs),rhsMax =  -5.76980414389183E+01  1.55231958229064E+00
(PID.TID 0000.0001)  ploadbar=  1.01097608441159E+05
 cg2d: Sum(rhs),rhsMax =  -5.74595434296926E+01  1.55818728208815E+00
(PID.TID 0000.0001)  ploadbar=  1.01098957886102E+05
 cg2d: Sum(rhs),rhsMax =  -5.72197747140859E+01  1.56408222639941E+00
(PID.TID 0000.0001)  ploadbar=  1.01100307331045E+05
 cg2d: Sum(rhs),rhsMax =  -5.69779724048381E+01  1.57002376009624E+00
(PID.TID 0000.0001)  ploadbar=  1.01101656775988E+05
 cg2d: Sum(rhs),rhsMax =  -5.67335678569231E+01  1.57602649143617E+00
(PID.TID 0000.0001)  ploadbar=  1.01103006220930E+05
 cg2d: Sum(rhs),rhsMax =  -5.64864701779260E+01  1.58209273741625E+00
(PID.TID 0000.0001)  ploadbar=  1.01104355665873E+05
 cg2d: Sum(rhs),rhsMax =  -5.62382004120956E+01  1.58827475640399E+00
(PID.TID 0000.0001)  ploadbar=  1.01104796374273E+05
 cg2d: Sum(rhs),rhsMax =  -5.53612363668009E+01  1.61264798276296E+00
(PID.TID 0000.0001)  ploadbar=  1.01105237082672E+05
 cg2d: Sum(rhs),rhsMax =  -5.41394828914859E+01  1.64826436533478E+00
(PID.TID 0000.0001)  ploadbar=  1.01105677791072E+05
 cg2d: Sum(rhs),rhsMax =  -5.28489585674141E+01  1.68774516888725E+00
(PID.TID 0000.0001)  ploadbar=  1.01106118499471E+05
 cg2d: Sum(rhs),rhsMax =  -5.15182252407520E+01  1.73057267010432E+00
(PID.TID 0000.0001)  ploadbar=  1.01106559207871E+05
 cg2d: Sum(rhs),rhsMax =  -5.01711885647357E+01  1.77626329215315E+00
(PID.TID 0000.0001)  ploadbar=  1.01106999916270E+05
 cg2d: Sum(rhs),rhsMax =  -4.88331812104852E+01  1.82415625879221E+00
(PID.TID 0000.0001)  ploadbar=  1.01108596690080E+05
 cg2d: Sum(rhs),rhsMax =  -4.74903943472218E+01  1.87495224328141E+00
(PID.TID 0000.0001)  ploadbar=  1.01110193463891E+05
 cg2d: Sum(rhs),rhsMax =  -4.61301295163818E+01  1.92944755496265E+00
(PID.TID 0000.0001)  ploadbar=  1.01111790237701E+05
 cg2d: Sum(rhs),rhsMax =  -4.47588313861862E+01  1.98775087360235E+00
(PID.TID 0000.0001)  ploadbar=  1.01113387011511E+05
 cg2d: Sum(rhs),rhsMax =  -4.33909951522611E+01  2.04958042727541E+00
(PID.TID 0000.0001)  ploadbar=  1.01114983785321E+05
 cg2d: Sum(rhs),rhsMax =  -4.20419803123307E+01  2.11449196028365E+00
(PID.TID 0000.0001)  ploadbar=  1.01116580559131E+05
 cg2d: Sum(rhs),rhsMax =  -4.08013627865889E+01  2.17791188575196E+00
(PID.TID 0000.0001)  ploadbar=  1.01116913409116E+05
 cg2d: Sum(rhs),rhsMax =  -3.96863934828620E+01  2.23820029622564E+00
(PID.TID 0000.0001)  ploadbar=  1.01117246259102E+05
 cg2d: Sum(rhs),rhsMax =  -3.86955551321726E+01  2.29458079023896E+00
(PID.TID 0000.0001)  ploadbar=  1.01117579109087E+05
 cg2d: Sum(rhs),rhsMax =  -3.78161483894961E+01  2.34696982378792E+00
(PID.TID 0000.0001)  ploadbar=  1.01117911959072E+05
 cg2d: Sum(rhs),rhsMax =  -3.70354053352950E+01  2.39542746893837E+00
(PID.TID 0000.0001)  ploadbar=  1.01118244809058E+05
 cg2d: Sum(rhs),rhsMax =  -3.63417009699660E+01  2.44007966717679E+00
(PID.TID 0000.0001)  ploadbar=  1.01118577659043E+05
 cg2d: Sum(rhs),rhsMax =  -3.57197216544063E+01  2.48148210242875E+00
(PID.TID 0000.0001)  ploadbar=  1.01118738319826E+05
 cg2d: Sum(rhs),rhsMax =  -3.51458512054660E+01  2.52089275621984E+00
(PID.TID 0000.0001)  ploadbar=  1.01118898980610E+05
 cg2d: Sum(rhs),rhsMax =  -3.46071823883286E+01  2.55899400362451E+00
(PID.TID 0000.0001)  ploadbar=  1.01119059641393E+05
 cg2d: Sum(rhs),rhsMax =  -3.40958082921021E+01  2.59619884795964E+00
(PID.TID 0000.0001)  ploadbar=  1.01119220302176E+05
 cg2d: Sum(rhs),rhsMax =  -3.36087279986974E+01  2.63260607244410E+00
(PID.TID 0000.0001)  ploadbar=  1.01119380962959E+05
 cg2d: Sum(rhs),rhsMax =  -3.31569716849561E+01  2.66720865562220E+00
(PID.TID 0000.0001)  ploadbar=  1.01119541623743E+05
 cg2d: Sum(rhs),rhsMax =  -3.27392125162978E+01  2.70001976431260E+00
(PID.TID 0000.0001)  ploadbar=  1.01116962197760E+05
 cg2d: Sum(rhs),rhsMax =  -3.23692234940789E+01  2.72970340622599E+00
(PID.TID 0000.0001)  ploadbar=  1.01114382771778E+05
 cg2d: Sum(rhs),rhsMax =  -3.20502616490589E+01  2.75573747745966E+00
(PID.TID 0000.0001)  ploadbar=  1.01111803345796E+05
 cg2d: Sum(rhs),rhsMax =  -3.17832642610639E+01  2.77779271081767E+00
(PID.TID 0000.0001)  ploadbar=  1.01109223919814E+05
 cg2d: Sum(rhs),rhsMax =  -3.15659868846446E+01  2.79584874335112E+00
(PID.TID 0000.0001)  ploadbar=  1.01106644493832E+05
 cg2d: Sum(rhs),rhsMax =  -3.13851294247101E+01  2.81091973347291E+00
(PID.TID 0000.0001)  ploadbar=  1.01104065067850E+05
 cg2d: Sum(rhs),rhsMax =  -3.12537119328698E+01  2.82173223355643E+00
(PID.TID 0000.0001)  ploadbar=  1.01103997825697E+05
 cg2d: Sum(rhs),rhsMax =  -3.11613952902922E+01  2.82911222315817E+00
(PID.TID 0000.0001)  ploadbar=  1.01103930583545E+05
 cg2d: Sum(rhs),rhsMax =  -3.11054695595626E+01  2.83323268717069E+00
(PID.TID 0000.0001)  ploadbar=  1.01103863341393E+05
 cg2d: Sum(rhs),rhsMax =  -3.10857214783712E+01  2.83407490370854E+00
(PID.TID 0000.0001)  ploadbar=  1.01103796099240E+05
 cg2d: Sum(rhs),rhsMax =  -3.11002799185615E+01  2.83178809632460E+00
(PID.TID 0000.0001)  ploadbar=  1.01103728857088E+05
 cg2d: Sum(rhs),rhsMax =  -3.11438716991632E+01  2.82685273129412E+00
(PID.TID 0000.0001)  ploadbar=  1.01103661614935E+05
 cg2d: Sum(rhs),rhsMax =  -3.12084096404218E+01  2.82008306336739E+00
(PID.TID 0000.0001)  ploadbar=  1.01103628663314E+05
 cg2d: Sum(rhs),rhsMax =  -3.12924876988278E+01  2.81162598907351E+00
(PID.TID 0000.0001)  ploadbar=  1.01103595711693E+05
 cg2d: Sum(rhs),rhsMax =  -3.13940047327772E+01  2.80169101770387E+00
(PID.TID 0000.0001)  ploadbar=  1.01103562760071E+05
 cg2d: Sum(rhs),rhsMax =  -3.15123580309636E+01  2.79035617860913E+00
(PID.TID 0000.0001)  ploadbar=  1.01103529808450E+05
 cg2d: Sum(rhs),rhsMax =  -3.16496069880201E+01  2.77746565506866E+00
(PID.TID 0000.0001)  ploadbar=  1.01103496856829E+05
 cg2d: Sum(rhs),rhsMax =  -3.18100442279091E+01  2.76267985439527E+00
(PID.TID 0000.0001)  ploadbar=  1.01103463905207E+05
 cg2d: Sum(rhs),rhsMax =  -3.19589165109921E+01  2.74903838062323E+00
(PID.TID 0000.0001)  ploadbar=  1.01102875795594E+05
 cg2d: Sum(rhs),rhsMax =  -3.21071230267715E+01  2.73557389248231E+00
(PID.TID 0000.0001)  ploadbar=  1.01102287685982E+05
 cg2d: Sum(rhs),rhsMax =  -3.22520822216452E+01  2.72249800953382E+00
(PID.TID 0000.0001)  ploadbar=  1.01101699576369E+05
 cg2d: Sum(rhs),rhsMax =  -3.23957061727735E+01  2.70963787781300E+00
(PID.TID 0000.0001)  ploadbar=  1.01101111466756E+05
 cg2d: Sum(rhs),rhsMax =  -3.25460718420436E+01  2.69631750603513E+00
(PID.TID 0000.0001)  ploadbar=  1.01100523357143E+05
 cg2d: Sum(rhs),rhsMax =  -3.27118488273936E+01  2.68183408238169E+00
(PID.TID 0000.0001)  ploadbar=  1.01099935247530E+05
 cg2d: Sum(rhs),rhsMax =  -3.28848979993454E+01  2.66701415193667E+00
(PID.TID 0000.0001)  ploadbar=  1.01098920768281E+05
 cg2d: Sum(rhs),rhsMax =  -3.30532524332326E+01  2.65283025914301E+00
(PID.TID 0000.0001)  ploadbar=  1.01097906289033E+05
 cg2d: Sum(rhs),rhsMax =  -3.32144376152261E+01  2.63945782550426E+00
(PID.TID 0000.0001)  ploadbar=  1.01096891809784E+05
 cg2d: Sum(rhs),rhsMax =  -3.33699882749670E+01  2.62674603613006E+00
(PID.TID 0000.0001)  ploadbar=  1.01095877330535E+05
 cg2d: Sum(rhs),rhsMax =  -3.35225185603232E+01  2.61446229236082E+00
(PID.TID 0000.0001)  ploadbar=  1.01094862851286E+05
 cg2d: Sum(rhs),rhsMax =  -3.36714786778610E+01  2.60262387974143E+00
(PID.TID 0000.0001)  ploadbar=  1.01093848372038E+05
 cg2d: Sum(rhs),rhsMax =  -3.38449223965844E+01  2.58901918701164E+00
(PID.TID 0000.0001)  ploadbar=  1.01092346046292E+05
 cg2d: Sum(rhs),rhsMax =  -3.40137984139375E+01  2.57589147780524E+00
(PID.TID 0000.0001)  ploadbar=  1.01090843720546E+05
 cg2d: Sum(rhs),rhsMax =  -3.41914307174013E+01  2.56221377704533E+00
(PID.TID 0000.0001)  ploadbar=  1.01089341394800E+05
 cg2d: Sum(rhs),rhsMax =  -3.43894929818081E+01  2.54713252095503E+00
(PID.TID 0000.0001)  ploadbar=  1.01087839069053E+05
 cg2d: Sum(rhs),rhsMax =  -3.46100579845223E+01  2.53053371856293E+00
(PID.TID 0000.0001)  ploadbar=  1.01086336743307E+05
 cg2d: Sum(rhs),rhsMax =  -3.48504468962265E+01  2.51265947784594E+00
(PID.TID 0000.0001)  ploadbar=  1.01084834417561E+05
 cg2d: Sum(rhs),rhsMax =  -3.50954816380812E+01  2.49470267079172E+00
(PID.TID 0000.0001)  ploadbar=  1.01083124830448E+05
 cg2d: Sum(rhs),rhsMax =  -3.53556918846375E+01  2.47592809544494E+00
(PID.TID 0000.0001)  ploadbar=  1.01081415243335E+05
 cg2d: Sum(rhs),rhsMax =  -3.56211942037484E+01  2.45705251110577E+00
(PID.TID 0000.0001)  ploadbar=  1.01079705656221E+05
 cg2d: Sum(rhs),rhsMax =  -3.58806895803772E+01  2.43884841481735E+00
(PID.TID 0000.0001)  ploadbar=  1.01077996069108E+05
 cg2d: Sum(rhs),rhsMax =  -3.61320563012878E+01  2.42142544508712E+00
(PID.TID 0000.0001)  ploadbar=  1.01076286481994E+05
 cg2d: Sum(rhs),rhsMax =  -3.63841088353050E+01  2.40416135267878E+00
(PID.TID 0000.0001)  ploadbar=  1.01074576894881E+05
 cg2d: Sum(rhs),rhsMax =  -3.66605880482061E+01  2.38548407130650E+00
(PID.TID 0000.0001)  ploadbar=  1.01072501693505E+05
 cg2d: Sum(rhs),rhsMax =  -3.69623911104891E+01  2.36540107458829E+00
(PID.TID 0000.0001)  ploadbar=  1.01070426492129E+05
 cg2d: Sum(rhs),rhsMax =  -3.72883562975926E+01  2.34405753934916E+00
(PID.TID 0000.0001)  ploadbar=  1.01068351290753E+05
 cg2d: Sum(rhs),rhsMax =  -3.76376016278837E+01  2.32157884470095E+00
(PID.TID 0000.0001)  ploadbar=  1.01066276089377E+05
 cg2d: Sum(rhs),rhsMax =  -3.80077918071255E+01  2.29817298487554E+00
(PID.TID 0000.0001)  ploadbar=  1.01064200888001E+05
 cg2d: Sum(rhs),rhsMax =  -3.83972975953873E+01  2.27399788671895E+00
(PID.TID 0000.0001)  ploadbar=  1.01062125686624E+05
 cg2d: Sum(rhs),rhsMax =  -3.88192881502668E+01  2.24848105409350E+00
(PID.TID 0000.0001)  ploadbar=  1.01060329028973E+05
 cg2d: Sum(rhs),rhsMax =  -3.92356878548856E+01  2.22388258187968E+00
(PID.TID 0000.0001)  ploadbar=  1.01058532371322E+05
 cg2d: Sum(rhs),rhsMax =  -3.96205470183794E+01  2.20160167311155E+00
(PID.TID 0000.0001)  ploadbar=  1.01056735713670E+05
 cg2d: Sum(rhs),rhsMax =  -3.99346279736987E+01  2.18365233786337E+00
(PID.TID 0000.0001)  ploadbar=  1.01054939056019E+05
 cg2d: Sum(rhs),rhsMax =  -4.01459336408703E+01  2.17156458172735E+00
(PID.TID 0000.0001)  ploadbar=  1.01053142398367E+05
 cg2d: Sum(rhs),rhsMax =  -4.02737225450292E+01  2.16410804067648E+00
(PID.TID 0000.0001)  ploadbar=  1.01051345740716E+05
 cg2d: Sum(rhs),rhsMax =  -4.03879651711511E+01  2.15745095717082E+00
(PID.TID 0000.0001)  ploadbar=  1.01049363629346E+05
 cg2d: Sum(rhs),rhsMax =  -4.04810019817466E+01  2.15198343033781E+00
(PID.TID 0000.0001)  ploadbar=  1.01047381517976E+05
 cg2d: Sum(rhs),rhsMax =  -4.05062817450664E+01  2.15015287214441E+00
(PID.TID 0000.0001)  ploadbar=  1.01045399406607E+05
 cg2d: Sum(rhs),rhsMax =  -4.07512458583416E+01  2.13676314729399E+00
(PID.TID 0000.0001)  ploadbar=  1.01043417295237E+05
 cg2d: Sum(rhs),rhsMax =  -4.13797853014324E+01  2.10386922148496E+00
(PID.TID 0000.0001)  ploadbar=  1.01041435183867E+05
 cg2d: Sum(rhs),rhsMax =  -4.26084595466211E+01  2.04279555133291E+00
(PID.TID 0000.0001)  ploadbar=  1.01039453072498E+05
 cg2d: Sum(rhs),rhsMax =  -4.44037504894795E+01  1.95979195313011E+00
(PID.TID 0000.0001)  ploadbar=  1.01037602507481E+05
 cg2d: Sum(rhs),rhsMax =  -4.65237699086681E+01  1.87006666399399E+00
(PID.TID 0000.0001)  ploadbar=  1.01035751942464E+05
 cg2d: Sum(rhs),rhsMax =  -4.86660298249760E+01  1.78731422319088E+00
(PID.TID 0000.0001)  ploadbar=  1.01033901377447E+05
 cg2d: Sum(rhs),rhsMax =  -5.06212899842821E+01  1.71783469452504E+00
(PID.TID 0000.0001)  ploadbar=  1.01032050812430E+05
 cg2d: Sum(rhs),rhsMax =  -5.26318103262221E+01  1.65175669872889E+00
(PID.TID 0000.0001)  ploadbar=  1.01030200247413E+05
 cg2d: Sum(rhs),rhsMax =  -5.55454644132757E+01  1.56464745869595E+00
(PID.TID 0000.0001)  ploadbar=  1.01028349682396E+05
 cg2d: Sum(rhs),rhsMax =  -5.84287843688575E+01  1.48697104485564E+00
(PID.TID 0000.0001)  ploadbar=  1.01026836875449E+05
 cg2d: Sum(rhs),rhsMax =  -5.97773241587418E+01  1.45295017021796E+00
(PID.TID 0000.0001)  ploadbar=  1.01025324068503E+05
 cg2d: Sum(rhs),rhsMax =  -5.82166760494705E+01  1.49138593613539E+00
(PID.TID 0000.0001)  ploadbar=  1.01023811261556E+05
 cg2d: Sum(rhs),rhsMax =  -5.68235799652344E+01  1.52738986414028E+00
(PID.TID 0000.0001)  ploadbar=  1.01022298454610E+05
 cg2d: Sum(rhs),rhsMax =  -5.55394285595093E+01  1.56209573145359E+00
(PID.TID 0000.0001)  ploadbar=  1.01020785647663E+05
 cg2d: Sum(rhs),rhsMax =  -5.43169379438554E+01  1.59658917626591E+00
(PID.TID 0000.0001)  ploadbar=  1.01019272840716E+05
 cg2d: Sum(rhs),rhsMax =  -5.35270609319670E+01  1.61955782696417E+00
(PID.TID 0000.0001)  ploadbar=  1.01017657914290E+05
 cg2d: Sum(rhs),rhsMax =  -5.28561396530753E+01  1.63959450450487E+00
(PID.TID 0000.0001)  ploadbar=  1.01016042987863E+05
 cg2d: Sum(rhs),rhsMax =  -5.21524426299730E+01  1.66126348852961E+00
(PID.TID 0000.0001)  ploadbar=  1.01014428061437E+05
 cg2d: Sum(rhs),rhsMax =  -5.17174901454746E+01  1.67484923527160E+00
(PID.TID 0000.0001)  ploadbar=  1.01012813135010E+05
 cg2d: Sum(rhs),rhsMax =  -5.14426014827075E+01  1.68347953824643E+00
(PID.TID 0000.0001)  ploadbar=  1.01011198208584E+05
 cg2d: Sum(rhs),rhsMax =  -5.12442976915002E+01  1.68973995153420E+00
(PID.TID 0000.0001)  ploadbar=  1.01009583282157E+05
 cg2d: Sum(rhs),rhsMax =  -5.10723491787882E+01  1.69519808673525E+00
(PID.TID 0000.0001)  ploadbar=  1.01008621540755E+05
 cg2d: Sum(rhs),rhsMax =  -5.09096537350149E+01  1.70040236564401E+00
(PID.TID 0000.0001)  ploadbar=  1.01007659799352E+05
 cg2d: Sum(rhs),rhsMax =  -5.07077377597527E+01  1.70697253836751E+00
(PID.TID 0000.0001)  ploadbar=  1.01006698057950E+05
 cg2d: Sum(rhs),rhsMax =  -5.04765092407954E+01  1.71459883328993E+00
(PID.TID 0000.0001)  ploadbar=  1.01005736316548E+05
 cg2d: Sum(rhs),rhsMax =  -5.02267102857938E+01  1.72294216527114E+00
(PID.TID 0000.0001)  ploadbar=  1.01004774575146E+05
 cg2d: Sum(rhs),rhsMax =  -4.99627712548162E+01  1.73186916229956E+00
(PID.TID 0000.0001)  ploadbar=  1.01003812833743E+05
 cg2d: Sum(rhs),rhsMax =  -4.96953956130183E+01  1.74101232265411E+00
(PID.TID 0000.0001)  ploadbar=  1.01003376183838E+05
 cg2d: Sum(rhs),rhsMax =  -4.94081133504157E+01  1.75095524761155E+00
(PID.TID 0000.0001)  ploadbar=  1.01002939533932E+05
 cg2d: Sum(rhs),rhsMax =  -4.91155280437748E+01  1.76119867238098E+00
(PID.TID 0000.0001)  ploadbar=  1.01002502884026E+05
 cg2d: Sum(rhs),rhsMax =  -4.88304107816756E+01  1.77128422225146E+00
(PID.TID 0000.0001)  ploadbar=  1.01002066234120E+05
 cg2d: Sum(rhs),rhsMax =  -4.85748122836630E+01  1.78038806348907E+00
(PID.TID 0000.0001)  ploadbar=  1.01001629584215E+05
 cg2d: Sum(rhs),rhsMax =  -4.83598221013074E+01  1.78806160324269E+00
(PID.TID 0000.0001)  ploadbar=  1.01001192934309E+05
 cg2d: Sum(rhs),rhsMax =  -4.81370618736714E+01  1.79607515987040E+00
(PID.TID 0000.0001)  ploadbar=  1.01001201472928E+05
 cg2d: Sum(rhs),rhsMax =  -4.79397354412800E+01  1.80318771502742E+00
(PID.TID 0000.0001)  ploadbar=  1.01001210011547E+05
 cg2d: Sum(rhs),rhsMax =  -4.77631200339612E+01  1.80955334234448E+00
(PID.TID 0000.0001)  ploadbar=  1.01001218550165E+05
 cg2d: Sum(rhs),rhsMax =  -4.76008931263176E+01  1.81538862898526E+00
(PID.TID 0000.0001)  ploadbar=  1.01001227088784E+05
 cg2d: Sum(rhs),rhsMax =  -4.74525818453333E+01  1.82069678691703E+00
(PID.TID 0000.0001)  ploadbar=  1.01001235627403E+05
 cg2d: Sum(rhs),rhsMax =  -4.73318012417382E+01  1.82493706576683E+00
(PID.TID 0000.0001)  ploadbar=  1.01001244166022E+05
 cg2d: Sum(rhs),rhsMax =  -4.72551311243765E+01  1.82754976985521E+00
(PID.TID 0000.0001)  ploadbar=  1.01002117120839E+05
 cg2d: Sum(rhs),rhsMax =  -4.71786217682136E+01  1.83022164830144E+00
(PID.TID 0000.0001)  ploadbar=  1.01002990075656E+05
 cg2d: Sum(rhs),rhsMax =  -4.71139060376316E+01  1.83249597067597E+00
(PID.TID 0000.0001)  ploadbar=  1.01003863030472E+05
 cg2d: Sum(rhs),rhsMax =  -4.70572249057617E+01  1.83451180699482E+00
(PID.TID 0000.0001)  ploadbar=  1.01004735985289E+05
 cg2d: Sum(rhs),rhsMax =  -4.70108633687833E+01  1.83617133067262E+00
(PID.TID 0000.0001)  ploadbar=  1.01005608940106E+05
 cg2d: Sum(rhs),rhsMax =  -4.69791215911326E+01  1.83729892963269E+00
(PID.TID 0000.0001)  ploadbar=  1.01006481894923E+05
 cg2d: Sum(rhs),rhsMax =  -4.69395538906308E+01  1.83875684058588E+00
(PID.TID 0000.0001)  ploadbar=  1.01006942540371E+05
 cg2d: Sum(rhs),rhsMax =  -4.69231743465253E+01  1.83932439265959E+00
(PID.TID 0000.0001)  ploadbar=  1.01007403185819E+05
 cg2d: Sum(rhs),rhsMax =  -4.69187803456126E+01  1.83943532966230E+00
(PID.TID 0000.0001)  ploadbar=  1.01007863831267E+05
 cg2d: Sum(rhs),rhsMax =  -4.69286981519337E+01  1.83899492971396E+00
(PID.TID 0000.0001)  ploadbar=  1.01008324476715E+05
 cg2d: Sum(rhs),rhsMax =  -4.69482525420640E+01  1.83818132189476E+00
(PID.TID 0000.0001)  ploadbar=  1.01008785122162E+05
 cg2d: Sum(rhs),rhsMax =  -4.69757091720446E+01  1.83705976496893E+00
(PID.TID 0000.0001)  ploadbar=  1.01009245767610E+05
 cg2d: Sum(rhs),rhsMax =  -4.71075716176281E+01  1.83184660956463E+00
(PID.TID 0000.0001)  ploadbar=  1.01009212551515E+05
 cg2d: Sum(rhs),rhsMax =  -4.74504312668216E+01  1.81851297382186E+00
(PID.TID 0000.0001)  ploadbar=  1.01009179335419E+05
 cg2d: Sum(rhs),rhsMax =  -4.77839789146582E+01  1.80569128027277E+00
(PID.TID 0000.0001)  ploadbar=  1.01009146119324E+05
 cg2d: Sum(rhs),rhsMax =  -4.81065586092616E+01  1.79341990824745E+00
(PID.TID 0000.0001)  ploadbar=  1.01009112903229E+05
 cg2d: Sum(rhs),rhsMax =  -4.84190522372935E+01  1.78164051992229E+00
(PID.TID 0000.0001)  ploadbar=  1.01009079687133E+05
 cg2d: Sum(rhs),rhsMax =  -4.87221569272667E+01  1.77030091481658E+00
(PID.TID 0000.0001)  ploadbar=  1.01009046471038E+05
 cg2d: Sum(rhs),rhsMax =  -4.90262701883732E+01  1.75905176307354E+00
(PID.TID 0000.0001)  ploadbar=  1.01009111438115E+05
 cg2d: Sum(rhs),rhsMax =  -4.93232010631570E+01  1.74818158359260E+00
(PID.TID 0000.0001)  ploadbar=  1.01009176405192E+05
 cg2d: Sum(rhs),rhsMax =  -4.96098934016595E+01  1.73777743690000E+00
(PID.TID 0000.0001)  ploadbar=  1.01009241372269E+05
 cg2d: Sum(rhs),rhsMax =  -4.98920325629573E+01  1.72762406826651E+00
(PID.TID 0000.0001)  ploadbar=  1.01009306339346E+05
 cg2d: Sum(rhs),rhsMax =  -5.01690231926646E+01  1.71772711379253E+00
(PID.TID 0000.0001)  ploadbar=  1.01009371306423E+05
 cg2d: Sum(rhs),rhsMax =  -5.04414491071127E+01  1.70805741183694E+00
(PID.TID 0000.0001)  ploadbar=  1.01009436273500E+05
 cg2d: Sum(rhs),rhsMax =  -5.06928028674623E+01  1.69928472774054E+00
(PID.TID 0000.0001)  ploadbar=  1.01009981688788E+05
 cg2d: Sum(rhs),rhsMax =  -5.08790032967381E+01  1.69284493910312E+00
(PID.TID 0000.0001)  ploadbar=  1.01010527104076E+05
 cg2d: Sum(rhs),rhsMax =  -5.10517808542286E+01  1.68696991004991E+00
(PID.TID 0000.0001)  ploadbar=  1.01011072519363E+05
 cg2d: Sum(rhs),rhsMax =  -5.12188668833268E+01  1.68138829314032E+00
(PID.TID 0000.0001)  ploadbar=  1.01011617934651E+05
 cg2d: Sum(rhs),rhsMax =  -5.13827994739520E+01  1.67600633830721E+00
(PID.TID 0000.0001)  ploadbar=  1.01012163349939E+05
 cg2d: Sum(rhs),rhsMax =  -5.15407852436304E+01  1.67090578742149E+00
(PID.TID 0000.0001)  ploadbar=  1.01012708765226E+05
 cg2d: Sum(rhs),rhsMax =  -5.16697136057358E+01  1.66676695976431E+00
(PID.TID 0000.0001)  ploadbar=  1.01011997236032E+05
 cg2d: Sum(rhs),rhsMax =  -5.17949472736060E+01  1.66275080925149E+00
(PID.TID 0000.0001)  ploadbar=  1.01011285706839E+05
 cg2d: Sum(rhs),rhsMax =  -5.19206297184261E+01  1.65871731741480E+00
(PID.TID 0000.0001)  ploadbar=  1.01010574177645E+05
 cg2d: Sum(rhs),rhsMax =  -5.20451425207590E+01  1.65471403210535E+00
(PID.TID 0000.0001)  ploadbar=  1.01009862648452E+05
 cg2d: Sum(rhs),rhsMax =  -5.21690632741215E+01  1.65071535300154E+00
(PID.TID 0000.0001)  ploadbar=  1.01009151119258E+05
 cg2d: Sum(rhs),rhsMax =  -5.22911617194122E+01  1.64675602503508E+00
(PID.TID 0000.0001)  ploadbar=  1.01008439590064E+05
 cg2d: Sum(rhs),rhsMax =  -5.24061415680534E+01  1.64303201381581E+00
(PID.TID 0000.0001)  ploadbar=  1.01007821123086E+05
 cg2d: Sum(rhs),rhsMax =  -5.25155995856183E+01  1.63948499665073E+00
(PID.TID 0000.0001)  ploadbar=  1.01007202656107E+05
 cg2d: Sum(rhs),rhsMax =  -5.26299328328277E+01  1.63578744352154E+00
(PID.TID 0000.0001)  ploadbar=  1.01006584189128E+05
 cg2d: Sum(rhs),rhsMax =  -5.27442169022895E+01  1.63208929897493E+00
(PID.TID 0000.0001)  ploadbar=  1.01005965722150E+05
 cg2d: Sum(rhs),rhsMax =  -5.28582267638066E+01  1.62839386615713E+00
(PID.TID 0000.0001)  ploadbar=  1.01005347255171E+05
 cg2d: Sum(rhs),rhsMax =  -5.29724318775114E+01  1.62468355094982E+00
(PID.TID 0000.0001)  ploadbar=  1.01004728788192E+05
 cg2d: Sum(rhs),rhsMax =  -5.31048553901645E+01  1.62042268926575E+00
(PID.TID 0000.0001)  ploadbar=  1.01004440862180E+05
 cg2d: Sum(rhs),rhsMax =  -5.32369161546635E+01  1.61618220246589E+00
(PID.TID 0000.0001)  ploadbar=  1.01004152936169E+05
 cg2d: Sum(rhs),rhsMax =  -5.33672531094922E+01  1.61199829174978E+00
(PID.TID 0000.0001)  ploadbar=  1.01003865010157E+05
 cg2d: Sum(rhs),rhsMax =  -5.34958680872024E+01  1.60786370964332E+00
(PID.TID 0000.0001)  ploadbar=  1.01003577084145E+05
 cg2d: Sum(rhs),rhsMax =  -5.36195816985980E+01  1.60386787220918E+00
(PID.TID 0000.0001)  ploadbar=  1.01003289158133E+05
 cg2d: Sum(rhs),rhsMax =  -5.37337780167314E+01  1.60014753589944E+00
(PID.TID 0000.0001)  ploadbar=  1.01003001232121E+05
 cg2d: Sum(rhs),rhsMax =  -5.38302229784888E+01  1.59704786003408E+00
(PID.TID 0000.0001)  ploadbar=  1.01003189086114E+05
 cg2d: Sum(rhs),rhsMax =  -5.39054220769666E+01  1.59466305022312E+00
(PID.TID 0000.0001)  ploadbar=  1.01003376940107E+05
 cg2d: Sum(rhs),rhsMax =  -5.39574512323742E+01  1.59303986468030E+00
(PID.TID 0000.0001)  ploadbar=  1.01003564794101E+05
 cg2d: Sum(rhs),rhsMax =  -5.39806710160594E+01  1.59233552535578E+00
(PID.TID 0000.0001)  ploadbar=  1.01003752648094E+05
 cg2d: Sum(rhs),rhsMax =  -5.39732842168169E+01  1.59259581366897E+00
(PID.TID 0000.0001)  ploadbar=  1.01003940502087E+05
 cg2d: Sum(rhs),rhsMax =  -5.39372099891111E+01  1.59375796166126E+00
(PID.TID 0000.0001)  ploadbar=  1.01004128356081E+05
 cg2d: Sum(rhs),rhsMax =  -5.38890256625683E+01  1.59527481859012E+00
(PID.TID 0000.0001)  ploadbar=  1.01003486071884E+05
 cg2d: Sum(rhs),rhsMax =  -5.38148153973098E+01  1.59755757133675E+00
(PID.TID 0000.0001)  ploadbar=  1.01002843787686E+05
 cg2d: Sum(rhs),rhsMax =  -5.37113918563929E+01  1.60070088746532E+00
(PID.TID 0000.0001)  ploadbar=  1.01002201503489E+05
 cg2d: Sum(rhs),rhsMax =  -5.35801017533034E+01  1.60466785094275E+00
(PID.TID 0000.0001)  ploadbar=  1.01001559219292E+05
 cg2d: Sum(rhs),rhsMax =  -5.34194105195181E+01  1.60950985413792E+00
(PID.TID 0000.0001)  ploadbar=  1.01000916935095E+05
 cg2d: Sum(rhs),rhsMax =  -5.32285580977699E+01  1.61526268801245E+00
(PID.TID 0000.0001)  ploadbar=  1.01000274650898E+05
 cg2d: Sum(rhs),rhsMax =  -5.30177855468640E+01  1.62168487262938E+00
(PID.TID 0000.0001)  ploadbar=  1.00999766561883E+05
 cg2d: Sum(rhs),rhsMax =  -5.28050593567289E+01  1.62823113461909E+00
(PID.TID 0000.0001)  ploadbar=  1.00999258472867E+05
 cg2d: Sum(rhs),rhsMax =  -5.26103405968974E+01  1.63427898872399E+00
(PID.TID 0000.0001)  ploadbar=  1.00998750383852E+05
 cg2d: Sum(rhs),rhsMax =  -5.24376195486593E+01  1.63968791116265E+00
(PID.TID 0000.0001)  ploadbar=  1.00998242294836E+05
 cg2d: Sum(rhs),rhsMax =  -5.22942556334705E+01  1.64420715883719E+00
(PID.TID 0000.0001)  ploadbar=  1.00997734205821E+05
 cg2d: Sum(rhs),rhsMax =  -5.21846312025270E+01  1.64767673160041E+00
(PID.TID 0000.0001)  ploadbar=  1.00997226116805E+05
 cg2d: Sum(rhs),rhsMax =  -5.21317433941310E+01  1.64936471437733E+00
(PID.TID 0000.0001)  ploadbar=  1.00996314948131E+05
 cg2d: Sum(rhs),rhsMax =  -5.21204767989229E+01  1.64972697198305E+00
(PID.TID 0000.0001)  ploadbar=  1.00995403779457E+05
 cg2d: Sum(rhs),rhsMax =  -5.21418307939849E+01  1.64904016069950E+00
(PID.TID 0000.0001)  ploadbar=  1.00994492610782E+05
 cg2d: Sum(rhs),rhsMax =  -5.21988319228049E+01  1.64721132626367E+00
(PID.TID 0000.0001)  ploadbar=  1.00993581442108E+05
 cg2d: Sum(rhs),rhsMax =  -5.22875395673148E+01  1.64437159656340E+00
(PID.TID 0000.0001)  ploadbar=  1.00992670273434E+05
 cg2d: Sum(rhs),rhsMax =  -5.24033398667253E+01  1.64067270797509E+00
(PID.TID 0000.0001)  ploadbar=  1.00991759104759E+05
 cg2d: Sum(rhs),rhsMax =  -5.25633806636125E+01  1.63567792473943E+00
(PID.TID 0000.0001)  ploadbar=  1.00992949505258E+05
 cg2d: Sum(rhs),rhsMax =  -5.27458990050610E+01  1.63008519122738E+00
(PID.TID 0000.0001)  ploadbar=  1.00994139905757E+05
 cg2d: Sum(rhs),rhsMax =  -5.29397095070449E+01  1.62425308322305E+00
(PID.TID 0000.0001)  ploadbar=  1.00995330306256E+05
 cg2d: Sum(rhs),rhsMax =  -5.31368353223923E+01  1.61842427538660E+00
(PID.TID 0000.0001)  ploadbar=  1.00996520706755E+05
 cg2d: Sum(rhs),rhsMax =  -5.33318242972417E+01  1.61275626553773E+00
(PID.TID 0000.0001)  ploadbar=  1.00997711107253E+05
 cg2d: Sum(rhs),rhsMax =  -5.35212119782576E+01  1.60734456103155E+00
(PID.TID 0000.0001)  ploadbar=  1.00998901507752E+05
 cg2d: Sum(rhs),rhsMax =  -5.37071741299925E+01  1.60205152900869E+00
(PID.TID 0000.0001)  ploadbar=  1.00999550211358E+05
 cg2d: Sum(rhs),rhsMax =  -5.38887913476322E+01  1.59689824081005E+00
(PID.TID 0000.0001)  ploadbar=  1.01000198914964E+05
 cg2d: Sum(rhs),rhsMax =  -5.40601723037998E+01  1.59204760559195E+00
(PID.TID 0000.0001)  ploadbar=  1.01000847618570E+05
 cg2d: Sum(rhs),rhsMax =  -5.42241159558450E+01  1.58740558659608E+00
(PID.TID 0000.0001)  ploadbar=  1.01001496322176E+05
 cg2d: Sum(rhs),rhsMax =  -5.43841035630699E+01  1.58286085867242E+00
(PID.TID 0000.0001)  ploadbar=  1.01002145025781E+05
 cg2d: Sum(rhs),rhsMax =  -5.45337333613396E+01  1.57859609092428E+00
(PID.TID 0000.0001)  ploadbar=  1.01002793729387E+05
 cg2d: Sum(rhs),rhsMax =  -5.46760561016958E+01  1.57456394914698E+00
(PID.TID 0000.0001)  ploadbar=  1.01004354675381E+05
 cg2d: Sum(rhs),rhsMax =  -5.48128445156136E+01  1.57070497833272E+00
(PID.TID 0000.0001)  ploadbar=  1.01005915621374E+05
 cg2d: Sum(rhs),rhsMax =  -5.49418487809980E+01  1.56707538335961E+00
(PID.TID 0000.0001)  ploadbar=  1.01007476567368E+05
 cg2d: Sum(rhs),rhsMax =  -5.50701807502791E+01  1.56346588054820E+00
(PID.TID 0000.0001)  ploadbar=  1.01009037513361E+05
 cg2d: Sum(rhs),rhsMax =  -5.52042043425518E+01  1.55969079227305E+00
(PID.TID 0000.0001)  ploadbar=  1.01010598459355E+05
 cg2d: Sum(rhs),rhsMax =  -5.53434461002848E+01  1.55575886067483E+00
(PID.TID 0000.0001)  ploadbar=  1.01012159405348E+05
 cg2d: Sum(rhs),rhsMax =  -5.54600049173338E+01  1.55244256556384E+00
(PID.TID 0000.0001)  ploadbar=  1.01013901388504E+05
 cg2d: Sum(rhs),rhsMax =  -5.55713772994230E+01  1.54924614201108E+00
(PID.TID 0000.0001)  ploadbar=  1.01015643371660E+05
 cg2d: Sum(rhs),rhsMax =  -5.56853237480413E+01  1.54594807204732E+00
(PID.TID 0000.0001)  ploadbar=  1.01017385354815E+05
 cg2d: Sum(rhs),rhsMax =  -5.57998794047182E+01  1.54260283705904E+00
(PID.TID 0000.0001)  ploadbar=  1.01019127337971E+05
 cg2d: Sum(rhs),rhsMax =  -5.59059164075255E+01  1.53946124898863E+00
(PID.TID 0000.0001)  ploadbar=  1.01020869321127E+05
 cg2d: Sum(rhs),rhsMax =  -5.60049929352742E+01  1.53647577097668E+00
(PID.TID 0000.0001)  ploadbar=  1.01022611304282E+05
 cg2d: Sum(rhs),rhsMax =  -5.61042086676464E+01  1.53355952190831E+00
(PID.TID 0000.0001)  ploadbar=  1.01025423218284E+05
 cg2d: Sum(rhs),rhsMax =  -5.61904732887618E+01  1.53106796872833E+00
(PID.TID 0000.0001)  ploadbar=  1.01028235132286E+05
 cg2d: Sum(rhs),rhsMax =  -5.62713198100194E+01  1.52879246195612E+00
(PID.TID 0000.0001)  ploadbar=  1.01031047046288E+05
 cg2d: Sum(rhs),rhsMax =  -5.63400203409891E+01  1.52690866368536E+00
(PID.TID 0000.0001)  ploadbar=  1.01033858960290E+05
 cg2d: Sum(rhs),rhsMax =  -5.63957326992900E+01  1.52542971448256E+00
(PID.TID 0000.0001)  ploadbar=  1.01036670874291E+05
 cg2d: Sum(rhs),rhsMax =  -5.64423825867050E+01  1.52424103386534E+00
(PID.TID 0000.0001)  ploadbar=  1.01039482788293E+05
 cg2d: Sum(rhs),rhsMax =  -5.64654931778887E+01  1.52370431381688E+00
(PID.TID 0000.0001)  ploadbar=  1.01041155659772E+05
 cg2d: Sum(rhs),rhsMax =  -5.64748037752921E+01  1.52354924664699E+00
(PID.TID 0000.0001)  ploadbar=  1.01042828531251E+05
 cg2d: Sum(rhs),rhsMax =  -5.64757180071108E+01  1.52362681679693E+00
(PID.TID 0000.0001)  ploadbar=  1.01044501402730E+05
 cg2d: Sum(rhs),rhsMax =  -5.64662636792080E+01  1.52398139735822E+00
(PID.TID 0000.0001)  ploadbar=  1.01046174274209E+05
 cg2d: Sum(rhs),rhsMax =  -5.64458281663003E+01  1.52462105246317E+00
(PID.TID 0000.0001)  ploadbar=  1.01047847145688E+05
 cg2d: Sum(rhs),rhsMax =  -5.64113201727028E+01  1.52562586356156E+00
(PID.TID 0000.0001)  ploadbar=  1.01049520017167E+05
 cg2d: Sum(rhs),rhsMax =  -5.63386549110957E+01  1.52762778620512E+00
(PID.TID 0000.0001)  ploadbar=  1.01051209824911E+05
 cg2d: Sum(rhs),rhsMax =  -5.62285803531891E+01  1.53061051437937E+00
(PID.TID 0000.0001)  ploadbar=  1.01052899632655E+05
 cg2d: Sum(rhs),rhsMax =  -5.60754832916891E+01  1.53473522947062E+00
(PID.TID 0000.0001)  ploadbar=  1.01054589440398E+05
 cg2d: Sum(rhs),rhsMax =  -5.58685344111580E+01  1.54031744207938E+00
(PID.TID 0000.0001)  ploadbar=  1.01056279248142E+05
 cg2d: Sum(rhs),rhsMax =  -5.55800287060295E+01  1.54815598309768E+00
(PID.TID 0000.0001)  ploadbar=  1.01057969055886E+05
 cg2d: Sum(rhs),rhsMax =  -5.52080003202023E+01  1.55836763832008E+00
(PID.TID 0000.0001)  ploadbar=  1.01059658863629E+05
 cg2d: Sum(rhs),rhsMax =  -5.48010380993590E+01  1.56970259861759E+00
(PID.TID 0000.0001)  ploadbar=  1.01061059325345E+05
 cg2d: Sum(rhs),rhsMax =  -5.43498022948564E+01  1.58247632792022E+00
(PID.TID 0000.0001)  ploadbar=  1.01062459787061E+05
 cg2d: Sum(rhs),rhsMax =  -5.38588975187588E+01  1.59661590492959E+00
(PID.TID 0000.0001)  ploadbar=  1.01063860248777E+05
 cg2d: Sum(rhs),rhsMax =  -5.33282332097713E+01  1.61219334313156E+00
(PID.TID 0000.0001)  ploadbar=  1.01065260710493E+05
 cg2d: Sum(rhs),rhsMax =  -5.27562542732513E+01  1.62933401370860E+00
(PID.TID 0000.0001)  ploadbar=  1.01066661172209E+05
 cg2d: Sum(rhs),rhsMax =  -5.21384057873697E+01  1.64827271093959E+00
(PID.TID 0000.0001)  ploadbar=  1.01068061633925E+05
 cg2d: Sum(rhs),rhsMax =  -5.14867761757373E+01  1.66882973702412E+00
(PID.TID 0000.0001)  ploadbar=  1.01068830276689E+05
 cg2d: Sum(rhs),rhsMax =  -5.08011284668712E+01  1.69111423261873E+00
(PID.TID 0000.0001)  ploadbar=  1.01069598919453E+05
 cg2d: Sum(rhs),rhsMax =  -5.00782942854319E+01  1.71534891828513E+00
(PID.TID 0000.0001)  ploadbar=  1.01070367562217E+05
 cg2d: Sum(rhs),rhsMax =  -4.93137307609814E+01  1.74183216939571E+00
(PID.TID 0000.0001)  ploadbar=  1.01071136204982E+05
 cg2d: Sum(rhs),rhsMax =  -4.85047828362202E+01  1.77082557715164E+00
(PID.TID 0000.0001)  ploadbar=  1.01071904847746E+05
 cg2d: Sum(rhs),rhsMax =  -4.76465547170540E+01  1.80271146504287E+00
(PID.TID 0000.0001)  ploadbar=  1.01072673490510E+05
 cg2d: Sum(rhs),rhsMax =  -4.61787809909855E+01  1.85994721278105E+00
(PID.TID 0000.0001)  ploadbar=  1.01072580482623E+05
 cg2d: Sum(rhs),rhsMax =  -4.47811350295774E+01  1.91786919164650E+00
(PID.TID 0000.0001)  ploadbar=  1.01072487474737E+05
 cg2d: Sum(rhs),rhsMax =  -4.34787607251247E+01  1.97511294358110E+00
(PID.TID 0000.0001)  ploadbar=  1.01072394466850E+05
 cg2d: Sum(rhs),rhsMax =  -4.22704870625907E+01  2.03127501115492E+00
(PID.TID 0000.0001)  ploadbar=  1.01072301458963E+05
 cg2d: Sum(rhs),rhsMax =  -4.11435649493896E+01  2.08651515446095E+00
(PID.TID 0000.0001)  ploadbar=  1.01072208451077E+05
 cg2d: Sum(rhs),rhsMax =  -4.01038275468752E+01  2.14010109723859E+00
(PID.TID 0000.0001)  ploadbar=  1.01072115443190E+05
 cg2d: Sum(rhs),rhsMax =  -3.90879723610140E+01  2.19518982852640E+00
(PID.TID 0000.0001)  ploadbar=  1.01072022508781E+05
 cg2d: Sum(rhs),rhsMax =  -3.81999349179250E+01  2.24566363978151E+00
(PID.TID 0000.0001)  ploadbar=  1.01071929574373E+05
 cg2d: Sum(rhs),rhsMax =  -3.74316595100629E+01  2.29116576567248E+00
(PID.TID 0000.0001)  ploadbar=  1.01071836639964E+05
 cg2d: Sum(rhs),rhsMax =  -3.67718353794325E+01  2.33165226424000E+00
(PID.TID 0000.0001)  ploadbar=  1.01071743705555E+05
 cg2d: Sum(rhs),rhsMax =  -3.62070747699531E+01  2.36735744185940E+00
(PID.TID 0000.0001)  ploadbar=  1.01071650771147E+05
 cg2d: Sum(rhs),rhsMax =  -3.57323289317261E+01  2.39810087771808E+00
(PID.TID 0000.0001)  ploadbar=  1.01071557836738E+05
 cg2d: Sum(rhs),rhsMax =  -3.53054528094117E+01  2.42637994968970E+00
(PID.TID 0000.0001)  ploadbar=  1.01070657567954E+05
 cg2d: Sum(rhs),rhsMax =  -3.49407035242428E+01  2.45097652367598E+00
(PID.TID 0000.0001)  ploadbar=  1.01069757299170E+05
 cg2d: Sum(rhs),rhsMax =  -3.46178861954679E+01  2.47308098263240E+00
(PID.TID 0000.0001)  ploadbar=  1.01068857030386E+05
 cg2d: Sum(rhs),rhsMax =  -3.44039252477042E+01  2.48769128493926E+00
(PID.TID 0000.0001)  ploadbar=  1.01067956761602E+05
 cg2d: Sum(rhs),rhsMax =  -3.42115780109023E+01  2.50088768255463E+00
(PID.TID 0000.0001)  ploadbar=  1.01067056492818E+05
 cg2d: Sum(rhs),rhsMax =  -3.40573518293047E+01  2.51140351052745E+00
(PID.TID 0000.0001)  ploadbar=  1.01066156224034E+05
 cg2d: Sum(rhs),rhsMax =  -3.39245438602989E+01  2.52056413004171E+00
(PID.TID 0000.0001)  ploadbar=  1.01064661629086E+05
 cg2d: Sum(rhs),rhsMax =  -3.38269050381494E+01  2.52730656568768E+00
(PID.TID 0000.0001)  ploadbar=  1.01063167034138E+05
 cg2d: Sum(rhs),rhsMax =  -3.37820206267131E+01  2.53026781675319E+00
(PID.TID 0000.0001)  ploadbar=  1.01061672439190E+05
 cg2d: Sum(rhs),rhsMax =  -3.37889670113411E+01  2.52948068259511E+00
(PID.TID 0000.0001)  ploadbar=  1.01060177844242E+05
 cg2d: Sum(rhs),rhsMax =  -3.38481619857881E+01  2.52490501209991E+00
(PID.TID 0000.0001)  ploadbar=  1.01058683249294E+05
 cg2d: Sum(rhs),rhsMax =  -3.39612105735627E+01  2.51645195655277E+00
(PID.TID 0000.0001)  ploadbar=  1.01057188654347E+05
 cg2d: Sum(rhs),rhsMax =  -3.41102163776450E+01  2.50535888397922E+00
(PID.TID 0000.0001)  ploadbar=  1.01055772366905E+05
 cg2d: Sum(rhs),rhsMax =  -3.43227787374035E+01  2.48968265086602E+00
(PID.TID 0000.0001)  ploadbar=  1.01054356079463E+05
 cg2d: Sum(rhs),rhsMax =  -3.46163588542116E+01  2.46833511245989E+00
(PID.TID 0000.0001)  ploadbar=  1.01052939792021E+05
 cg2d: Sum(rhs),rhsMax =  -3.49836279974017E+01  2.44211550952906E+00
(PID.TID 0000.0001)  ploadbar=  1.01051523504579E+05
 cg2d: Sum(rhs),rhsMax =  -3.54400308936914E+01  2.41028395897059E+00
(PID.TID 0000.0001)  ploadbar=  1.01050107217137E+05
 cg2d: Sum(rhs),rhsMax =  -3.59595882413281E+01  2.37500180198388E+00
(PID.TID 0000.0001)  ploadbar=  1.01048690929695E+05
 cg2d: Sum(rhs),rhsMax =  -3.65550328427180E+01  2.33585268617183E+00
(PID.TID 0000.0001)  ploadbar=  1.01048052080934E+05
 cg2d: Sum(rhs),rhsMax =  -3.71244038943140E+01  2.29955584430597E+00
(PID.TID 0000.0001)  ploadbar=  1.01047413232173E+05
 cg2d: Sum(rhs),rhsMax =  -3.76651214333123E+01  2.26605964033688E+00
(PID.TID 0000.0001)  ploadbar=  1.01046774383412E+05
 cg2d: Sum(rhs),rhsMax =  -3.81942625038441E+01  2.23416373679219E+00
(PID.TID 0000.0001)  ploadbar=  1.01046135534651E+05
 cg2d: Sum(rhs),rhsMax =  -3.87414056178015E+01  2.20208339243383E+00
(PID.TID 0000.0001)  ploadbar=  1.01045496685890E+05
 cg2d: Sum(rhs),rhsMax =  -3.93365033007544E+01  2.16820772942734E+00
(PID.TID 0000.0001)  ploadbar=  1.01044857837130E+05
 cg2d: Sum(rhs),rhsMax =  -3.99824762324750E+01  2.13258807525807E+00
(PID.TID 0000.0001)  ploadbar=  1.01044223273188E+05
 cg2d: Sum(rhs),rhsMax =  -4.07344617234694E+01  2.09260164371724E+00
(PID.TID 0000.0001)  ploadbar=  1.01043588709246E+05
 cg2d: Sum(rhs),rhsMax =  -4.15689011713728E+01  2.04994404391107E+00
(PID.TID 0000.0001)  ploadbar=  1.01042954145305E+05
 cg2d: Sum(rhs),rhsMax =  -4.24467412826481E+01  2.00686303875767E+00
(PID.TID 0000.0001)  ploadbar=  1.01042319581363E+05
 cg2d: Sum(rhs),rhsMax =  -4.33410049985009E+01  1.96473323273683E+00
(PID.TID 0000.0001)  ploadbar=  1.01041685017422E+05
 cg2d: Sum(rhs),rhsMax =  -4.41434189869455E+01  1.92826099183015E+00
(PID.TID 0000.0001)  ploadbar=  1.01041050453480E+05
 cg2d: Sum(rhs),rhsMax =  -4.61016360576561E+01  1.84571147712155E+00
(PID.TID 0000.0001)  ploadbar=  1.01041634494518E+05
 cg2d: Sum(rhs),rhsMax =  -4.82706495223087E+01  1.76223685169574E+00
(PID.TID 0000.0001)  ploadbar=  1.01042218535556E+05
 cg2d: Sum(rhs),rhsMax =  -5.06954011386388E+01  1.67750724936550E+00
(PID.TID 0000.0001)  ploadbar=  1.01042802576595E+05
 cg2d: Sum(rhs),rhsMax =  -5.34156546657482E+01  1.59172216303544E+00
(PID.TID 0000.0001)  ploadbar=  1.01043386617633E+05
 cg2d: Sum(rhs),rhsMax =  -5.64173224811747E+01  1.50675022706315E+00
(PID.TID 0000.0001)  ploadbar=  1.01043970658671E+05
 cg2d: Sum(rhs),rhsMax =  -5.96563020212979E+01  1.42471718297714E+00
(PID.TID 0000.0001)  ploadbar=  1.01044554699709E+05
 cg2d: Sum(rhs),rhsMax =  -6.29548360901086E+01  1.34985365866557E+00
(PID.TID 0000.0001)  ploadbar=  1.01044040293573E+05
 cg2d: Sum(rhs),rhsMax =  -6.60867604842175E+01  1.28566674743984E+00
(PID.TID 0000.0001)  ploadbar=  1.01043525887436E+05
 cg2d: Sum(rhs),rhsMax =  -6.57663865323864E+01  1.29169818537050E+00
(PID.TID 0000.0001)  ploadbar=  1.01043011481300E+05
 cg2d: Sum(rhs),rhsMax =  -6.36923309606859E+01  1.33350228432785E+00
(PID.TID 0000.0001)  ploadbar=  1.01042497075164E+05
 cg2d: Sum(rhs),rhsMax =  -6.21309350921702E+01  1.36672607263104E+00
(PID.TID 0000.0001)  ploadbar=  1.01041982669028E+05
 cg2d: Sum(rhs),rhsMax =  -6.09973769171760E+01  1.39180568720728E+00
(PID.TID 0000.0001)  ploadbar=  1.01041468262891E+05
 cg2d: Sum(rhs),rhsMax =  -6.02590305621147E+01  1.40854454119628E+00
(PID.TID 0000.0001)  ploadbar=  1.01040898851457E+05
 cg2d: Sum(rhs),rhsMax =  -5.97172476432947E+01  1.42100905041838E+00
(PID.TID 0000.0001)  ploadbar=  1.01040329440023E+05
 cg2d: Sum(rhs),rhsMax =  -5.93151376443756E+01  1.43032424482372E+00
(PID.TID 0000.0001)  ploadbar=  1.01039760028589E+05
 cg2d: Sum(rhs),rhsMax =  -5.90162895606820E+01  1.43724091297429E+00
(PID.TID 0000.0001)  ploadbar=  1.01039190617156E+05
 cg2d: Sum(rhs),rhsMax =  -5.87970280502330E+01  1.44226083342739E+00
(PID.TID 0000.0001)  ploadbar=  1.01038621205722E+05
 cg2d: Sum(rhs),rhsMax =  -5.86463213954686E+01  1.44560872613780E+00
(PID.TID 0000.0001)  ploadbar=  1.01038051794288E+05
 cg2d: Sum(rhs),rhsMax =  -5.85500086100844E+01  1.44762514987457E+00
(PID.TID 0000.0001)  ploadbar=  1.01037918909047E+05
 cg2d: Sum(rhs),rhsMax =  -5.85395773931233E+01  1.44751409844103E+00
(PID.TID 0000.0001)  ploadbar=  1.01037786023807E+05
 cg2d: Sum(rhs),rhsMax =  -5.86194148838100E+01  1.44516275636242E+00
(PID.TID 0000.0001)  ploadbar=  1.01037653138566E+05
 cg2d: Sum(rhs),rhsMax =  -5.87545485057408E+01  1.44144618904770E+00
(PID.TID 0000.0001)  ploadbar=  1.01037520253326E+05
 cg2d: Sum(rhs),rhsMax =  -5.88969072511549E+01  1.43755634319553E+00
(PID.TID 0000.0001)  ploadbar=  1.01037387368086E+05
 cg2d: Sum(rhs),rhsMax =  -5.89580814466983E+01  1.43564302194826E+00
(PID.TID 0000.0001)  ploadbar=  1.01037254482845E+05
 cg2d: Sum(rhs),rhsMax =  -5.89521297563850E+01  1.43541341544714E+00
(PID.TID 0000.0001)  ploadbar=  1.01036891688356E+05
 cg2d: Sum(rhs),rhsMax =  -5.89659289998067E+01  1.43474839464830E+00
(PID.TID 0000.0001)  ploadbar=  1.01036528893866E+05
 cg2d: Sum(rhs),rhsMax =  -5.90267398075791E+01  1.43298412634350E+00
(PID.TID 0000.0001)  ploadbar=  1.01036166099377E+05
 cg2d: Sum(rhs),rhsMax =  -5.91537443422265E+01  1.42966128575328E+00
(PID.TID 0000.0001)  ploadbar=  1.01035803304887E+05
 cg2d: Sum(rhs),rhsMax =  -5.94419637770929E+01  1.42251790350856E+00
(PID.TID 0000.0001)  ploadbar=  1.01035440510398E+05
 cg2d: Sum(rhs),rhsMax =  -6.01184382005579E+01  1.40633025822760E+00
(PID.TID 0000.0001)  ploadbar=  1.01035077715908E+05
 cg2d: Sum(rhs),rhsMax =  -6.08357555584360E+01  1.38954522014214E+00
(PID.TID 0000.0001)  ploadbar=  1.01034456757164E+05
 cg2d: Sum(rhs),rhsMax =  -6.16089140645845E+01  1.37187580239012E+00
(PID.TID 0000.0001)  ploadbar=  1.01033835798419E+05
 cg2d: Sum(rhs),rhsMax =  -6.24468245094982E+01  1.35320597327939E+00
(PID.TID 0000.0001)  ploadbar=  1.01033214839674E+05
 cg2d: Sum(rhs),rhsMax =  -6.33444089532667E+01  1.33373786824410E+00
(PID.TID 0000.0001)  ploadbar=  1.01032593880930E+05
 cg2d: Sum(rhs),rhsMax =  -6.42986242672776E+01  1.31362066133181E+00
(PID.TID 0000.0001)  ploadbar=  1.01031972922185E+05
 cg2d: Sum(rhs),rhsMax =  -6.53106457359478E+01  1.29290955436637E+00
(PID.TID 0000.0001)  ploadbar=  1.01031351963441E+05
 cg2d: Sum(rhs),rhsMax =  -6.63997779318267E+01  1.27135404155380E+00
(PID.TID 0000.0001)  ploadbar=  1.01031400113219E+05
 cg2d: Sum(rhs),rhsMax =  -6.75409237918865E+01  1.24952868271566E+00
(PID.TID 0000.0001)  ploadbar=  1.01031448262997E+05
 cg2d: Sum(rhs),rhsMax =  -6.87159867919604E+01  1.22781621135430E+00
(PID.TID 0000.0001)  ploadbar=  1.01031496412776E+05
 cg2d: Sum(rhs),rhsMax =  -6.99239306640171E+01  1.20625906244503E+00
(PID.TID 0000.0001)  ploadbar=  1.01031544562554E+05
 cg2d: Sum(rhs),rhsMax =  -7.11542840478299E+01  1.18505103784623E+00
(PID.TID 0000.0001)  ploadbar=  1.01031592712332E+05
 cg2d: Sum(rhs),rhsMax =  -7.23932350034193E+01  1.16441363195977E+00
(PID.TID 0000.0001)  ploadbar=  1.01031640862110E+05
 cg2d: Sum(rhs),rhsMax =  -7.35871608769256E+01  1.14513911643628E+00
(PID.TID 0000.0001)  ploadbar=  1.01032188205096E+05
 cg2d: Sum(rhs),rhsMax =  -7.47317220344105E+01  1.12719097002507E+00
(PID.TID 0000.0001)  ploadbar=  1.01032735548082E+05
 cg2d: Sum(rhs),rhsMax =  -7.58242761923343E+01  1.11051114097934E+00
(PID.TID 0000.0001)  ploadbar=  1.01033282891068E+05
 cg2d: Sum(rhs),rhsMax =  -7.68601616717732E+01  1.09507650402752E+00
(PID.TID 0000.0001)  ploadbar=  1.01033830234054E+05
 cg2d: Sum(rhs),rhsMax =  -7.71223190599948E+01  1.09085023383991E+00
(PID.TID 0000.0001)  ploadbar=  1.01034377577040E+05
 cg2d: Sum(rhs),rhsMax =  -7.71443429922866E+01  1.08999780689320E+00
(PID.TID 0000.0001)  ploadbar=  1.01034924920025E+05
 cg2d: Sum(rhs),rhsMax =  -7.71684191383943E+01  1.08915244476425E+00
(PID.TID 0000.0001)  ploadbar=  1.01035054250421E+05
 cg2d: Sum(rhs),rhsMax =  -7.71923547216573E+01  1.08834376002217E+00
(PID.TID 0000.0001)  ploadbar=  1.01035183580817E+05
 cg2d: Sum(rhs),rhsMax =  -7.72141210273067E+01  1.08759750753199E+00
(PID.TID 0000.0001)  ploadbar=  1.01035312911213E+05
 cg2d: Sum(rhs),rhsMax =  -7.72301989708644E+01  1.08696049996258E+00
(PID.TID 0000.0001)  ploadbar=  1.01035442241609E+05
 cg2d: Sum(rhs),rhsMax =  -7.72399431415876E+01  1.08643876242682E+00
(PID.TID 0000.0001)  ploadbar=  1.01035571572005E+05
 cg2d: Sum(rhs),rhsMax =  -7.72467089590498E+01  1.08598114326772E+00
(PID.TID 0000.0001)  ploadbar=  1.01035700902402E+05
 cg2d: Sum(rhs),rhsMax =  -7.72647089256152E+01  1.08539264051629E+00
(PID.TID 0000.0001)  ploadbar=  1.01035811788439E+05
 cg2d: Sum(rhs),rhsMax =  -7.72748232522081E+01  1.08493597223884E+00
(PID.TID 0000.0001)  ploadbar=  1.01035922674476E+05
 cg2d: Sum(rhs),rhsMax =  -7.72898069344366E+01  1.08442841694473E+00
(PID.TID 0000.0001)  ploadbar=  1.01036033560513E+05
 cg2d: Sum(rhs),rhsMax =  -7.73066372571889E+01  1.08390725597680E+00
(PID.TID 0000.0001)  ploadbar=  1.01036144446550E+05
 cg2d: Sum(rhs),rhsMax =  -7.73248975285393E+01  1.08337579458348E+00
(PID.TID 0000.0001)  ploadbar=  1.01036255332587E+05
 cg2d: Sum(rhs),rhsMax =  -7.73447296213252E+01  1.08283096588716E+00
(PID.TID 0000.0001)  ploadbar=  1.01036366218624E+05
 cg2d: Sum(rhs),rhsMax =  -7.73875090448999E+01  1.08197037649678E+00
(PID.TID 0000.0001)  ploadbar=  1.01038101281333E+05
 cg2d: Sum(rhs),rhsMax =  -7.74260207689496E+01  1.08117459691821E+00
(PID.TID 0000.0001)  ploadbar=  1.01039836344042E+05
 cg2d: Sum(rhs),rhsMax =  -7.74639512438914E+01  1.08038967320119E+00
(PID.TID 0000.0001)  ploadbar=  1.01041571406750E+05
 cg2d: Sum(rhs),rhsMax =  -7.75077116191331E+01  1.07952236880225E+00
(PID.TID 0000.0001)  ploadbar=  1.01043306469459E+05
 cg2d: Sum(rhs),rhsMax =  -7.75442921488794E+01  1.07874986546066E+00
(PID.TID 0000.0001)  ploadbar=  1.01045041532168E+05
 cg2d: Sum(rhs),rhsMax =  -7.75760834377729E+01  1.07803513996777E+00
(PID.TID 0000.0001)  ploadbar=  1.01046776594877E+05
 cg2d: Sum(rhs),rhsMax =  -7.76146742940623E+01  1.07719307675674E+00
(PID.TID 0000.0001)  ploadbar=  1.01046879623631E+05
 cg2d: Sum(rhs),rhsMax =  -7.76434523527278E+01  1.07645099690165E+00
(PID.TID 0000.0001)  ploadbar=  1.01046982652385E+05
 cg2d: Sum(rhs),rhsMax =  -7.76545969132880E+01  1.07591379287618E+00
(PID.TID 0000.0001)  ploadbar=  1.01047085681140E+05
 cg2d: Sum(rhs),rhsMax =  -7.76539427830323E+01  1.07549799680744E+00
(PID.TID 0000.0001)  ploadbar=  1.01047188709894E+05
 cg2d: Sum(rhs),rhsMax =  -7.76403038499103E+01  1.07521726913841E+00
(PID.TID 0000.0001)  ploadbar=  1.01047291738649E+05
 cg2d: Sum(rhs),rhsMax =  -7.76153672582721E+01  1.07504584759464E+00
(PID.TID 0000.0001)  ploadbar=  1.01047394767403E+05
 cg2d: Sum(rhs),rhsMax =  -7.75648281285181E+01  1.07528429228363E+00
(PID.TID 0000.0001)  ploadbar=  1.01047500157859E+05
 cg2d: Sum(rhs),rhsMax =  -7.75115563106356E+01  1.07561405640449E+00
(PID.TID 0000.0001)  ploadbar=  1.01047605548315E+05
 cg2d: Sum(rhs),rhsMax =  -7.74607913561974E+01  1.07596113089296E+00
(PID.TID 0000.0001)  ploadbar=  1.01047710938770E+05
 cg2d: Sum(rhs),rhsMax =  -7.74092277154317E+01  1.07636857600080E+00
(PID.TID 0000.0001)  ploadbar=  1.01047816329226E+05
 cg2d: Sum(rhs),rhsMax =  -7.73571498295607E+01  1.07682952810206E+00
(PID.TID 0000.0001)  ploadbar=  1.01047921719682E+05
 cg2d: Sum(rhs),rhsMax =  -7.73061252700950E+01  1.07731713510567E+00
(PID.TID 0000.0001)  ploadbar=  1.01048027110138E+05
 cg2d: Sum(rhs),rhsMax =  -7.72508478233378E+01  1.07785780266698E+00
(PID.TID 0000.0001)  ploadbar=  1.01048286154831E+05
 cg2d: Sum(rhs),rhsMax =  -7.72040379119114E+01  1.07826399116717E+00
(PID.TID 0000.0001)  ploadbar=  1.01048545199524E+05
 cg2d: Sum(rhs),rhsMax =  -7.71545993934484E+01  1.07868618326145E+00
(PID.TID 0000.0001)  ploadbar=  1.01048804244218E+05
 cg2d: Sum(rhs),rhsMax =  -7.71028039186382E+01  1.07911825430049E+00
(PID.TID 0000.0001)  ploadbar=  1.01049063288911E+05
 cg2d: Sum(rhs),rhsMax =  -7.70510989987365E+01  1.07952294933422E+00
(PID.TID 0000.0001)  ploadbar=  1.01049322333605E+05
 cg2d: Sum(rhs),rhsMax =  -7.69985179599111E+01  1.07991120077134E+00
(PID.TID 0000.0001)  ploadbar=  1.01049581378298E+05
 cg2d: Sum(rhs),rhsMax =  -7.68328497521649E+01  1.08188991804829E+00
(PID.TID 0000.0001)  ploadbar=  1.01049121924585E+05
 cg2d: Sum(rhs),rhsMax =  -7.66728084805422E+01  1.08379462605659E+00
(PID.TID 0000.0001)  ploadbar=  1.01048662470872E+05
 cg2d: Sum(rhs),rhsMax =  -7.65065639487291E+01  1.08578906741714E+00
(PID.TID 0000.0001)  ploadbar=  1.01048203017159E+05
 cg2d: Sum(rhs),rhsMax =  -7.63350449966290E+01  1.08785654219803E+00
(PID.TID 0000.0001)  ploadbar=  1.01047743563447E+05
 cg2d: Sum(rhs),rhsMax =  -7.61642203029817E+01  1.08990727467098E+00
(PID.TID 0000.0001)  ploadbar=  1.01047284109734E+05
 cg2d: Sum(rhs),rhsMax =  -7.59947039190267E+01  1.09192635771536E+00
(PID.TID 0000.0001)  ploadbar=  1.01046824656021E+05
 cg2d: Sum(rhs),rhsMax =  -7.57914607365206E+01  1.09441479547046E+00
(PID.TID 0000.0001)  ploadbar=  1.01046882601928E+05
 cg2d: Sum(rhs),rhsMax =  -7.55811294292540E+01  1.09698962146353E+00
(PID.TID 0000.0001)  ploadbar=  1.01046940547836E+05
 cg2d: Sum(rhs),rhsMax =  -7.53714718829946E+01  1.09953654430155E+00
(PID.TID 0000.0001)  ploadbar=  1.01046998493743E+05
 cg2d: Sum(rhs),rhsMax =  -7.51600032822517E+01  1.10208928598843E+00
(PID.TID 0000.0001)  ploadbar=  1.01047056439651E+05
 cg2d: Sum(rhs),rhsMax =  -7.49423333600091E+01  1.10471118826580E+00
(PID.TID 0000.0001)  ploadbar=  1.01047114385558E+05
 cg2d: Sum(rhs),rhsMax =  -7.47152737762871E+01  1.10744958926849E+00
(PID.TID 0000.0001)  ploadbar=  1.01047172331466E+05
 cg2d: Sum(rhs),rhsMax =  -7.44968394488511E+01  1.11013526196889E+00
(PID.TID 0000.0001)  ploadbar=  1.01048164406128E+05
 cg2d: Sum(rhs),rhsMax =  -7.42820733163136E+01  1.11283776524755E+00
(PID.TID 0000.0001)  ploadbar=  1.01049156480791E+05
 cg2d: Sum(rhs),rhsMax =  -7.40833629496401E+01  1.11536835089560E+00
(PID.TID 0000.0001)  ploadbar=  1.01050148555453E+05
 cg2d: Sum(rhs),rhsMax =  -7.38976602820486E+01  1.11776662541841E+00
(PID.TID 0000.0001)  ploadbar=  1.01051140630116E+05
 cg2d: Sum(rhs),rhsMax =  -7.37257237888662E+01  1.12001517685868E+00
(PID.TID 0000.0001)  ploadbar=  1.01052132704778E+05
 cg2d: Sum(rhs),rhsMax =  -7.35699961546768E+01  1.12206920933413E+00
(PID.TID 0000.0001)  ploadbar=  1.01053124779440E+05
 cg2d: Sum(rhs),rhsMax =  -7.34704062283587E+01  1.12327626724165E+00
(PID.TID 0000.0001)  ploadbar=  1.01053902937000E+05
 cg2d: Sum(rhs),rhsMax =  -7.33759026223820E+01  1.12440527701386E+00
(PID.TID 0000.0001)  ploadbar=  1.01054681094559E+05
 cg2d: Sum(rhs),rhsMax =  -7.33228559613741E+01  1.12489091565272E+00
(PID.TID 0000.0001)  ploadbar=  1.01055459252118E+05
 cg2d: Sum(rhs),rhsMax =  -7.33009357726332E+01  1.12488458967809E+00
(PID.TID 0000.0001)  ploadbar=  1.01056237409677E+05
 cg2d: Sum(rhs),rhsMax =  -7.33088780257908E+01  1.12440240090532E+00
(PID.TID 0000.0001)  ploadbar=  1.01057015567237E+05
 cg2d: Sum(rhs),rhsMax =  -7.33519967736301E+01  1.12335917255037E+00
(PID.TID 0000.0001)  ploadbar=  1.01057793724796E+05
 cg2d: Sum(rhs),rhsMax =  -7.34861872751375E+01  1.12092905463886E+00
(PID.TID 0000.0001)  ploadbar=  1.01058624667408E+05
 cg2d: Sum(rhs),rhsMax =  -7.36342043485018E+01  1.11829633900808E+00
(PID.TID 0000.0001)  ploadbar=  1.01059455610021E+05
 cg2d: Sum(rhs),rhsMax =  -7.37992147263911E+01  1.11541446984897E+00
(PID.TID 0000.0001)  ploadbar=  1.01060286552633E+05
 cg2d: Sum(rhs),rhsMax =  -7.39886872993125E+01  1.11217129477269E+00
(PID.TID 0000.0001)  ploadbar=  1.01061117495246E+05
 cg2d: Sum(rhs),rhsMax =  -7.41963776018190E+01  1.10866091668140E+00
(PID.TID 0000.0001)  ploadbar=  1.01061948437858E+05
 cg2d: Sum(rhs),rhsMax =  -7.44136554095710E+01  1.10500985081696E+00
(PID.TID 0000.0001)  ploadbar=  1.01062779380471E+05
 cg2d: Sum(rhs),rhsMax =  -7.46729876933293E+01  1.10073973612301E+00
(PID.TID 0000.0001)  ploadbar=  1.01063156302304E+05
 cg2d: Sum(rhs),rhsMax =  -7.49381673107734E+01  1.09639007685772E+00
(PID.TID 0000.0001)  ploadbar=  1.01063533224138E+05
 cg2d: Sum(rhs),rhsMax =  -7.51922232350010E+01  1.09220743017962E+00
(PID.TID 0000.0001)  ploadbar=  1.01063910145971E+05
 cg2d: Sum(rhs),rhsMax =  -7.54515147780059E+01  1.08795089204468E+00
(PID.TID 0000.0001)  ploadbar=  1.01064287067805E+05
 cg2d: Sum(rhs),rhsMax =  -7.57157084767854E+01  1.08362567805294E+00
(PID.TID 0000.0001)  ploadbar=  1.01064663989638E+05
 cg2d: Sum(rhs),rhsMax =  -7.59832613639419E+01  1.07925351994042E+00
(PID.TID 0000.0001)  ploadbar=  1.01065040911472E+05
 cg2d: Sum(rhs),rhsMax =  -7.62318986140262E+01  1.07524886322209E+00
(PID.TID 0000.0001)  ploadbar=  1.01066900075468E+05
 cg2d: Sum(rhs),rhsMax =  -7.64920414796343E+01  1.07117634072258E+00
(PID.TID 0000.0001)  ploadbar=  1.01068759239464E+05
 cg2d: Sum(rhs),rhsMax =  -7.67640582145616E+01  1.06702943606199E+00
(PID.TID 0000.0001)  ploadbar=  1.01070618403460E+05
 cg2d: Sum(rhs),rhsMax =  -7.70596485500729E+01  1.06264564302514E+00
(PID.TID 0000.0001)  ploadbar=  1.01072477567456E+05
 cg2d: Sum(rhs),rhsMax =  -7.73845876783040E+01  1.05794984920653E+00
(PID.TID 0000.0001)  ploadbar=  1.01074336731453E+05
 cg2d: Sum(rhs),rhsMax =  -7.77413546677924E+01  1.05291189390098E+00
(PID.TID 0000.0001)  ploadbar=  1.01076195895449E+05
 cg2d: Sum(rhs),rhsMax =  -7.81699798497267E+01  1.04695422735646E+00
(PID.TID 0000.0001)  ploadbar=  1.01076673255673E+05
 cg2d: Sum(rhs),rhsMax =  -7.80887540457341E+01  1.04784858339220E+00
(PID.TID 0000.0001)  ploadbar=  1.01077150615898E+05
 cg2d: Sum(rhs),rhsMax =  -7.75810015774912E+01  1.05449593206404E+00
(PID.TID 0000.0001)  ploadbar=  1.01077627976123E+05
 cg2d: Sum(rhs),rhsMax =  -7.70328135206125E+01  1.06177138889845E+00
(PID.TID 0000.0001)  ploadbar=  1.01078105336348E+05
 cg2d: Sum(rhs),rhsMax =  -7.64681111667119E+01  1.06936168455590E+00
(PID.TID 0000.0001)  ploadbar=  1.01078582696573E+05
 cg2d: Sum(rhs),rhsMax =  -7.59061473999211E+01  1.07700379217415E+00
(PID.TID 0000.0001)  ploadbar=  1.01079060056798E+05
 cg2d: Sum(rhs),rhsMax =  -7.53640462789915E+01  1.08450858116167E+00
(PID.TID 0000.0001)  ploadbar=  1.01078337724003E+05
 cg2d: Sum(rhs),rhsMax =  -7.48605122909359E+01  1.09159179352673E+00
(PID.TID 0000.0001)  ploadbar=  1.01077615391208E+05
 cg2d: Sum(rhs),rhsMax =  -7.43841709578841E+01  1.09839947145246E+00
(PID.TID 0000.0001)  ploadbar=  1.01076893058414E+05
 cg2d: Sum(rhs),rhsMax =  -7.39378340586886E+01  1.10487409840413E+00
(PID.TID 0000.0001)  ploadbar=  1.01076170725619E+05
 cg2d: Sum(rhs),rhsMax =  -7.35322942312349E+01  1.11083601684412E+00
(PID.TID 0000.0001)  ploadbar=  1.01075448392824E+05
 cg2d: Sum(rhs),rhsMax =  -7.32016938500668E+01  1.11574241929325E+00
(PID.TID 0000.0001)  ploadbar=  1.01074726060030E+05
 cg2d: Sum(rhs),rhsMax =  -7.29143174043497E+01  1.12001397185285E+00
(PID.TID 0000.0001)  ploadbar=  1.01074970455422E+05
 cg2d: Sum(rhs),rhsMax =  -7.26752279278509E+01  1.12355584612004E+00
(PID.TID 0000.0001)  ploadbar=  1.01075214850815E+05
 cg2d: Sum(rhs),rhsMax =  -7.24510757971568E+01  1.12687081367485E+00
(PID.TID 0000.0001)  ploadbar=  1.01075459246208E+05
 cg2d: Sum(rhs),rhsMax =  -7.22635616224426E+01  1.12961503072805E+00
(PID.TID 0000.0001)  ploadbar=  1.01075703641601E+05
 cg2d: Sum(rhs),rhsMax =  -7.21206435977384E+01  1.13165305983834E+00
(PID.TID 0000.0001)  ploadbar=  1.01075948036993E+05
 cg2d: Sum(rhs),rhsMax =  -7.20278909493177E+01  1.13288888231508E+00
(PID.TID 0000.0001)  ploadbar=  1.01076192432386E+05
 cg2d: Sum(rhs),rhsMax =  -7.19322144869844E+01  1.13422841332493E+00
(PID.TID 0000.0001)  ploadbar=  1.01076601434197E+05
 cg2d: Sum(rhs),rhsMax =  -7.19262853578434E+01  1.13420873944221E+00
(PID.TID 0000.0001)  ploadbar=  1.01077010436009E+05
 cg2d: Sum(rhs),rhsMax =  -7.20107149937277E+01  1.13281888335318E+00
(PID.TID 0000.0001)  ploadbar=  1.01077419437820E+05
 cg2d: Sum(rhs),rhsMax =  -7.21919039370897E+01  1.12996600704397E+00
(PID.TID 0000.0001)  ploadbar=  1.01077828439631E+05
 cg2d: Sum(rhs),rhsMax =  -7.24666785204537E+01  1.12571775387791E+00
(PID.TID 0000.0001)  ploadbar=  1.01078237441442E+05
 cg2d: Sum(rhs),rhsMax =  -7.28094780218994E+01  1.12049576854812E+00
(PID.TID 0000.0001)  ploadbar=  1.01078646443253E+05
 cg2d: Sum(rhs),rhsMax =  -7.32901474186852E+01  1.11319814128203E+00
(PID.TID 0000.0001)  ploadbar=  1.01078984630535E+05
 cg2d: Sum(rhs),rhsMax =  -7.37864254566521E+01  1.10573245378213E+00
(PID.TID 0000.0001)  ploadbar=  1.01079322817817E+05
 cg2d: Sum(rhs),rhsMax =  -7.42818962945217E+01  1.09835009709117E+00
(PID.TID 0000.0001)  ploadbar=  1.01079661005098E+05
 cg2d: Sum(rhs),rhsMax =  -7.47647926528026E+01  1.09122099178871E+00
(PID.TID 0000.0001)  ploadbar=  1.01079999192380E+05
 cg2d: Sum(rhs),rhsMax =  -7.52192097203275E+01  1.08456541471440E+00
(PID.TID 0000.0001)  ploadbar=  1.01080337379662E+05
 cg2d: Sum(rhs),rhsMax =  -7.56322650083967E+01  1.07855258968413E+00
(PID.TID 0000.0001)  ploadbar=  1.01080675566943E+05
 cg2d: Sum(rhs),rhsMax =  -7.59726570337369E+01  1.07364256117425E+00
(PID.TID 0000.0001)  ploadbar=  1.01080942046733E+05
 cg2d: Sum(rhs),rhsMax =  -7.62744394008746E+01  1.06932285758353E+00
(PID.TID 0000.0001)  ploadbar=  1.01081208526523E+05
 cg2d: Sum(rhs),rhsMax =  -7.65721014501387E+01  1.06509889695284E+00
(PID.TID 0000.0001)  ploadbar=  1.01081475006313E+05
 cg2d: Sum(rhs),rhsMax =  -7.68664106011354E+01  1.06095549500659E+00
(PID.TID 0000.0001)  ploadbar=  1.01081741486103E+05
 cg2d: Sum(rhs),rhsMax =  -7.71534532811875E+01  1.05694247055917E+00
(PID.TID 0000.0001)  ploadbar=  1.01082007965892E+05
 cg2d: Sum(rhs),rhsMax =  -7.74251510293540E+01  1.05316522023925E+00
(PID.TID 0000.0001)  ploadbar=  1.01082274445682E+05
 cg2d: Sum(rhs),rhsMax =  -7.76994343376901E+01  1.04934058223032E+00
(PID.TID 0000.0001)  ploadbar=  1.01082266736926E+05
 cg2d: Sum(rhs),rhsMax =  -7.79135567488193E+01  1.04631159013533E+00
(PID.TID 0000.0001)  ploadbar=  1.01082259028169E+05
 cg2d: Sum(rhs),rhsMax =  -7.80762884714928E+01  1.04394612698586E+00
(PID.TID 0000.0001)  ploadbar=  1.01082251319413E+05
 cg2d: Sum(rhs),rhsMax =  -7.81770585308271E+01  1.04237552209270E+00
(PID.TID 0000.0001)  ploadbar=  1.01082243610656E+05
 cg2d: Sum(rhs),rhsMax =  -7.82112599800142E+01  1.04165395637914E+00
(PID.TID 0000.0001)  ploadbar=  1.01082235901899E+05
 cg2d: Sum(rhs),rhsMax =  -7.81798082727160E+01  1.04176664408201E+00
(PID.TID 0000.0001)  ploadbar=  1.01082228193143E+05
 cg2d: Sum(rhs),rhsMax =  -7.80659456888785E+01  1.04301823320977E+00
(PID.TID 0000.0001)  ploadbar=  1.01082329589709E+05
 cg2d: Sum(rhs),rhsMax =  -7.78907879977435E+01  1.04513454906770E+00
(PID.TID 0000.0001)  ploadbar=  1.01082430986276E+05
 cg2d: Sum(rhs),rhsMax =  -7.76571951453340E+01  1.04808659597942E+00
(PID.TID 0000.0001)  ploadbar=  1.01082532382842E+05
 cg2d: Sum(rhs),rhsMax =  -7.73827293798916E+01  1.05164855225805E+00
(PID.TID 0000.0001)  ploadbar=  1.01082633779408E+05
 cg2d: Sum(rhs),rhsMax =  -7.70859498705355E+01  1.05557440871626E+00
(PID.TID 0000.0001)  ploadbar=  1.01082735175974E+05
 cg2d: Sum(rhs),rhsMax =  -7.73040653649039E+01  1.05250117093771E+00
(PID.TID 0000.0001)  ploadbar=  1.01082836572541E+05
 cg2d: Sum(rhs),rhsMax =  -7.76148523545813E+01  1.04816632699401E+00
(PID.TID 0000.0001)  ploadbar=  1.01083444578217E+05
 cg2d: Sum(rhs),rhsMax =  -7.79536437463547E+01  1.04346537203761E+00
(PID.TID 0000.0001)  ploadbar=  1.01084052583893E+05
 cg2d: Sum(rhs),rhsMax =  -7.83462420256758E+01  1.03806546188473E+00
(PID.TID 0000.0001)  ploadbar=  1.01084660589570E+05
 cg2d: Sum(rhs),rhsMax =  -7.88034002345295E+01  1.03184531074894E+00
(PID.TID 0000.0001)  ploadbar=  1.01085268595246E+05
 cg2d: Sum(rhs),rhsMax =  -7.93293372408469E+01  1.02477780206209E+00
(PID.TID 0000.0001)  ploadbar=  1.01085876600922E+05
 cg2d: Sum(rhs),rhsMax =  -7.99237548936824E+01  1.01689970350801E+00
(PID.TID 0000.0001)  ploadbar=  1.01086484606599E+05
 cg2d: Sum(rhs),rhsMax =  -8.05597458285104E+01  1.00863569556791E+00
(PID.TID 0000.0001)  ploadbar=  1.01087368950073E+05
 cg2d: Sum(rhs),rhsMax =  -8.11748449859330E+01  1.00077283845882E+00
(PID.TID 0000.0001)  ploadbar=  1.01088253293547E+05
 cg2d: Sum(rhs),rhsMax =  -8.17476998260772E+01  9.93551928130687E-01
(PID.TID 0000.0001)  ploadbar=  1.01089137637021E+05
 cg2d: Sum(rhs),rhsMax =  -8.14009682663434E+01  9.97583145363039E-01
(PID.TID 0000.0001)  ploadbar=  1.01090021980495E+05
 cg2d: Sum(rhs),rhsMax =  -8.09303975055225E+01  1.00318630237707E+00
(PID.TID 0000.0001)  ploadbar=  1.01090906323968E+05
 cg2d: Sum(rhs),rhsMax =  -8.05682270436962E+01  1.00749935995997E+00
(PID.TID 0000.0001)  ploadbar=  1.01091790667442E+05
 cg2d: Sum(rhs),rhsMax =  -8.03011014149657E+01  1.01062357923701E+00
(PID.TID 0000.0001)  ploadbar=  1.01091554231372E+05
 cg2d: Sum(rhs),rhsMax =  -8.00918666554107E+01  1.01300123802422E+00
(PID.TID 0000.0001)  ploadbar=  1.01091317795302E+05
 cg2d: Sum(rhs),rhsMax =  -7.99519227892057E+01  1.01447322313078E+00
(PID.TID 0000.0001)  ploadbar=  1.01091081359231E+05
 cg2d: Sum(rhs),rhsMax =  -7.98753526330607E+01  1.01510429379505E+00
(PID.TID 0000.0001)  ploadbar=  1.01090844923161E+05
 cg2d: Sum(rhs),rhsMax =  -7.98478639768392E+01  1.01507085785038E+00
(PID.TID 0000.0001)  ploadbar=  1.01090608487091E+05
 cg2d: Sum(rhs),rhsMax =  -7.98642088464404E+01  1.01443773774539E+00
(PID.TID 0000.0001)  ploadbar=  1.01090372051020E+05
 cg2d: Sum(rhs),rhsMax =  -7.98624516514298E+01  1.01409314245887E+00
(PID.TID 0000.0001)  ploadbar=  1.01089377493088E+05
 cg2d: Sum(rhs),rhsMax =  -7.98516427698390E+01  1.01391968029696E+00
(PID.TID 0000.0001)  ploadbar=  1.01088382935157E+05
 cg2d: Sum(rhs),rhsMax =  -7.98002466701333E+01  1.01431592150035E+00
(PID.TID 0000.0001)  ploadbar=  1.01087388377225E+05
 cg2d: Sum(rhs),rhsMax =  -7.96853229132020E+01  1.01557212821533E+00
(PID.TID 0000.0001)  ploadbar=  1.01086393819293E+05
 cg2d: Sum(rhs),rhsMax =  -7.95119069149118E+01  1.01762485110576E+00
(PID.TID 0000.0001)  ploadbar=  1.01085399261361E+05
 cg2d: Sum(rhs),rhsMax =  -7.92943757699905E+01  1.02029364496685E+00
(PID.TID 0000.0001)  ploadbar=  1.01084404703429E+05
 cg2d: Sum(rhs),rhsMax =  -7.90498873339727E+01  1.02325738217108E+00
(PID.TID 0000.0001)  ploadbar=  1.01083918165940E+05
 cg2d: Sum(rhs),rhsMax =  -7.87481867226658E+01  1.02691407369854E+00
(PID.TID 0000.0001)  ploadbar=  1.01083431628450E+05
 cg2d: Sum(rhs),rhsMax =  -7.84051274751711E+01  1.03106994023774E+00
(PID.TID 0000.0001)  ploadbar=  1.01082945090961E+05
 cg2d: Sum(rhs),rhsMax =  -7.80529405070484E+01  1.03530891406955E+00
(PID.TID 0000.0001)  ploadbar=  1.01082458553471E+05
 cg2d: Sum(rhs),rhsMax =  -7.76986707371101E+01  1.03953812617123E+00
(PID.TID 0000.0001)  ploadbar=  1.01081972015982E+05
 cg2d: Sum(rhs),rhsMax =  -7.73419868632295E+01  1.04376020842273E+00
(PID.TID 0000.0001)  ploadbar=  1.01081485478492E+05
 cg2d: Sum(rhs),rhsMax =  -7.69897700268082E+01  1.04800102292370E+00
(PID.TID 0000.0001)  ploadbar=  1.01080887656985E+05
 cg2d: Sum(rhs),rhsMax =  -7.66707266328219E+01  1.05186051352484E+00
(PID.TID 0000.0001)  ploadbar=  1.01080289835479E+05
 cg2d: Sum(rhs),rhsMax =  -7.63581569894212E+01  1.05569328336335E+00
(PID.TID 0000.0001)  ploadbar=  1.01079692013972E+05
 cg2d: Sum(rhs),rhsMax =  -7.60566746959593E+01  1.05943109724719E+00
(PID.TID 0000.0001)  ploadbar=  1.01079094192465E+05
 cg2d: Sum(rhs),rhsMax =  -7.57734871035959E+01  1.06296509312807E+00
(PID.TID 0000.0001)  ploadbar=  1.01078496370958E+05
 cg2d: Sum(rhs),rhsMax =  -7.55104475622430E+01  1.06625893935271E+00
(PID.TID 0000.0001)  ploadbar=  1.01077898549452E+05
 cg2d: Sum(rhs),rhsMax =  -7.52938428517690E+01  1.06887890968471E+00
(PID.TID 0000.0001)  ploadbar=  1.01078037262684E+05
 cg2d: Sum(rhs),rhsMax =  -7.51035115540205E+01  1.07109894468372E+00
(PID.TID 0000.0001)  ploadbar=  1.01078175975916E+05
 cg2d: Sum(rhs),rhsMax =  -7.49182305041467E+01  1.07321607847916E+00
(PID.TID 0000.0001)  ploadbar=  1.01078314689148E+05
 cg2d: Sum(rhs),rhsMax =  -7.47469562704616E+01  1.07509866587015E+00
(PID.TID 0000.0001)  ploadbar=  1.01078453402380E+05
 cg2d: Sum(rhs),rhsMax =  -7.45897650973325E+01  1.07674097321754E+00
(PID.TID 0000.0001)  ploadbar=  1.01078592115613E+05
 cg2d: Sum(rhs),rhsMax =  -7.44495382066135E+01  1.07809765093982E+00
(PID.TID 0000.0001)  ploadbar=  1.01078730828845E+05
 cg2d: Sum(rhs),rhsMax =  -7.42999367635743E+01  1.07965169027914E+00
(PID.TID 0000.0001)  ploadbar=  1.01077496404402E+05
 cg2d: Sum(rhs),rhsMax =  -7.41745629524745E+01  1.08091450678216E+00
(PID.TID 0000.0001)  ploadbar=  1.01076261979958E+05
 cg2d: Sum(rhs),rhsMax =  -7.40648637588183E+01  1.08200711230860E+00
(PID.TID 0000.0001)  ploadbar=  1.01075027555515E+05
 cg2d: Sum(rhs),rhsMax =  -7.39705251722116E+01  1.08292961511958E+00
(PID.TID 0000.0001)  ploadbar=  1.01073793131072E+05
 cg2d: Sum(rhs),rhsMax =  -7.38898568331896E+01  1.08370194125055E+00
(PID.TID 0000.0001)  ploadbar=  1.01072558706628E+05
 cg2d: Sum(rhs),rhsMax =  -7.38232964877109E+01  1.08431265119469E+00
(PID.TID 0000.0001)  ploadbar=  1.01071324282185E+05
 cg2d: Sum(rhs),rhsMax =  -7.37747219466636E+01  1.08466175573780E+00
(PID.TID 0000.0001)  ploadbar=  1.01071836258937E+05
 cg2d: Sum(rhs),rhsMax =  -7.37274902231183E+01  1.08499071893610E+00
(PID.TID 0000.0001)  ploadbar=  1.01072348235689E+05
 cg2d: Sum(rhs),rhsMax =  -7.36851481951318E+01  1.08524456761046E+00
(PID.TID 0000.0001)  ploadbar=  1.01072860212442E+05
 cg2d: Sum(rhs),rhsMax =  -7.36425510963375E+01  1.08549501159466E+00
(PID.TID 0000.0001)  ploadbar=  1.01073372189194E+05
 cg2d: Sum(rhs),rhsMax =  -7.35965092453799E+01  1.08578537422021E+00
(PID.TID 0000.0001)  ploadbar=  1.01073884165946E+05
 cg2d: Sum(rhs),rhsMax =  -7.35464984912860E+01  1.08612024330493E+00
(PID.TID 0000.0001)  ploadbar=  1.01074396142698E+05
 cg2d: Sum(rhs),rhsMax =  -7.34997892554290E+01  1.08643594873338E+00
(PID.TID 0000.0001)  ploadbar=  1.01076214073284E+05
 cg2d: Sum(rhs),rhsMax =  -7.34514901115865E+01  1.08680021312687E+00
(PID.TID 0000.0001)  ploadbar=  1.01078032003870E+05
 cg2d: Sum(rhs),rhsMax =  -7.34036381879145E+01  1.08717876065278E+00
(PID.TID 0000.0001)  ploadbar=  1.01079849934456E+05
 cg2d: Sum(rhs),rhsMax =  -7.33594733797832E+01  1.08751889317303E+00
(PID.TID 0000.0001)  ploadbar=  1.01081667865043E+05
 cg2d: Sum(rhs),rhsMax =  -7.33174809487946E+01  1.08783917649105E+00
(PID.TID 0000.0001)  ploadbar=  1.01083485795629E+05
 cg2d: Sum(rhs),rhsMax =  -7.32778821402618E+01  1.08813196986480E+00
(PID.TID 0000.0001)  ploadbar=  1.01085303726215E+05
 cg2d: Sum(rhs),rhsMax =  -7.32761135998921E+01  1.08785208025161E+00
(PID.TID 0000.0001)  ploadbar=  1.01085579519652E+05
 cg2d: Sum(rhs),rhsMax =  -7.32790707776479E+01  1.08748911609076E+00
(PID.TID 0000.0001)  ploadbar=  1.01085855313089E+05
 cg2d: Sum(rhs),rhsMax =  -7.32798209764196E+01  1.08714511589331E+00
(PID.TID 0000.0001)  ploadbar=  1.01086131106526E+05
 cg2d: Sum(rhs),rhsMax =  -7.32811204395962E+01  1.08677846436111E+00
(PID.TID 0000.0001)  ploadbar=  1.01086406899963E+05
 cg2d: Sum(rhs),rhsMax =  -7.32829843993259E+01  1.08638834063834E+00
(PID.TID 0000.0001)  ploadbar=  1.01086682693400E+05
 cg2d: Sum(rhs),rhsMax =  -7.32862396217973E+01  1.08596409667356E+00
(PID.TID 0000.0001)  ploadbar=  1.01086958486837E+05
 cg2d: Sum(rhs),rhsMax =  -7.32777259094484E+01  1.08576177488063E+00
(PID.TID 0000.0001)  ploadbar=  1.01087771102374E+05
 cg2d: Sum(rhs),rhsMax =  -7.32801839022039E+01  1.08544256200373E+00
(PID.TID 0000.0001)  ploadbar=  1.01088583717910E+05
 cg2d: Sum(rhs),rhsMax =  -7.32899515188612E+01  1.08506094606524E+00
(PID.TID 0000.0001)  ploadbar=  1.01089396333447E+05
 cg2d: Sum(rhs),rhsMax =  -7.33082575486521E+01  1.08459584195160E+00
(PID.TID 0000.0001)  ploadbar=  1.01090208948983E+05
 cg2d: Sum(rhs),rhsMax =  -7.33363966038651E+01  1.08402292221545E+00
(PID.TID 0000.0001)  ploadbar=  1.01091021564520E+05
 cg2d: Sum(rhs),rhsMax =  -7.33750326325363E+01  1.08332787217362E+00
(PID.TID 0000.0001)  ploadbar=  1.01091834180056E+05
 cg2d: Sum(rhs),rhsMax =  -7.34321215169101E+01  1.08234088408248E+00
(PID.TID 0000.0001)  ploadbar=  1.01091599692257E+05
 cg2d: Sum(rhs),rhsMax =  -7.34987251557737E+01  1.08119414297679E+00
(PID.TID 0000.0001)  ploadbar=  1.01091365204457E+05
 cg2d: Sum(rhs),rhsMax =  -7.35717632405500E+01  1.07993015265717E+00
(PID.TID 0000.0001)  ploadbar=  1.01091130716657E+05
 cg2d: Sum(rhs),rhsMax =  -7.36477573322738E+01  1.07859535847371E+00
(PID.TID 0000.0001)  ploadbar=  1.01090896228858E+05
 cg2d: Sum(rhs),rhsMax =  -7.37184773749123E+01  1.07730971135790E+00
(PID.TID 0000.0001)  ploadbar=  1.01090661741058E+05
 cg2d: Sum(rhs),rhsMax =  -7.37808445930181E+01  1.07611411012832E+00
(PID.TID 0000.0001)  ploadbar=  1.01090427253259E+05
 cg2d: Sum(rhs),rhsMax =  -7.37926970420764E+01  1.07566044364921E+00
(PID.TID 0000.0001)  ploadbar=  1.01090176463633E+05
 cg2d: Sum(rhs),rhsMax =  -7.37972072865483E+01  1.07531484843718E+00
(PID.TID 0000.0001)  ploadbar=  1.01089925674008E+05
 cg2d: Sum(rhs),rhsMax =  -7.38009583567132E+01  1.07498100927128E+00
(PID.TID 0000.0001)  ploadbar=  1.01089674884383E+05
 cg2d: Sum(rhs),rhsMax =  -7.38003850841390E+01  1.07470919357740E+00
(PID.TID 0000.0001)  ploadbar=  1.01089424094757E+05
 cg2d: Sum(rhs),rhsMax =  -7.37970454688820E+01  1.07447493303596E+00
(PID.TID 0000.0001)  ploadbar=  1.01089173305132E+05
 cg2d: Sum(rhs),rhsMax =  -7.31521156892599E+01  1.08365403599157E+00
(PID.TID 0000.0001)  ploadbar=  1.01088922515506E+05
 cg2d: Sum(rhs),rhsMax =  -7.25391641452478E+01  1.09246410187567E+00
(PID.TID 0000.0001)  ploadbar=  1.01088480963383E+05
 cg2d: Sum(rhs),rhsMax =  -7.19858042755272E+01  1.10045935858100E+00
(PID.TID 0000.0001)  ploadbar=  1.01088039411259E+05
 cg2d: Sum(rhs),rhsMax =  -7.13871129669269E+01  1.10922833987788E+00
(PID.TID 0000.0001)  ploadbar=  1.01087597859135E+05
 cg2d: Sum(rhs),rhsMax =  -7.08562420952519E+01  1.11702071583464E+00
(PID.TID 0000.0001)  ploadbar=  1.01087156307011E+05
 cg2d: Sum(rhs),rhsMax =  -7.03988885147220E+01  1.12370170129375E+00
(PID.TID 0000.0001)  ploadbar=  1.01086714754887E+05
 cg2d: Sum(rhs),rhsMax =  -7.00717511134526E+01  1.12831269199647E+00
(PID.TID 0000.0001)  ploadbar=  1.01086273202763E+05
 cg2d: Sum(rhs),rhsMax =  -6.96684591585753E+01  1.13425369739387E+00
(PID.TID 0000.0001)  ploadbar=  1.01087339906479E+05
 cg2d: Sum(rhs),rhsMax =  -6.91219165806840E+01  1.14267566035760E+00
(PID.TID 0000.0001)  ploadbar=  1.01088406610195E+05
 cg2d: Sum(rhs),rhsMax =  -6.83626041069220E+01  1.15486451018767E+00
(PID.TID 0000.0001)  ploadbar=  1.01089473313912E+05
 cg2d: Sum(rhs),rhsMax =  -6.73148463268752E+01  1.17237598320030E+00
(PID.TID 0000.0001)  ploadbar=  1.01090540017628E+05
 cg2d: Sum(rhs),rhsMax =  -6.59581446520398E+01  1.19605826469852E+00
(PID.TID 0000.0001)  ploadbar=  1.01091606721344E+05
 cg2d: Sum(rhs),rhsMax =  -6.43356084301991E+01  1.22581371584104E+00
(PID.TID 0000.0001)  ploadbar=  1.01092673425060E+05
 cg2d: Sum(rhs),rhsMax =  -6.24931661744265E+01  1.26151447153022E+00
(PID.TID 0000.0001)  ploadbar=  1.01093439800319E+05
 cg2d: Sum(rhs),rhsMax =  -6.06941094268604E+01  1.29843339057133E+00
(PID.TID 0000.0001)  ploadbar=  1.01094206175578E+05
 cg2d: Sum(rhs),rhsMax =  -5.90504047240814E+01  1.33405942947658E+00
(PID.TID 0000.0001)  ploadbar=  1.01094972550837E+05
 cg2d: Sum(rhs),rhsMax =  -5.76064639645615E+01  1.36693264411645E+00
(PID.TID 0000.0001)  ploadbar=  1.01095738926096E+05
 cg2d: Sum(rhs),rhsMax =  -5.63771928665392E+01  1.39611853139877E+00
(PID.TID 0000.0001)  ploadbar=  1.01096505301355E+05
 cg2d: Sum(rhs),rhsMax =  -5.55167228100563E+01  1.41708266899311E+00
(PID.TID 0000.0001)  ploadbar=  1.01097271676614E+05
 cg2d: Sum(rhs),rhsMax =  -5.48117905947133E+01  1.43466373188559E+00
(PID.TID 0000.0001)  ploadbar=  1.01098038292916E+05
 cg2d: Sum(rhs),rhsMax =  -5.43629219321135E+01  1.44589758498585E+00
(PID.TID 0000.0001)  ploadbar=  1.01098804909217E+05
 cg2d: Sum(rhs),rhsMax =  -5.42793217368571E+01  1.44754527238922E+00
(PID.TID 0000.0001)  ploadbar=  1.01099571525519E+05
 cg2d: Sum(rhs),rhsMax =  -5.45297781507117E+01  1.44035176039053E+00
(PID.TID 0000.0001)  ploadbar=  1.01100338141820E+05
 cg2d: Sum(rhs),rhsMax =  -5.50405814906956E+01  1.42647150056604E+00
(PID.TID 0000.0001)  ploadbar=  1.01101104758122E+05
 cg2d: Sum(rhs),rhsMax =  -5.55394088607928E+01  1.41317022779641E+00
(PID.TID 0000.0001)  ploadbar=  1.01101871374423E+05
 cg2d: Sum(rhs),rhsMax =  -5.60149211648268E+01  1.40069368110949E+00
(PID.TID 0000.0001)  ploadbar=  1.01103290491945E+05
 cg2d: Sum(rhs),rhsMax =  -5.64840453386118E+01  1.38858674735614E+00
(PID.TID 0000.0001)  ploadbar=  1.01104709609467E+05
 cg2d: Sum(rhs),rhsMax =  -5.69534342463490E+01  1.37667285249700E+00
(PID.TID 0000.0001)  ploadbar=  1.01106128726988E+05
 cg2d: Sum(rhs),rhsMax =  -5.74208844329007E+01  1.36499806033599E+00
(PID.TID 0000.0001)  ploadbar=  1.01107547844510E+05
 cg2d: Sum(rhs),rhsMax =  -5.78832378657717E+01  1.35362749656896E+00
(PID.TID 0000.0001)  ploadbar=  1.01108966962032E+05
 cg2d: Sum(rhs),rhsMax =  -5.83766888657087E+01  1.34171892103037E+00
(PID.TID 0000.0001)  ploadbar=  1.01110386079554E+05
 cg2d: Sum(rhs),rhsMax =  -5.88115010047916E+01  1.33140255046454E+00
(PID.TID 0000.0001)  ploadbar=  1.01110465577970E+05
 cg2d: Sum(rhs),rhsMax =  -5.92207950330273E+01  1.32187012014493E+00
(PID.TID 0000.0001)  ploadbar=  1.01110545076385E+05
 cg2d: Sum(rhs),rhsMax =  -5.96739347176739E+01  1.31156575394097E+00
(PID.TID 0000.0001)  ploadbar=  1.01110624574801E+05
 cg2d: Sum(rhs),rhsMax =  -5.89442638466550E+01  1.32759169679315E+00
(PID.TID 0000.0001)  ploadbar=  1.01110704073217E+05
 cg2d: Sum(rhs),rhsMax =  -5.68702208506713E+01  1.37584706078909E+00
(PID.TID 0000.0001)  ploadbar=  1.01110783571632E+05
 cg2d: Sum(rhs),rhsMax =  -5.49363083597661E+01  1.42416033278001E+00
(PID.TID 0000.0001)  ploadbar=  1.01110863070048E+05
 cg2d: Sum(rhs),rhsMax =  -5.33114195493430E+01  1.46740123335923E+00
(PID.TID 0000.0001)  ploadbar=  1.01111010929829E+05
 cg2d: Sum(rhs),rhsMax =  -5.20136358299004E+01  1.50379243588147E+00
(PID.TID 0000.0001)  ploadbar=  1.01111158789610E+05
 cg2d: Sum(rhs),rhsMax =  -5.10567547283799E+01  1.53168903109218E+00
(PID.TID 0000.0001)  ploadbar=  1.01111306649391E+05
 cg2d: Sum(rhs),rhsMax =  -5.04643658654201E+01  1.54931735218012E+00
(PID.TID 0000.0001)  ploadbar=  1.01111454509172E+05
 cg2d: Sum(rhs),rhsMax =  -5.02633093994412E+01  1.55509340431474E+00
(PID.TID 0000.0001)  ploadbar=  1.01111602368953E+05
 cg2d: Sum(rhs),rhsMax =  -5.04748564525179E+01  1.54808183732768E+00
(PID.TID 0000.0001)  ploadbar=  1.01111750228734E+05
 cg2d: Sum(rhs),rhsMax =  -5.10360891363344E+01  1.53058962342629E+00
(PID.TID 0000.0001)  ploadbar=  1.01113944626249E+05
 cg2d: Sum(rhs),rhsMax =  -5.18398148789415E+01  1.50641426648094E+00
(PID.TID 0000.0001)  ploadbar=  1.01116139023763E+05
 cg2d: Sum(rhs),rhsMax =  -5.27999322001730E+01  1.47859553654330E+00
(PID.TID 0000.0001)  ploadbar=  1.01118333421277E+05
 cg2d: Sum(rhs),rhsMax =  -5.38681457132364E+01  1.44886376224630E+00
(PID.TID 0000.0001)  ploadbar=  1.01120527818792E+05
 cg2d: Sum(rhs),rhsMax =  -5.50141022307282E+01  1.41828089882626E+00
(PID.TID 0000.0001)  ploadbar=  1.01122722216306E+05
 cg2d: Sum(rhs),rhsMax =  -5.62329806034296E+01  1.38713752519240E+00
(PID.TID 0000.0001)  ploadbar=  1.01124916613820E+05
 cg2d: Sum(rhs),rhsMax =  -5.74969570489130E+01  1.35624248390158E+00
(PID.TID 0000.0001)  ploadbar=  1.01125517273692E+05
 cg2d: Sum(rhs),rhsMax =  -5.88262489050038E+01  1.32519238262891E+00
(PID.TID 0000.0001)  ploadbar=  1.01126117933564E+05
 cg2d: Sum(rhs),rhsMax =  -6.02349763079613E+01  1.29379167936737E+00
(PID.TID 0000.0001)  ploadbar=  1.01126718593436E+05
 cg2d: Sum(rhs),rhsMax =  -6.16225407463295E+01  1.26424465950079E+00
(PID.TID 0000.0001)  ploadbar=  1.01127319253308E+05
 cg2d: Sum(rhs),rhsMax =  -6.29318719339672E+01  1.23751872497971E+00
(PID.TID 0000.0001)  ploadbar=  1.01127919913180E+05
 cg2d: Sum(rhs),rhsMax =  -6.42470657213292E+01  1.21175279021542E+00
(PID.TID 0000.0001)  ploadbar=  1.01128520573052E+05
 cg2d: Sum(rhs),rhsMax =  -6.55898505488643E+01  1.18657452905985E+00
(PID.TID 0000.0001)  ploadbar=  1.01127907207810E+05
 cg2d: Sum(rhs),rhsMax =  -6.69432256782882E+01  1.16227198964117E+00
(PID.TID 0000.0001)  ploadbar=  1.01127293842568E+05
 cg2d: Sum(rhs),rhsMax =  -6.79556177923027E+01  1.14469165397066E+00
(PID.TID 0000.0001)  ploadbar=  1.01126680477326E+05
 cg2d: Sum(rhs),rhsMax =  -6.88569573968771E+01  1.12948297532391E+00
(PID.TID 0000.0001)  ploadbar=  1.01126067112085E+05
 cg2d: Sum(rhs),rhsMax =  -6.98237044231083E+01  1.11365691205413E+00
(PID.TID 0000.0001)  ploadbar=  1.01125453746843E+05
 cg2d: Sum(rhs),rhsMax =  -7.08240174429047E+01  1.09776860881688E+00
(PID.TID 0000.0001)  ploadbar=  1.01124840381601E+05
 cg2d: Sum(rhs),rhsMax =  -7.15312274497658E+01  1.08674388613618E+00
(PID.TID 0000.0001)  ploadbar=  1.01125355523469E+05
 cg2d: Sum(rhs),rhsMax =  -7.14948372843757E+01  1.08710658086463E+00
(PID.TID 0000.0001)  ploadbar=  1.01125870665337E+05
 cg2d: Sum(rhs),rhsMax =  -7.14588195473604E+01  1.08743922738033E+00
(PID.TID 0000.0001)  ploadbar=  1.01126385807206E+05
 cg2d: Sum(rhs),rhsMax =  -7.14249934223717E+01  1.08770871654203E+00
(PID.TID 0000.0001)  ploadbar=  1.01126900949074E+05
 cg2d: Sum(rhs),rhsMax =  -7.13905121544754E+01  1.08795531648802E+00
(PID.TID 0000.0001)  ploadbar=  1.01127416090942E+05
 cg2d: Sum(rhs),rhsMax =  -7.13593538558479E+01  1.08811882299184E+00
(PID.TID 0000.0001)  ploadbar=  1.01127931232810E+05
 cg2d: Sum(rhs),rhsMax =  -7.13134220867110E+01  1.08854792279864E+00
(PID.TID 0000.0001)  ploadbar=  1.01128341997165E+05
 cg2d: Sum(rhs),rhsMax =  -7.12918083912225E+01  1.08864238378895E+00
(PID.TID 0000.0001)  ploadbar=  1.01128752761520E+05
 cg2d: Sum(rhs),rhsMax =  -7.12967731858796E+01  1.08836138395690E+00
(PID.TID 0000.0001)  ploadbar=  1.01129163525874E+05
 cg2d: Sum(rhs),rhsMax =  -7.13327025822661E+01  1.08763384360520E+00
(PID.TID 0000.0001)  ploadbar=  1.01129574290229E+05
 cg2d: Sum(rhs),rhsMax =  -7.14040158360160E+01  1.08638961147811E+00
(PID.TID 0000.0001)  ploadbar=  1.01129985054584E+05
 cg2d: Sum(rhs),rhsMax =  -7.15118348393923E+01  1.08461048425655E+00
(PID.TID 0000.0001)  ploadbar=  1.01130395818939E+05
 cg2d: Sum(rhs),rhsMax =  -7.16441141784450E+01  1.08245102595197E+00
(PID.TID 0000.0001)  ploadbar=  1.01130181135977E+05
 cg2d: Sum(rhs),rhsMax =  -7.18072132688710E+01  1.07981746139941E+00
(PID.TID 0000.0001)  ploadbar=  1.01129966453015E+05
 cg2d: Sum(rhs),rhsMax =  -7.20005511759486E+01  1.07672434903763E+00
(PID.TID 0000.0001)  ploadbar=  1.01129751770054E+05
 cg2d: Sum(rhs),rhsMax =  -7.22249918200810E+01  1.07316476577414E+00
(PID.TID 0000.0001)  ploadbar=  1.01129537087092E+05
 cg2d: Sum(rhs),rhsMax =  -7.24787640234363E+01  1.06917262691420E+00
(PID.TID 0000.0001)  ploadbar=  1.01129322404131E+05
 cg2d: Sum(rhs),rhsMax =  -7.27615871180029E+01  1.06476329216045E+00
(PID.TID 0000.0001)  ploadbar=  1.01129107721169E+05
 cg2d: Sum(rhs),rhsMax =  -7.33119322656729E+01  1.05656067783919E+00
(PID.TID 0000.0001)  ploadbar=  1.01130053025957E+05
 cg2d: Sum(rhs),rhsMax =  -7.38837580908517E+01  1.04821355376627E+00
(PID.TID 0000.0001)  ploadbar=  1.01130998330745E+05
 cg2d: Sum(rhs),rhsMax =  -7.44799923499320E+01  1.03969116951559E+00
(PID.TID 0000.0001)  ploadbar=  1.01131943635533E+05
 cg2d: Sum(rhs),rhsMax =  -7.50941391702437E+01  1.03109181283774E+00
(PID.TID 0000.0001)  ploadbar=  1.01132888940320E+05
 cg2d: Sum(rhs),rhsMax =  -7.57238483569249E+01  1.02245092955462E+00
(PID.TID 0000.0001)  ploadbar=  1.01133834245108E+05
 cg2d: Sum(rhs),rhsMax =  -7.63412607048314E+01  1.01413905992771E+00
(PID.TID 0000.0001)  ploadbar=  1.01134779549896E+05
 cg2d: Sum(rhs),rhsMax =  -7.62877250844578E+01  1.01478303798984E+00
(PID.TID 0000.0001)  ploadbar=  1.01134600024824E+05
 cg2d: Sum(rhs),rhsMax =  -7.62320239117052E+01  1.01543144412858E+00
(PID.TID 0000.0001)  ploadbar=  1.01134420499751E+05
 cg2d: Sum(rhs),rhsMax =  -7.61763179220983E+01  1.01605384841278E+00
(PID.TID 0000.0001)  ploadbar=  1.01134240974679E+05
 cg2d: Sum(rhs),rhsMax =  -7.61153292317355E+01  1.01671932795972E+00
(PID.TID 0000.0001)  ploadbar=  1.01134061449607E+05
 cg2d: Sum(rhs),rhsMax =  -7.60502906092257E+01  1.01740857351437E+00
(PID.TID 0000.0001)  ploadbar=  1.01133881924535E+05
 cg2d: Sum(rhs),rhsMax =  -7.59819003704278E+01  1.01810875760626E+00
(PID.TID 0000.0001)  ploadbar=  1.01133702399462E+05
 cg2d: Sum(rhs),rhsMax =  -7.58806434237110E+01  1.01927187386666E+00
(PID.TID 0000.0001)  ploadbar=  1.01133491020908E+05
 cg2d: Sum(rhs),rhsMax =  -7.57820457670515E+01  1.02041954607519E+00
(PID.TID 0000.0001)  ploadbar=  1.01133279642353E+05
 cg2d: Sum(rhs),rhsMax =  -7.56794968849077E+01  1.02163484569300E+00
(PID.TID 0000.0001)  ploadbar=  1.01133068263799E+05
 cg2d: Sum(rhs),rhsMax =  -7.55770133710958E+01  1.02285752508295E+00
(PID.TID 0000.0001)  ploadbar=  1.01132856885244E+05
 cg2d: Sum(rhs),rhsMax =  -7.54771188924929E+01  1.02404873594892E+00
(PID.TID 0000.0001)  ploadbar=  1.01132645506690E+05
 cg2d: Sum(rhs),rhsMax =  -7.53782602110944E+01  1.02522125152701E+00
(PID.TID 0000.0001)  ploadbar=  1.01132434128135E+05
 cg2d: Sum(rhs),rhsMax =  -7.53366131303607E+01  1.02562816905718E+00
(PID.TID 0000.0001)  ploadbar=  1.01131999398357E+05
 cg2d: Sum(rhs),rhsMax =  -7.52903477885417E+01  1.02610831810682E+00
(PID.TID 0000.0001)  ploadbar=  1.01131564668579E+05
 cg2d: Sum(rhs),rhsMax =  -7.52466492820886E+01  1.02656186794166E+00
(PID.TID 0000.0001)  ploadbar=  1.01131129938801E+05
 cg2d: Sum(rhs),rhsMax =  -7.52052270520349E+01  1.02699144706633E+00
(PID.TID 0000.0001)  ploadbar=  1.01130695209023E+05
 cg2d: Sum(rhs),rhsMax =  -7.51239210833568E+01  1.02797213576018E+00
(PID.TID 0000.0001)  ploadbar=  1.01130260479245E+05
 cg2d: Sum(rhs),rhsMax =  -7.51087678409590E+01  1.02805589094094E+00
(PID.TID 0000.0001)  ploadbar=  1.01129825749467E+05
 cg2d: Sum(rhs),rhsMax =  -7.50563214864574E+01  1.02870335847970E+00
(PID.TID 0000.0001)  ploadbar=  1.01129134438497E+05
 cg2d: Sum(rhs),rhsMax =  -7.50269062176902E+01  1.02908222296068E+00
(PID.TID 0000.0001)  ploadbar=  1.01128443127526E+05
 cg2d: Sum(rhs),rhsMax =  -7.50212714470334E+01  1.02917857015089E+00
(PID.TID 0000.0001)  ploadbar=  1.01127751816556E+05
 cg2d: Sum(rhs),rhsMax =  -7.50356224986611E+01  1.02904067770395E+00
(PID.TID 0000.0001)  ploadbar=  1.01127060505585E+05
 cg2d: Sum(rhs),rhsMax =  -7.50735313446752E+01  1.02861748850580E+00
(PID.TID 0000.0001)  ploadbar=  1.01126369194615E+05
 cg2d: Sum(rhs),rhsMax =  -7.51314483252053E+01  1.02795132113194E+00
(PID.TID 0000.0001)  ploadbar=  1.01125677883644E+05
 cg2d: Sum(rhs),rhsMax =  -7.51853044580939E+01  1.02729879764302E+00
(PID.TID 0000.0001)  ploadbar=  1.01124821086462E+05
 cg2d: Sum(rhs),rhsMax =  -7.52712348337244E+01  1.02616557222378E+00
(PID.TID 0000.0001)  ploadbar=  1.01123964289280E+05
 cg2d: Sum(rhs),rhsMax =  -7.53721377814811E+01  1.02478535988170E+00
(PID.TID 0000.0001)  ploadbar=  1.01123107492098E+05
 cg2d: Sum(rhs),rhsMax =  -7.54750199097095E+01  1.02333353175947E+00
(PID.TID 0000.0001)  ploadbar=  1.01122250694915E+05
 cg2d: Sum(rhs),rhsMax =  -7.55659868577325E+01  1.02199503356586E+00
(PID.TID 0000.0001)  ploadbar=  1.01121393897733E+05
 cg2d: Sum(rhs),rhsMax =  -7.56312169310014E+01  1.02095288455026E+00
(PID.TID 0000.0001)  ploadbar=  1.01120537100551E+05
 cg2d: Sum(rhs),rhsMax =  -7.56388027028303E+01  1.02069306810498E+00
(PID.TID 0000.0001)  ploadbar=  1.01118958240237E+05
 cg2d: Sum(rhs),rhsMax =  -7.55596606620771E+01  1.02160355438162E+00
(PID.TID 0000.0001)  ploadbar=  1.01117379379923E+05
 cg2d: Sum(rhs),rhsMax =  -7.53867043113543E+01  1.02378383040718E+00
(PID.TID 0000.0001)  ploadbar=  1.01115800519610E+05
 cg2d: Sum(rhs),rhsMax =  -7.51695202886431E+01  1.02656947508072E+00
(PID.TID 0000.0001)  ploadbar=  1.01114221659296E+05
 cg2d: Sum(rhs),rhsMax =  -7.49357126496489E+01  1.02958890386105E+00
(PID.TID 0000.0001)  ploadbar=  1.01112642798982E+05
 cg2d: Sum(rhs),rhsMax =  -7.47095190330647E+01  1.03251011058730E+00
(PID.TID 0000.0001)  ploadbar=  1.01111063938668E+05
 cg2d: Sum(rhs),rhsMax =  -7.47506481237351E+01  1.03172272995133E+00
(PID.TID 0000.0001)  ploadbar=  1.01110649286739E+05
 cg2d: Sum(rhs),rhsMax =  -7.48057228861591E+01  1.03072110457437E+00
(PID.TID 0000.0001)  ploadbar=  1.01110234634809E+05
 cg2d: Sum(rhs),rhsMax =  -7.48753192290555E+01  1.02949609533953E+00
(PID.TID 0000.0001)  ploadbar=  1.01109819982880E+05
 cg2d: Sum(rhs),rhsMax =  -7.49668222144035E+01  1.02794678899375E+00
(PID.TID 0000.0001)  ploadbar=  1.01109405330950E+05
 cg2d: Sum(rhs),rhsMax =  -7.50705904428506E+01  1.02620612744284E+00
(PID.TID 0000.0001)  ploadbar=  1.01108990679021E+05
 cg2d: Sum(rhs),rhsMax =  -7.51964709303223E+01  1.02414517527241E+00
(PID.TID 0000.0001)  ploadbar=  1.01108576027092E+05
 cg2d: Sum(rhs),rhsMax =  -7.41547529436965E+01  1.03821095981863E+00
(PID.TID 0000.0001)  ploadbar=  1.01108514453760E+05
 cg2d: Sum(rhs),rhsMax =  -7.21999740749967E+01  1.06601095823259E+00
(PID.TID 0000.0001)  ploadbar=  1.01108452880428E+05
 cg2d: Sum(rhs),rhsMax =  -7.01983415952649E+01  1.09610848232368E+00
(PID.TID 0000.0001)  ploadbar=  1.01108391307096E+05
 cg2d: Sum(rhs),rhsMax =  -6.81493296067966E+01  1.12877568676724E+00
(PID.TID 0000.0001)  ploadbar=  1.01108329733764E+05
 cg2d: Sum(rhs),rhsMax =  -6.61051481434142E+01  1.16340092076857E+00
(PID.TID 0000.0001)  ploadbar=  1.01108268160432E+05
 cg2d: Sum(rhs),rhsMax =  -6.40710397628192E+01  1.20005946912102E+00
(PID.TID 0000.0001)  ploadbar=  1.01108206587101E+05
 cg2d: Sum(rhs),rhsMax =  -6.22408922874093E+01  1.23505692597459E+00
(PID.TID 0000.0001)  ploadbar=  1.01107772021316E+05
 cg2d: Sum(rhs),rhsMax =  -6.06489452605391E+01  1.26716938960097E+00
(PID.TID 0000.0001)  ploadbar=  1.01107337455531E+05
 cg2d: Sum(rhs),rhsMax =  -5.93194129648733E+01  1.29524588804934E+00
(PID.TID 0000.0001)  ploadbar=  1.01106902889746E+05
 cg2d: Sum(rhs),rhsMax =  -5.82829842562261E+01  1.31793237596433E+00
(PID.TID 0000.0001)  ploadbar=  1.01106468323961E+05
 cg2d: Sum(rhs),rhsMax =  -5.75446672796912E+01  1.33447244607469E+00
(PID.TID 0000.0001)  ploadbar=  1.01106033758176E+05
 cg2d: Sum(rhs),rhsMax =  -5.73439163142466E+01  1.33875068426869E+00
(PID.TID 0000.0001)  ploadbar=  1.01105599192391E+05
 cg2d: Sum(rhs),rhsMax =  -5.76891704401684E+01  1.33037350555122E+00
(PID.TID 0000.0001)  ploadbar=  1.01105855250403E+05
 cg2d: Sum(rhs),rhsMax =  -5.80817081432432E+01  1.32104246210071E+00
(PID.TID 0000.0001)  ploadbar=  1.01106111308415E+05
 cg2d: Sum(rhs),rhsMax =  -5.85185202486339E+01  1.31086161017345E+00
(PID.TID 0000.0001)  ploadbar=  1.01106367366426E+05
 cg2d: Sum(rhs),rhsMax =  -5.90262211000266E+01  1.29928078100756E+00
(PID.TID 0000.0001)  ploadbar=  1.01106623424438E+05
 cg2d: Sum(rhs),rhsMax =  -5.96162890403031E+01  1.28612366980541E+00
(PID.TID 0000.0001)  ploadbar=  1.01106879482449E+05
 cg2d: Sum(rhs),rhsMax =  -6.02987908143237E+01  1.27127394824116E+00
(PID.TID 0000.0001)  ploadbar=  1.01107135540461E+05
 cg2d: Sum(rhs),rhsMax =  -6.10977064814793E+01  1.25435118597732E+00
(PID.TID 0000.0001)  ploadbar=  1.01107351185738E+05
 cg2d: Sum(rhs),rhsMax =  -6.19912151995821E+01  1.23596424208544E+00
(PID.TID 0000.0001)  ploadbar=  1.01107566831015E+05
 cg2d: Sum(rhs),rhsMax =  -6.29754232363351E+01  1.21633105335678E+00
(PID.TID 0000.0001)  ploadbar=  1.01107782476292E+05
 cg2d: Sum(rhs),rhsMax =  -6.40435317358629E+01  1.19571809004930E+00
(PID.TID 0000.0001)  ploadbar=  1.01107998121569E+05
 cg2d: Sum(rhs),rhsMax =  -6.51834057417360E+01  1.17447072822338E+00
(PID.TID 0000.0001)  ploadbar=  1.01108213766846E+05
 cg2d: Sum(rhs),rhsMax =  -6.63747266337716E+01  1.15304169364385E+00
(PID.TID 0000.0001)  ploadbar=  1.01108429412123E+05
 cg2d: Sum(rhs),rhsMax =  -6.77180336534212E+01  1.12986821637992E+00
(PID.TID 0000.0001)  ploadbar=  1.01109037645365E+05
 cg2d: Sum(rhs),rhsMax =  -6.91189304527227E+01  1.10670944771632E+00
(PID.TID 0000.0001)  ploadbar=  1.01109645878607E+05
 cg2d: Sum(rhs),rhsMax =  -6.88325549201873E+01  1.11108833322719E+00
(PID.TID 0000.0001)  ploadbar=  1.01110254111849E+05
 cg2d: Sum(rhs),rhsMax =  -6.83514845637382E+01  1.11871409958421E+00
(PID.TID 0000.0001)  ploadbar=  1.01110862345091E+05
 cg2d: Sum(rhs),rhsMax =  -6.79169324888778E+01  1.12570763137095E+00
(PID.TID 0000.0001)  ploadbar=  1.01111470578333E+05
 cg2d: Sum(rhs),rhsMax =  -6.75324391904133E+01  1.13197747178459E+00
(PID.TID 0000.0001)  ploadbar=  1.01112078811575E+05
 cg2d: Sum(rhs),rhsMax =  -6.72224206735624E+01  1.13704457416774E+00
(PID.TID 0000.0001)  ploadbar=  1.01113022071624E+05
 cg2d: Sum(rhs),rhsMax =  -6.69510440707840E+01  1.14148128063338E+00
(PID.TID 0000.0001)  ploadbar=  1.01113965331674E+05
 cg2d: Sum(rhs),rhsMax =  -6.66989959509541E+01  1.14560072946984E+00
(PID.TID 0000.0001)  ploadbar=  1.01114908591723E+05
 cg2d: Sum(rhs),rhsMax =  -6.64695732314411E+01  1.14933555766771E+00
(PID.TID 0000.0001)  ploadbar=  1.01115851851772E+05
 cg2d: Sum(rhs),rhsMax =  -6.62572886156377E+01  1.15277081719754E+00
(PID.TID 0000.0001)  ploadbar=  1.01116795111822E+05
 cg2d: Sum(rhs),rhsMax =  -6.60588462854918E+01  1.15595581776231E+00
(PID.TID 0000.0001)  ploadbar=  1.01117738371871E+05
 cg2d: Sum(rhs),rhsMax =  -6.59239190293186E+01  1.15803962786933E+00
(PID.TID 0000.0001)  ploadbar=  1.01120157273323E+05
 cg2d: Sum(rhs),rhsMax =  -6.57960616875924E+01  1.16000239973759E+00
(PID.TID 0000.0001)  ploadbar=  1.01122576174774E+05
 cg2d: Sum(rhs),rhsMax =  -6.56701545055604E+01  1.16192933914652E+00
(PID.TID 0000.0001)  ploadbar=  1.01124995076226E+05
 cg2d: Sum(rhs),rhsMax =  -6.55463625998709E+01  1.16381348581894E+00
(PID.TID 0000.0001)  ploadbar=  1.01127413977678E+05
 cg2d: Sum(rhs),rhsMax =  -6.54227524376551E+01  1.16568521808512E+00
(PID.TID 0000.0001)  ploadbar=  1.01129832879129E+05
 cg2d: Sum(rhs),rhsMax =  -6.53001205711791E+01  1.16752527576260E+00
(PID.TID 0000.0001)  ploadbar=  1.01132251780581E+05
 cg2d: Sum(rhs),rhsMax =  -6.50979022143287E+01  1.17079503500905E+00
(PID.TID 0000.0001)  ploadbar=  1.01132622184965E+05
 cg2d: Sum(rhs),rhsMax =  -6.47913781357676E+01  1.17596710467337E+00
(PID.TID 0000.0001)  ploadbar=  1.01132992589349E+05
 cg2d: Sum(rhs),rhsMax =  -6.44491302037307E+01  1.18183222295601E+00
(PID.TID 0000.0001)  ploadbar=  1.01133362993732E+05
 cg2d: Sum(rhs),rhsMax =  -6.41322892941823E+01  1.18727709482026E+00
(PID.TID 0000.0001)  ploadbar=  1.01133733398116E+05
 cg2d: Sum(rhs),rhsMax =  -6.38398534098851E+01  1.19230646183883E+00
(PID.TID 0000.0001)  ploadbar=  1.01134103802500E+05
 cg2d: Sum(rhs),rhsMax =  -6.35729655444061E+01  1.19688749836857E+00
(PID.TID 0000.0001)  ploadbar=  1.01134474206884E+05
 cg2d: Sum(rhs),rhsMax =  -6.33346186431990E+01  1.20101437075512E+00
(PID.TID 0000.0001)  ploadbar=  1.01134225448527E+05
 cg2d: Sum(rhs),rhsMax =  -6.31419391100090E+01  1.20434391585723E+00
(PID.TID 0000.0001)  ploadbar=  1.01133976690171E+05
 cg2d: Sum(rhs),rhsMax =  -6.29924919012790E+01  1.20690683379412E+00
(PID.TID 0000.0001)  ploadbar=  1.01133727931814E+05
 cg2d: Sum(rhs),rhsMax =  -6.28796512792801E+01  1.20881797939599E+00
(PID.TID 0000.0001)  ploadbar=  1.01133479173457E+05
 cg2d: Sum(rhs),rhsMax =  -6.27988019266570E+01  1.21015539165267E+00
(PID.TID 0000.0001)  ploadbar=  1.01133230415100E+05
 cg2d: Sum(rhs),rhsMax =  -6.27462608853467E+01  1.21097720332272E+00
(PID.TID 0000.0001)  ploadbar=  1.01132981656743E+05
 cg2d: Sum(rhs),rhsMax =  -6.27238359118517E+01  1.21123249354840E+00
(PID.TID 0000.0001)  ploadbar=  1.01133213362912E+05
 cg2d: Sum(rhs),rhsMax =  -6.26985164934155E+01  1.21155211570956E+00
(PID.TID 0000.0001)  ploadbar=  1.01133445069081E+05
 cg2d: Sum(rhs),rhsMax =  -6.26696541906555E+01  1.21194270788275E+00
(PID.TID 0000.0001)  ploadbar=  1.01133676775250E+05
 cg2d: Sum(rhs),rhsMax =  -6.26375778035835E+01  1.21239672591424E+00
(PID.TID 0000.0001)  ploadbar=  1.01133908481419E+05
 cg2d: Sum(rhs),rhsMax =  -6.25999834478317E+01  1.21295568028267E+00
(PID.TID 0000.0001)  ploadbar=  1.01134140187588E+05
 cg2d: Sum(rhs),rhsMax =  -6.25571450247910E+01  1.21361019858766E+00
(PID.TID 0000.0001)  ploadbar=  1.01134371893757E+05
 cg2d: Sum(rhs),rhsMax =  -6.25282225104574E+01  1.21401302340481E+00
(PID.TID 0000.0001)  ploadbar=  1.01134096444280E+05
 cg2d: Sum(rhs),rhsMax =  -6.24799738169917E+01  1.21480190311301E+00
(PID.TID 0000.0001)  ploadbar=  1.01133820994804E+05
 cg2d: Sum(rhs),rhsMax =  -6.24126572466261E+01  1.21596744159705E+00
(PID.TID 0000.0001)  ploadbar=  1.01133545545328E+05
 cg2d: Sum(rhs),rhsMax =  -6.23256269771163E+01  1.21751910769070E+00
(PID.TID 0000.0001)  ploadbar=  1.01133270095852E+05
 cg2d: Sum(rhs),rhsMax =  -6.22294852265557E+01  1.21924676327880E+00
(PID.TID 0000.0001)  ploadbar=  1.01132994646375E+05
 cg2d: Sum(rhs),rhsMax =  -6.21233698847116E+01  1.22116317994308E+00
(PID.TID 0000.0001)  ploadbar=  1.01132719196899E+05
 cg2d: Sum(rhs),rhsMax =  -6.20173570067487E+01  1.22306935020139E+00
(PID.TID 0000.0001)  ploadbar=  1.01132289180700E+05
 cg2d: Sum(rhs),rhsMax =  -6.18926060846809E+01  1.22533455037618E+00
(PID.TID 0000.0001)  ploadbar=  1.01131859164502E+05
 cg2d: Sum(rhs),rhsMax =  -6.17529254282539E+01  1.22788184874742E+00
(PID.TID 0000.0001)  ploadbar=  1.01131429148303E+05
 cg2d: Sum(rhs),rhsMax =  -6.16041581024588E+01  1.23059371635190E+00
(PID.TID 0000.0001)  ploadbar=  1.01130999132104E+05
 cg2d: Sum(rhs),rhsMax =  -6.14508916393217E+01  1.23337832116717E+00
(PID.TID 0000.0001)  ploadbar=  1.01130569115906E+05
 cg2d: Sum(rhs),rhsMax =  -6.12964128361112E+01  1.23617080643575E+00
(PID.TID 0000.0001)  ploadbar=  1.01130139099707E+05
 cg2d: Sum(rhs),rhsMax =  -6.03214865719963E+01  1.25586347757248E+00
(PID.TID 0000.0001)  ploadbar=  1.01130483979560E+05
 cg2d: Sum(rhs),rhsMax =  -5.93199897904285E+01  1.27680550512911E+00
(PID.TID 0000.0001)  ploadbar=  1.01130828859414E+05
 cg2d: Sum(rhs),rhsMax =  -5.84371546709233E+01  1.29585993860006E+00
(PID.TID 0000.0001)  ploadbar=  1.01131173739267E+05
 cg2d: Sum(rhs),rhsMax =  -5.76611838173497E+01  1.31308519043242E+00
(PID.TID 0000.0001)  ploadbar=  1.01131518619120E+05
 cg2d: Sum(rhs),rhsMax =  -5.69680635061315E+01  1.32886377102183E+00
(PID.TID 0000.0001)  ploadbar=  1.01131863498974E+05
 cg2d: Sum(rhs),rhsMax =  -5.63471881161137E+01  1.34331465142803E+00
(PID.TID 0000.0001)  ploadbar=  1.01132208378827E+05
 cg2d: Sum(rhs),rhsMax =  -5.58340703638630E+01  1.35544218916942E+00
(PID.TID 0000.0001)  ploadbar=  1.01132153548016E+05
 cg2d: Sum(rhs),rhsMax =  -5.53881417783474E+01  1.36610273835405E+00
(PID.TID 0000.0001)  ploadbar=  1.01132098717205E+05
 cg2d: Sum(rhs),rhsMax =  -5.50086263224544E+01  1.37524062700456E+00
(PID.TID 0000.0001)  ploadbar=  1.01132043886394E+05
 cg2d: Sum(rhs),rhsMax =  -5.46922353966553E+01  1.38287287669972E+00
(PID.TID 0000.0001)  ploadbar=  1.01131989055583E+05
 cg2d: Sum(rhs),rhsMax =  -5.44380960184411E+01  1.38896408346290E+00
(PID.TID 0000.0001)  ploadbar=  1.01131934224772E+05
 cg2d: Sum(rhs),rhsMax =  -5.42454693719951E+01  1.39348520954833E+00
(PID.TID 0000.0001)  ploadbar=  1.01131879393961E+05
 cg2d: Sum(rhs),rhsMax =  -5.40983341566282E+01  1.39688281092105E+00
(PID.TID 0000.0001)  ploadbar=  1.01131611986170E+05
 cg2d: Sum(rhs),rhsMax =  -5.39536842227012E+01  1.40024850377252E+00
(PID.TID 0000.0001)  ploadbar=  1.01131344578379E+05
 cg2d: Sum(rhs),rhsMax =  -5.38065727921065E+01  1.40370471200718E+00
(PID.TID 0000.0001)  ploadbar=  1.01131077170589E+05
 cg2d: Sum(rhs),rhsMax =  -5.37163916166361E+01  1.40569456985177E+00
(PID.TID 0000.0001)  ploadbar=  1.01130809762798E+05
 cg2d: Sum(rhs),rhsMax =  -5.37652739375409E+01  1.40404932561555E+00
(PID.TID 0000.0001)  ploadbar=  1.01130542355008E+05
 cg2d: Sum(rhs),rhsMax =  -5.39708835822784E+01  1.39833003164673E+00
(PID.TID 0000.0001)  ploadbar=  1.01130274947217E+05
 cg2d: Sum(rhs),rhsMax =  -5.44548872647188E+01  1.38550393108544E+00
(PID.TID 0000.0001)  ploadbar=  1.01130437282464E+05
 cg2d: Sum(rhs),rhsMax =  -5.52464746050559E+01  1.36522762707234E+00
(PID.TID 0000.0001)  ploadbar=  1.01130599617711E+05
 cg2d: Sum(rhs),rhsMax =  -5.64875120366133E+01  1.33478388988934E+00
(PID.TID 0000.0001)  ploadbar=  1.01130761952957E+05
 cg2d: Sum(rhs),rhsMax =  -5.73629798634677E+01  1.31393455322870E+00
(PID.TID 0000.0001)  ploadbar=  1.01130924288204E+05
 cg2d: Sum(rhs),rhsMax =  -5.72310258268791E+01  1.31645150660605E+00
(PID.TID 0000.0001)  ploadbar=  1.01131086623451E+05
 cg2d: Sum(rhs),rhsMax =  -5.71144658984779E+01  1.31859282747336E+00
(PID.TID 0000.0001)  ploadbar=  1.01131248958698E+05
 cg2d: Sum(rhs),rhsMax =  -5.70243183492973E+01  1.32018824383393E+00
(PID.TID 0000.0001)  ploadbar=  1.01131674386836E+05
 cg2d: Sum(rhs),rhsMax =  -5.69534503689366E+01  1.32139243159500E+00
(PID.TID 0000.0001)  ploadbar=  1.01132099814974E+05
 cg2d: Sum(rhs),rhsMax =  -5.68993148236904E+01  1.32226066494928E+00
(PID.TID 0000.0001)  ploadbar=  1.01132525243112E+05
 cg2d: Sum(rhs),rhsMax =  -5.68608087670553E+01  1.32281431038916E+00
(PID.TID 0000.0001)  ploadbar=  1.01132950671250E+05
 cg2d: Sum(rhs),rhsMax =  -5.68421098088014E+01  1.32294622727449E+00
(PID.TID 0000.0001)  ploadbar=  1.01133376099388E+05
 cg2d: Sum(rhs),rhsMax =  -5.68485791491363E+01  1.32252038369965E+00
(PID.TID 0000.0001)  ploadbar=  1.01133801527526E+05
 cg2d: Sum(rhs),rhsMax =  -5.68889065136206E+01  1.32127113272040E+00
(PID.TID 0000.0001)  ploadbar=  1.01134598120213E+05
 cg2d: Sum(rhs),rhsMax =  -5.69761715121525E+01  1.31889851102770E+00
(PID.TID 0000.0001)  ploadbar=  1.01135394712901E+05
 cg2d: Sum(rhs),rhsMax =  -5.71284840702278E+01  1.31499293702964E+00
(PID.TID 0000.0001)  ploadbar=  1.01136191305588E+05
 cg2d: Sum(rhs),rhsMax =  -5.73488994474684E+01  1.30950652466434E+00
(PID.TID 0000.0001)  ploadbar=  1.01136987898275E+05
 cg2d: Sum(rhs),rhsMax =  -5.76356344151966E+01  1.30251428114790E+00
(PID.TID 0000.0001)  ploadbar=  1.01137784490963E+05
 cg2d: Sum(rhs),rhsMax =  -5.79902763274549E+01  1.29402454392129E+00
(PID.TID 0000.0001)  ploadbar=  1.01138581083650E+05
 cg2d: Sum(rhs),rhsMax =  -5.83915136603501E+01  1.28464256708625E+00
(PID.TID 0000.0001)  ploadbar=  1.01139574892079E+05
 cg2d: Sum(rhs),rhsMax =  -5.87931090607836E+01  1.27540270076033E+00
(PID.TID 0000.0001)  ploadbar=  1.01140568700509E+05
 cg2d: Sum(rhs),rhsMax =  -5.91782837272248E+01  1.26665610953150E+00
(PID.TID 0000.0001)  ploadbar=  1.01141562508938E+05
 cg2d: Sum(rhs),rhsMax =  -5.95512392024470E+01  1.25829129585812E+00
(PID.TID 0000.0001)  ploadbar=  1.01142556317367E+05
 cg2d: Sum(rhs),rhsMax =  -5.98943386569738E+01  1.25066189968931E+00
(PID.TID 0000.0001)  ploadbar=  1.01143550125797E+05
 cg2d: Sum(rhs),rhsMax =  -6.01950207858751E+01  1.24399827825461E+00
(PID.TID 0000.0001)  ploadbar=  1.01144543934226E+05
 cg2d: Sum(rhs),rhsMax =  -6.04782761344971E+01  1.23773948103046E+00
(PID.TID 0000.0001)  ploadbar=  1.01145839302230E+05
 cg2d: Sum(rhs),rhsMax =  -6.07162267549167E+01  1.23243451835116E+00
(PID.TID 0000.0001)  ploadbar=  1.01147134670234E+05
 cg2d: Sum(rhs),rhsMax =  -6.09076632788906E+01  1.22808041872822E+00
(PID.TID 0000.0001)  ploadbar=  1.01148430038238E+05
 cg2d: Sum(rhs),rhsMax =  -6.10757582197065E+01  1.22419042508866E+00
(PID.TID 0000.0001)  ploadbar=  1.01149725406242E+05
 cg2d: Sum(rhs),rhsMax =  -6.12279858621719E+01  1.22060405455629E+00
(PID.TID 0000.0001)  ploadbar=  1.01151020774246E+05
 cg2d: Sum(rhs),rhsMax =  -6.13616566328259E+01  1.21736696994631E+00
(PID.TID 0000.0001)  ploadbar=  1.01152316142251E+05
 cg2d: Sum(rhs),rhsMax =  -6.14656407724846E+01  1.21478260103411E+00
(PID.TID 0000.0001)  ploadbar=  1.01152514014368E+05
 cg2d: Sum(rhs),rhsMax =  -6.15704521272041E+01  1.21223842784366E+00
(PID.TID 0000.0001)  ploadbar=  1.01152711886486E+05
 cg2d: Sum(rhs),rhsMax =  -6.16904417271564E+01  1.20944884581984E+00
(PID.TID 0000.0001)  ploadbar=  1.01152909758604E+05
 cg2d: Sum(rhs),rhsMax =  -6.18232009444728E+01  1.20646215109113E+00
(PID.TID 0000.0001)  ploadbar=  1.01153107630722E+05
 cg2d: Sum(rhs),rhsMax =  -6.19741980606950E+01  1.20317098171905E+00
(PID.TID 0000.0001)  ploadbar=  1.01153305502840E+05
 cg2d: Sum(rhs),rhsMax =  -6.21511664382476E+01  1.19942121300519E+00
(PID.TID 0000.0001)  ploadbar=  1.01153503374958E+05
 cg2d: Sum(rhs),rhsMax =  -6.20504358795936E+01  1.20103269411556E+00
(PID.TID 0000.0001)  ploadbar=  1.01154010039222E+05
 cg2d: Sum(rhs),rhsMax =  -6.17744901655807E+01  1.20604393584390E+00
(PID.TID 0000.0001)  ploadbar=  1.01154516703487E+05
 cg2d: Sum(rhs),rhsMax =  -6.14639481473647E+01  1.21175864610894E+00
(PID.TID 0000.0001)  ploadbar=  1.01155023367752E+05
 cg2d: Sum(rhs),rhsMax =  -6.11162397897326E+01  1.21823861876367E+00
(PID.TID 0000.0001)  ploadbar=  1.01155530032017E+05
 cg2d: Sum(rhs),rhsMax =  -6.07259034920667E+01  1.22561609937957E+00
(PID.TID 0000.0001)  ploadbar=  1.01156036696282E+05
 cg2d: Sum(rhs),rhsMax =  -6.02919474238607E+01  1.23394092577676E+00
(PID.TID 0000.0001)  ploadbar=  1.01156543360547E+05
 cg2d: Sum(rhs),rhsMax =  -5.97989942809007E+01  1.24365865694172E+00
(PID.TID 0000.0001)  ploadbar=  1.01156576781181E+05
 cg2d: Sum(rhs),rhsMax =  -5.92965010527324E+01  1.25377881775052E+00
(PID.TID 0000.0001)  ploadbar=  1.01156610201816E+05
 cg2d: Sum(rhs),rhsMax =  -5.87877488917682E+01  1.26423943807417E+00
(PID.TID 0000.0001)  ploadbar=  1.01156643622450E+05
 cg2d: Sum(rhs),rhsMax =  -5.82930604681747E+01  1.27460193176947E+00
(PID.TID 0000.0001)  ploadbar=  1.01156677043084E+05
 cg2d: Sum(rhs),rhsMax =  -5.78315649345066E+01  1.28442667599629E+00
(PID.TID 0000.0001)  ploadbar=  1.01156710463719E+05
 cg2d: Sum(rhs),rhsMax =  -5.74120511721012E+01  1.29347931201760E+00
(PID.TID 0000.0001)  ploadbar=  1.01156743884353E+05
 cg2d: Sum(rhs),rhsMax =  -5.70261509624089E+01  1.30187950953660E+00
(PID.TID 0000.0001)  ploadbar=  1.01155740934961E+05
 cg2d: Sum(rhs),rhsMax =  -5.67234598589920E+01  1.30845405215722E+00
(PID.TID 0000.0001)  ploadbar=  1.01154737985568E+05
 cg2d: Sum(rhs),rhsMax =  -5.64938923228119E+01  1.31337631546275E+00
(PID.TID 0000.0001)  ploadbar=  1.01153735036176E+05
 cg2d: Sum(rhs),rhsMax =  -5.63614101658352E+01  1.31604368979225E+00
(PID.TID 0000.0001)  ploadbar=  1.01152732086784E+05
 cg2d: Sum(rhs),rhsMax =  -5.63503029983533E+01  1.31585699783201E+00
(PID.TID 0000.0001)  ploadbar=  1.01151729137391E+05
 cg2d: Sum(rhs),rhsMax =  -5.64564946551983E+01  1.31290836294339E+00
(PID.TID 0000.0001)  ploadbar=  1.01150726187999E+05
 cg2d: Sum(rhs),rhsMax =  -5.67484606544949E+01  1.30576361437484E+00
(PID.TID 0000.0001)  ploadbar=  1.01148831066251E+05
 cg2d: Sum(rhs),rhsMax =  -5.70940870003952E+01  1.29754522816560E+00
(PID.TID 0000.0001)  ploadbar=  1.01146935944502E+05
 cg2d: Sum(rhs),rhsMax =  -5.74589843568440E+01  1.28906472613394E+00
(PID.TID 0000.0001)  ploadbar=  1.01145040822754E+05
 cg2d: Sum(rhs),rhsMax =  -5.78248503236673E+01  1.28073732424916E+00
(PID.TID 0000.0001)  ploadbar=  1.01143145701006E+05
 cg2d: Sum(rhs),rhsMax =  -5.81925590871398E+01  1.27253753410834E+00
(PID.TID 0000.0001)  ploadbar=  1.01141250579257E+05
 cg2d: Sum(rhs),rhsMax =  -5.85659597935109E+01  1.26437628507605E+00
(PID.TID 0000.0001)  ploadbar=  1.01139355457509E+05
 cg2d: Sum(rhs),rhsMax =  -5.89915012705853E+01  1.25519181816125E+00
(PID.TID 0000.0001)  ploadbar=  1.01138802128915E+05
 cg2d: Sum(rhs),rhsMax =  -5.93735177671812E+01  1.24703110421160E+00
(PID.TID 0000.0001)  ploadbar=  1.01138248800321E+05
 cg2d: Sum(rhs),rhsMax =  -5.95905731369351E+01  1.24237931346125E+00
(PID.TID 0000.0001)  ploadbar=  1.01137695471726E+05
 cg2d: Sum(rhs),rhsMax =  -5.96216407104860E+01  1.24159126931412E+00
(PID.TID 0000.0001)  ploadbar=  1.01137142143132E+05
 cg2d: Sum(rhs),rhsMax =  -5.96365397693341E+01  1.24110474478969E+00
(PID.TID 0000.0001)  ploadbar=  1.01136588814538E+05
 cg2d: Sum(rhs),rhsMax =  -5.96398543343880E+01  1.24082150041184E+00
(PID.TID 0000.0001)  ploadbar=  1.01136035485944E+05
 cg2d: Sum(rhs),rhsMax =  -5.95043627317802E+01  1.24344789589298E+00
(PID.TID 0000.0001)  ploadbar=  1.01135307360265E+05
 cg2d: Sum(rhs),rhsMax =  -5.93641279292715E+01  1.24619420096265E+00
(PID.TID 0000.0001)  ploadbar=  1.01134579234587E+05
 cg2d: Sum(rhs),rhsMax =  -5.92566556591473E+01  1.24826564072469E+00
(PID.TID 0000.0001)  ploadbar=  1.01133851108908E+05
 cg2d: Sum(rhs),rhsMax =  -5.91853963360570E+01  1.24957687661738E+00
(PID.TID 0000.0001)  ploadbar=  1.01133122983230E+05
 cg2d: Sum(rhs),rhsMax =  -5.91662929879583E+01  1.24978195514565E+00
(PID.TID 0000.0001)  ploadbar=  1.01132394857551E+05
 cg2d: Sum(rhs),rhsMax =  -5.92161197928345E+01  1.24852169089952E+00
(PID.TID 0000.0001)  ploadbar=  1.01131666731873E+05
 cg2d: Sum(rhs),rhsMax =  -5.93884620600098E+01  1.24465339180991E+00
(PID.TID 0000.0001)  ploadbar=  1.01130252615198E+05
 cg2d: Sum(rhs),rhsMax =  -5.96181482181775E+01  1.23957418510174E+00
(PID.TID 0000.0001)  ploadbar=  1.01128838498524E+05
 cg2d: Sum(rhs),rhsMax =  -5.99030392480534E+01  1.23335487115818E+00
(PID.TID 0000.0001)  ploadbar=  1.01127424381849E+05
 cg2d: Sum(rhs),rhsMax =  -6.02349214271211E+01  1.22619462507864E+00
(PID.TID 0000.0001)  ploadbar=  1.01126010265175E+05
 cg2d: Sum(rhs),rhsMax =  -6.04013183107223E+01  1.22240849276345E+00
(PID.TID 0000.0001)  ploadbar=  1.01124596148500E+05
 cg2d: Sum(rhs),rhsMax =  -6.03199681865845E+01  1.22360087283245E+00
(PID.TID 0000.0001)  ploadbar=  1.01123182031826E+05
 cg2d: Sum(rhs),rhsMax =  -6.04267305862480E+01  1.22104600858421E+00
(PID.TID 0000.0001)  ploadbar=  1.01122257447270E+05
 cg2d: Sum(rhs),rhsMax =  -6.05641097784141E+01  1.21794263280949E+00
(PID.TID 0000.0001)  ploadbar=  1.01121332862714E+05
 cg2d: Sum(rhs),rhsMax =  -6.06841550169840E+01  1.21525413146656E+00
(PID.TID 0000.0001)  ploadbar=  1.01120408278158E+05
 cg2d: Sum(rhs),rhsMax =  -6.07987967090269E+01  1.21273133674117E+00
(PID.TID 0000.0001)  ploadbar=  1.01119483693602E+05
 cg2d: Sum(rhs),rhsMax =  -6.08943863705326E+01  1.21063823747600E+00
(PID.TID 0000.0001)  ploadbar=  1.01118559109046E+05
 cg2d: Sum(rhs),rhsMax =  -6.09667854337553E+01  1.20904816083693E+00
(PID.TID 0000.0001)  ploadbar=  1.01117634524490E+05
 cg2d: Sum(rhs),rhsMax =  -6.10813619808550E+01  1.20663769061059E+00
(PID.TID 0000.0001)  ploadbar=  1.01116803585578E+05
 cg2d: Sum(rhs),rhsMax =  -6.11759012732796E+01  1.20463853591079E+00
(PID.TID 0000.0001)  ploadbar=  1.01115972646665E+05
 cg2d: Sum(rhs),rhsMax =  -6.12338025545579E+01  1.20336900271091E+00
(PID.TID 0000.0001)  ploadbar=  1.01115141707753E+05
 cg2d: Sum(rhs),rhsMax =  -6.06927499350451E+01  1.21396338596787E+00
(PID.TID 0000.0001)  ploadbar=  1.01114310768840E+05
 cg2d: Sum(rhs),rhsMax =  -5.82666076079084E+01  1.26436356636064E+00
(PID.TID 0000.0001)  ploadbar=  1.01113479829928E+05
 cg2d: Sum(rhs),rhsMax =  -5.60783858373920E+01  1.31353335977504E+00
(PID.TID 0000.0001)  ploadbar=  1.01112648891016E+05
 cg2d: Sum(rhs),rhsMax =  -5.39914616894937E+01  1.36415846522121E+00
(PID.TID 0000.0001)  ploadbar=  1.01112847438430E+05
 cg2d: Sum(rhs),rhsMax =  -5.20106524233061E+01  1.41597575397658E+00
(PID.TID 0000.0001)  ploadbar=  1.01113045985845E+05
 cg2d: Sum(rhs),rhsMax =  -5.02384061604032E+01  1.46579537622850E+00
(PID.TID 0000.0001)  ploadbar=  1.01113244533259E+05
 cg2d: Sum(rhs),rhsMax =  -4.87377779992501E+01  1.51079002826221E+00
(PID.TID 0000.0001)  ploadbar=  1.01113443080674E+05
 cg2d: Sum(rhs),rhsMax =  -4.72694712662604E+01  1.55756554422547E+00
(PID.TID 0000.0001)  ploadbar=  1.01113641628088E+05
 cg2d: Sum(rhs),rhsMax =  -4.58131136797815E+01  1.60689811929642E+00
(PID.TID 0000.0001)  ploadbar=  1.01113840175503E+05
 cg2d: Sum(rhs),rhsMax =  -4.44962623114426E+01  1.65421545522153E+00
(PID.TID 0000.0001)  ploadbar=  1.01113658029869E+05
 cg2d: Sum(rhs),rhsMax =  -4.35565224182466E+01  1.68960874383737E+00
(PID.TID 0000.0001)  ploadbar=  1.01113475884235E+05
 cg2d: Sum(rhs),rhsMax =  -4.29582836137856E+01  1.71278000331592E+00
(PID.TID 0000.0001)  ploadbar=  1.01113293738601E+05
 cg2d: Sum(rhs),rhsMax =  -4.30500487086687E+01  1.70871033114944E+00
(PID.TID 0000.0001)  ploadbar=  1.01113111592967E+05
 cg2d: Sum(rhs),rhsMax =  -4.35269164421456E+01  1.68951266004600E+00
(PID.TID 0000.0001)  ploadbar=  1.01112929447333E+05
 cg2d: Sum(rhs),rhsMax =  -4.40805398247035E+01  1.66775548920082E+00
(PID.TID 0000.0001)  ploadbar=  1.01112747301699E+05
 cg2d: Sum(rhs),rhsMax =  -4.46972204568374E+01  1.64430717975927E+00
(PID.TID 0000.0001)  ploadbar=  1.01112118974780E+05
 cg2d: Sum(rhs),rhsMax =  -4.53094437897859E+01  1.62174143764567E+00
(PID.TID 0000.0001)  ploadbar=  1.01111490647860E+05
 cg2d: Sum(rhs),rhsMax =  -4.59208594286004E+01  1.59988477994512E+00
(PID.TID 0000.0001)  ploadbar=  1.01110862320941E+05
 cg2d: Sum(rhs),rhsMax =  -4.65027544581844E+01  1.57967756352519E+00
(PID.TID 0000.0001)  ploadbar=  1.01110233994022E+05
 cg2d: Sum(rhs),rhsMax =  -4.70267297975033E+01  1.56196068899872E+00
(PID.TID 0000.0001)  ploadbar=  1.01109605667102E+05
 cg2d: Sum(rhs),rhsMax =  -4.74640001568047E+01  1.54752247592452E+00
(PID.TID 0000.0001)  ploadbar=  1.01108977340183E+05
 cg2d: Sum(rhs),rhsMax =  -4.78136649065647E+01  1.53612545557726E+00
(PID.TID 0000.0001)  ploadbar=  1.01108172380060E+05
 cg2d: Sum(rhs),rhsMax =  -4.82204488551466E+01  1.52304586456366E+00
(PID.TID 0000.0001)  ploadbar=  1.01107367419937E+05
 cg2d: Sum(rhs),rhsMax =  -4.86833748966294E+01  1.50839231093418E+00
(PID.TID 0000.0001)  ploadbar=  1.01106562459815E+05
 cg2d: Sum(rhs),rhsMax =  -4.91609602886871E+01  1.49351176791930E+00
(PID.TID 0000.0001)  ploadbar=  1.01105757499692E+05
 cg2d: Sum(rhs),rhsMax =  -4.96179965545122E+01  1.47946747982735E+00
(PID.TID 0000.0001)  ploadbar=  1.01104952539569E+05
 cg2d: Sum(rhs),rhsMax =  -5.00135621568367E+01  1.46741284537162E+00
(PID.TID 0000.0001)  ploadbar=  1.01104147579446E+05
 cg2d: Sum(rhs),rhsMax =  -5.03778063619599E+01  1.45646549503664E+00
(PID.TID 0000.0001)  ploadbar=  1.01104518031023E+05
 cg2d: Sum(rhs),rhsMax =  -5.08075952790495E+01  1.44381748654030E+00
(PID.TID 0000.0001)  ploadbar=  1.01104888482600E+05
 cg2d: Sum(rhs),rhsMax =  -5.12758509179539E+01  1.43030766210640E+00
(PID.TID 0000.0001)  ploadbar=  1.01105258934177E+05
 cg2d: Sum(rhs),rhsMax =  -5.17400649241246E+01  1.41714745998334E+00
(PID.TID 0000.0001)  ploadbar=  1.01105629385753E+05
 cg2d: Sum(rhs),rhsMax =  -5.21643878999082E+01  1.40528617448810E+00
(PID.TID 0000.0001)  ploadbar=  1.01105999837330E+05
 cg2d: Sum(rhs),rhsMax =  -5.25503202603222E+01  1.39462130734990E+00
(PID.TID 0000.0001)  ploadbar=  1.01106370288907E+05
 cg2d: Sum(rhs),rhsMax =  -5.29993550183735E+01  1.38240231430705E+00
(PID.TID 0000.0001)  ploadbar=  1.01105823844852E+05
 cg2d: Sum(rhs),rhsMax =  -5.34294120492152E+01  1.37081036736562E+00
(PID.TID 0000.0001)  ploadbar=  1.01105277400797E+05
 cg2d: Sum(rhs),rhsMax =  -5.38529409414727E+01  1.35950256189973E+00
(PID.TID 0000.0001)  ploadbar=  1.01104730956742E+05
 cg2d: Sum(rhs),rhsMax =  -5.42147739393006E+01  1.34983842768092E+00
(PID.TID 0000.0001)  ploadbar=  1.01104184512687E+05
 cg2d: Sum(rhs),rhsMax =  -5.46910931026786E+01  1.33742788539296E+00
(PID.TID 0000.0001)  ploadbar=  1.01103638068632E+05
 cg2d: Sum(rhs),rhsMax =  -5.50956253022489E+01  1.32688899685919E+00
(PID.TID 0000.0001)  ploadbar=  1.01103091624577E+05
 cg2d: Sum(rhs),rhsMax =  -5.54371716951976E+01  1.31809778382821E+00
(PID.TID 0000.0001)  ploadbar=  1.01102887685749E+05
 cg2d: Sum(rhs),rhsMax =  -5.57581600395931E+01  1.30999036036469E+00
(PID.TID 0000.0001)  ploadbar=  1.01102683746921E+05
 cg2d: Sum(rhs),rhsMax =  -5.60988506829581E+01  1.30160799335338E+00
(PID.TID 0000.0001)  ploadbar=  1.01102479808092E+05
 cg2d: Sum(rhs),rhsMax =  -5.64507964039241E+01  1.29315727196692E+00
(PID.TID 0000.0001)  ploadbar=  1.01102275869264E+05
 cg2d: Sum(rhs),rhsMax =  -5.68087505259358E+01  1.28475964876519E+00
(PID.TID 0000.0001)  ploadbar=  1.01102071930436E+05
 cg2d: Sum(rhs),rhsMax =  -5.71398102547160E+01  1.27715111586192E+00
(PID.TID 0000.0001)  ploadbar=  1.01101867991608E+05
 cg2d: Sum(rhs),rhsMax =  -5.74297551139963E+01  1.27050848795873E+00
(PID.TID 0000.0001)  ploadbar=  1.01102786265142E+05
 cg2d: Sum(rhs),rhsMax =  -5.76959482793064E+01  1.26441745620870E+00
(PID.TID 0000.0001)  ploadbar=  1.01103704538675E+05
 cg2d: Sum(rhs),rhsMax =  -5.79300683960421E+01  1.25903515842361E+00
(PID.TID 0000.0001)  ploadbar=  1.01104622812208E+05
 cg2d: Sum(rhs),rhsMax =  -5.81277661271357E+01  1.25443305943244E+00
(PID.TID 0000.0001)  ploadbar=  1.01105541085742E+05
 cg2d: Sum(rhs),rhsMax =  -5.83298343001645E+01  1.24971737899710E+00
(PID.TID 0000.0001)  ploadbar=  1.01106459359275E+05
 cg2d: Sum(rhs),rhsMax =  -5.85394483257295E+01  1.24481892876750E+00
(PID.TID 0000.0001)  ploadbar=  1.01107377632809E+05
 cg2d: Sum(rhs),rhsMax =  -5.87573903309235E+01  1.23983569748465E+00
(PID.TID 0000.0001)  ploadbar=  1.01107577195296E+05
 cg2d: Sum(rhs),rhsMax =  -5.85456866967528E+01  1.24400290794857E+00
(PID.TID 0000.0001)  ploadbar=  1.01107776757784E+05
 cg2d: Sum(rhs),rhsMax =  -5.75346639684592E+01  1.26558253729743E+00
(PID.TID 0000.0001)  ploadbar=  1.01107976320272E+05
 cg2d: Sum(rhs),rhsMax =  -5.65478074840278E+01  1.28741750775493E+00
(PID.TID 0000.0001)  ploadbar=  1.01108175882760E+05
 cg2d: Sum(rhs),rhsMax =  -5.55875428492513E+01  1.30942892820456E+00
(PID.TID 0000.0001)  ploadbar=  1.01108375445247E+05
 cg2d: Sum(rhs),rhsMax =  -5.46580782146669E+01  1.33148488783168E+00
(PID.TID 0000.0001)  ploadbar=  1.01108575007735E+05
 cg2d: Sum(rhs),rhsMax =  -5.37638069272824E+01  1.35337310225424E+00
(PID.TID 0000.0001)  ploadbar=  1.01108930100495E+05
 cg2d: Sum(rhs),rhsMax =  -5.29231858662191E+01  1.37455962102103E+00
(PID.TID 0000.0001)  ploadbar=  1.01109285193254E+05
 cg2d: Sum(rhs),rhsMax =  -5.21427283672759E+01  1.39476902774036E+00
(PID.TID 0000.0001)  ploadbar=  1.01109640286013E+05
 cg2d: Sum(rhs),rhsMax =  -5.14218013837836E+01  1.41390402351633E+00
(PID.TID 0000.0001)  ploadbar=  1.01109995378773E+05
 cg2d: Sum(rhs),rhsMax =  -5.07567717935272E+01  1.43195278321587E+00
(PID.TID 0000.0001)  ploadbar=  1.01110350471532E+05
 cg2d: Sum(rhs),rhsMax =  -5.01426303245571E+01  1.44895956144937E+00
(PID.TID 0000.0001)  ploadbar=  1.01110705564292E+05
 cg2d: Sum(rhs),rhsMax =  -4.95828013901027E+01  1.46486216610181E+00
(PID.TID 0000.0001)  ploadbar=  1.01112725634123E+05
 cg2d: Sum(rhs),rhsMax =  -4.90579695500195E+01  1.48014686236193E+00
(PID.TID 0000.0001)  ploadbar=  1.01114745703954E+05
 cg2d: Sum(rhs),rhsMax =  -4.85573043888723E+01  1.49509215396773E+00
(PID.TID 0000.0001)  ploadbar=  1.01116765773785E+05
 cg2d: Sum(rhs),rhsMax =  -4.80785199157136E+01  1.50973222947458E+00
(PID.TID 0000.0001)  ploadbar=  1.01118785843616E+05
 cg2d: Sum(rhs),rhsMax =  -4.76242939053080E+01  1.52394622115044E+00
(PID.TID 0000.0001)  ploadbar=  1.01120805913447E+05
 cg2d: Sum(rhs),rhsMax =  -4.71997392408736E+01  1.53753068961166E+00
(PID.TID 0000.0001)  ploadbar=  1.01122825983278E+05
 cg2d: Sum(rhs),rhsMax =  -4.67917330180329E+01  1.55075125475324E+00
(PID.TID 0000.0001)  ploadbar=  1.01122881896408E+05
 cg2d: Sum(rhs),rhsMax =  -4.63923398034773E+01  1.56384246203812E+00
(PID.TID 0000.0001)  ploadbar=  1.01122937809538E+05
 cg2d: Sum(rhs),rhsMax =  -4.59913103406558E+01  1.57714003993070E+00
(PID.TID 0000.0001)  ploadbar=  1.01122993722667E+05
 cg2d: Sum(rhs),rhsMax =  -4.56103399922230E+01  1.58989076095461E+00
(PID.TID 0000.0001)  ploadbar=  1.01123049635797E+05
 cg2d: Sum(rhs),rhsMax =  -4.52604286341839E+01  1.60167216178031E+00
(PID.TID 0000.0001)  ploadbar=  1.01123105548927E+05
 cg2d: Sum(rhs),rhsMax =  -4.49565082130203E+01  1.61189986625104E+00
(PID.TID 0000.0001)  ploadbar=  1.01123161462057E+05
 cg2d: Sum(rhs),rhsMax =  -4.47211684481016E+01  1.61980932946923E+00
(PID.TID 0000.0001)  ploadbar=  1.01121832884775E+05
 cg2d: Sum(rhs),rhsMax =  -4.45337321313320E+01  1.62607464229834E+00
(PID.TID 0000.0001)  ploadbar=  1.01120504307493E+05
 cg2d: Sum(rhs),rhsMax =  -4.43884395693054E+01  1.63085455420698E+00
(PID.TID 0000.0001)  ploadbar=  1.01119175730211E+05
 cg2d: Sum(rhs),rhsMax =  -4.42819830856895E+01  1.63423372688821E+00
(PID.TID 0000.0001)  ploadbar=  1.01117847152929E+05
 cg2d: Sum(rhs),rhsMax =  -4.42089679092880E+01  1.63638383071853E+00
(PID.TID 0000.0001)  ploadbar=  1.01116518575647E+05
 cg2d: Sum(rhs),rhsMax =  -4.41648502145287E+01  1.63745417514843E+00
(PID.TID 0000.0001)  ploadbar=  1.01115189998365E+05
 cg2d: Sum(rhs),rhsMax =  -4.38153721884442E+01  1.64989759984746E+00
(PID.TID 0000.0001)  ploadbar=  1.01114923660619E+05
 cg2d: Sum(rhs),rhsMax =  -4.32411228434156E+01  1.67113163638724E+00
(PID.TID 0000.0001)  ploadbar=  1.01114657322873E+05
 cg2d: Sum(rhs),rhsMax =  -4.27236452970387E+01  1.69062892650328E+00
(PID.TID 0000.0001)  ploadbar=  1.01114390985127E+05
 cg2d: Sum(rhs),rhsMax =  -4.22494929285560E+01  1.70878453912860E+00
(PID.TID 0000.0001)  ploadbar=  1.01114124647381E+05
 cg2d: Sum(rhs),rhsMax =  -4.18118170056412E+01  1.72578145043894E+00
(PID.TID 0000.0001)  ploadbar=  1.01113858309635E+05
 cg2d: Sum(rhs),rhsMax =  -4.14018620369014E+01  1.74190550927206E+00
(PID.TID 0000.0001)  ploadbar=  1.01113591971888E+05
 cg2d: Sum(rhs),rhsMax =  -4.10085142137490E+01  1.75778443449871E+00
(PID.TID 0000.0001)  ploadbar=  1.01112700354061E+05
 cg2d: Sum(rhs),rhsMax =  -4.06253256387864E+01  1.77366393352869E+00
(PID.TID 0000.0001)  ploadbar=  1.01111808736234E+05
 cg2d: Sum(rhs),rhsMax =  -4.02418323379401E+01  1.78999464741869E+00
(PID.TID 0000.0001)  ploadbar=  1.01110917118407E+05
 cg2d: Sum(rhs),rhsMax =  -3.98534194270720E+01  1.80698889249421E+00
(PID.TID 0000.0001)  ploadbar=  1.01110025500579E+05
 cg2d: Sum(rhs),rhsMax =  -3.94642387971427E+01  1.82447020861374E+00
(PID.TID 0000.0001)  ploadbar=  1.01109133882752E+05
 cg2d: Sum(rhs),rhsMax =  -3.90802548930025E+01  1.84216249202484E+00
(PID.TID 0000.0001)  ploadbar=  1.01108242264925E+05
 cg2d: Sum(rhs),rhsMax =  -3.87116174721110E+01  1.85942020215501E+00
(PID.TID 0000.0001)  ploadbar=  1.01108189943980E+05
 cg2d: Sum(rhs),rhsMax =  -3.83776026295034E+01  1.87525548423990E+00
(PID.TID 0000.0001)  ploadbar=  1.01108137623035E+05
 cg2d: Sum(rhs),rhsMax =  -3.80813423630910E+01  1.88942543298115E+00
(PID.TID 0000.0001)  ploadbar=  1.01108085302091E+05
 cg2d: Sum(rhs),rhsMax =  -3.78226169854900E+01  1.90185045189312E+00
(PID.TID 0000.0001)  ploadbar=  1.01108032981146E+05
 cg2d: Sum(rhs),rhsMax =  -3.75960720533657E+01  1.91271995410171E+00
(PID.TID 0000.0001)  ploadbar=  1.01107980660201E+05
 cg2d: Sum(rhs),rhsMax =  -3.73946892756269E+01  1.92233334280789E+00
(PID.TID 0000.0001)  ploadbar=  1.01107928339257E+05
 cg2d: Sum(rhs),rhsMax =  -3.72136707974155E+01  1.93107352425381E+00
(PID.TID 0000.0001)  ploadbar=  1.01108618194059E+05
 cg2d: Sum(rhs),rhsMax =  -3.70520270698301E+01  1.93895222116261E+00
(PID.TID 0000.0001)  ploadbar=  1.01109308048861E+05
 cg2d: Sum(rhs),rhsMax =  -3.69074533680544E+01  1.94604558773347E+00
(PID.TID 0000.0001)  ploadbar=  1.01109997903663E+05
 cg2d: Sum(rhs),rhsMax =  -3.67799407558761E+01  1.95232087231104E+00
(PID.TID 0000.0001)  ploadbar=  1.01110687758465E+05
 cg2d: Sum(rhs),rhsMax =  -3.66683638408175E+01  1.95780662262233E+00
(PID.TID 0000.0001)  ploadbar=  1.01111377613267E+05
 cg2d: Sum(rhs),rhsMax =  -3.65725486896263E+01  1.96248529579803E+00
(PID.TID 0000.0001)  ploadbar=  1.01112067468069E+05
 cg2d: Sum(rhs),rhsMax =  -3.64943789127676E+01  1.96619334001823E+00
(PID.TID 0000.0001)  ploadbar=  1.01113054428766E+05
 cg2d: Sum(rhs),rhsMax =  -3.64344468885163E+01  1.96888499661344E+00
(PID.TID 0000.0001)  ploadbar=  1.01114041389463E+05
 cg2d: Sum(rhs),rhsMax =  -3.63931914304001E+01  1.97052386560688E+00
(PID.TID 0000.0001)  ploadbar=  1.01115028350160E+05
 cg2d: Sum(rhs),rhsMax =  -3.63707308875908E+01  1.97109562159997E+00
(PID.TID 0000.0001)  ploadbar=  1.01116015310857E+05
 cg2d: Sum(rhs),rhsMax =  -3.63638263179029E+01  1.97076865831265E+00
(PID.TID 0000.0001)  ploadbar=  1.01117002271554E+05
 cg2d: Sum(rhs),rhsMax =  -3.63706578095489E+01  1.96964334987784E+00
(PID.TID 0000.0001)  ploadbar=  1.01117989232251E+05
 cg2d: Sum(rhs),rhsMax =  -3.63965470861844E+01  1.96759345832728E+00
(PID.TID 0000.0001)  ploadbar=  1.01118228414415E+05
 cg2d: Sum(rhs),rhsMax =  -3.64363785046165E+01  1.96488833656907E+00
(PID.TID 0000.0001)  ploadbar=  1.01118467596579E+05
 cg2d: Sum(rhs),rhsMax =  -3.64859481665809E+01  1.96175481670659E+00
(PID.TID 0000.0001)  ploadbar=  1.01118706778743E+05
 cg2d: Sum(rhs),rhsMax =  -3.65449538398478E+01  1.95820544304115E+00
(PID.TID 0000.0001)  ploadbar=  1.01118945960907E+05
 cg2d: Sum(rhs),rhsMax =  -3.66125943300755E+01  1.95427666072357E+00
(PID.TID 0000.0001)  ploadbar=  1.01119185143072E+05
 cg2d: Sum(rhs),rhsMax =  -3.66866605425100E+01  1.95007994269749E+00
(PID.TID 0000.0001)  ploadbar=  1.01119424325236E+05
 cg2d: Sum(rhs),rhsMax =  -3.67712786085097E+01  1.94529584318954E+00
(PID.TID 0000.0001)  ploadbar=  1.01119649442824E+05
 cg2d: Sum(rhs),rhsMax =  -3.68667195219838E+01  1.93992108757383E+00
(PID.TID 0000.0001)  ploadbar=  1.01119874560413E+05
 cg2d: Sum(rhs),rhsMax =  -3.69774213500071E+01  1.93372705023033E+00
(PID.TID 0000.0001)  ploadbar=  1.01120099678001E+05
 cg2d: Sum(rhs),rhsMax =  -3.71089311782174E+01  1.92643918810607E+00
(PID.TID 0000.0001)  ploadbar=  1.01120324795590E+05
 cg2d: Sum(rhs),rhsMax =  -3.72519417913527E+01  1.91855249487992E+00
(PID.TID 0000.0001)  ploadbar=  1.01120549913178E+05
 cg2d: Sum(rhs),rhsMax =  -3.73898243043066E+01  1.91092742286399E+00
(PID.TID 0000.0001)  ploadbar=  1.01120775030766E+05
 cg2d: Sum(rhs),rhsMax =  -3.75118866736844E+01  1.90430744340272E+00
(PID.TID 0000.0001)  ploadbar=  1.01122288258138E+05
 cg2d: Sum(rhs),rhsMax =  -3.76478644682884E+01  1.89715975300669E+00
(PID.TID 0000.0001)  ploadbar=  1.01123801485510E+05
 cg2d: Sum(rhs),rhsMax =  -3.78141000865216E+01  1.88867008587148E+00
(PID.TID 0000.0001)  ploadbar=  1.01125314712881E+05
 cg2d: Sum(rhs),rhsMax =  -3.80163707176723E+01  1.87857934215787E+00
(PID.TID 0000.0001)  ploadbar=  1.01126827940253E+05
 cg2d: Sum(rhs),rhsMax =  -3.82589415556649E+01  1.86672813303295E+00
(PID.TID 0000.0001)  ploadbar=  1.01128341167624E+05
 cg2d: Sum(rhs),rhsMax =  -3.85461132107075E+01  1.85296879384343E+00
(PID.TID 0000.0001)  ploadbar=  1.01129854394996E+05
 cg2d: Sum(rhs),rhsMax =  -3.88806314406689E+01  1.83712837765775E+00
(PID.TID 0000.0001)  ploadbar=  1.01129926671459E+05
 cg2d: Sum(rhs),rhsMax =  -3.92579204200614E+01  1.81952602676427E+00
(PID.TID 0000.0001)  ploadbar=  1.01129998947923E+05
 cg2d: Sum(rhs),rhsMax =  -3.96942389298277E+01  1.79952702045351E+00
(PID.TID 0000.0001)  ploadbar=  1.01130071224387E+05
 cg2d: Sum(rhs),rhsMax =  -4.01930581497528E+01  1.77714254913288E+00
(PID.TID 0000.0001)  ploadbar=  1.01130143500850E+05
 cg2d: Sum(rhs),rhsMax =  -4.07591699079597E+01  1.75235439941278E+00
(PID.TID 0000.0001)  ploadbar=  1.01130215777314E+05
 cg2d: Sum(rhs),rhsMax =  -4.14011272515518E+01  1.72502198393449E+00
(PID.TID 0000.0001)  ploadbar=  1.01130288053777E+05
 cg2d: Sum(rhs),rhsMax =  -4.21255149621263E+01  1.69528087239086E+00
(PID.TID 0000.0001)  ploadbar=  1.01131408724692E+05
 cg2d: Sum(rhs),rhsMax =  -4.29190285229205E+01  1.66392968587188E+00
(PID.TID 0000.0001)  ploadbar=  1.01132529395606E+05
 cg2d: Sum(rhs),rhsMax =  -4.37872596393894E+01  1.63099434736749E+00
(PID.TID 0000.0001)  ploadbar=  1.01133650066520E+05
 cg2d: Sum(rhs),rhsMax =  -4.47224907361862E+01  1.59699803091189E+00
(PID.TID 0000.0001)  ploadbar=  1.01134770737435E+05
 cg2d: Sum(rhs),rhsMax =  -4.57169843379273E+01  1.56240920160482E+00
(PID.TID 0000.0001)  ploadbar=  1.01135891408349E+05
 cg2d: Sum(rhs),rhsMax =  -4.67649125133961E+01  1.52757578888665E+00
(PID.TID 0000.0001)  ploadbar=  1.01137012079264E+05
 cg2d: Sum(rhs),rhsMax =  -4.78476870032200E+01  1.49311418286268E+00
(PID.TID 0000.0001)  ploadbar=  1.01137966259895E+05
 cg2d: Sum(rhs),rhsMax =  -4.84918808839451E+01  1.47330858330572E+00
(PID.TID 0000.0001)  ploadbar=  1.01138920440526E+05
 cg2d: Sum(rhs),rhsMax =  -4.85875463721047E+01  1.47034833607026E+00
(PID.TID 0000.0001)  ploadbar=  1.01139874621157E+05
 cg2d: Sum(rhs),rhsMax =  -4.86846601027104E+01  1.46725080100958E+00
(PID.TID 0000.0001)  ploadbar=  1.01140828801789E+05
 cg2d: Sum(rhs),rhsMax =  -4.87834576945809E+01  1.46400141010319E+00
(PID.TID 0000.0001)  ploadbar=  1.01141782982420E+05
 cg2d: Sum(rhs),rhsMax =  -4.88123218195758E+01  1.46273434125269E+00
(PID.TID 0000.0001)  ploadbar=  1.01142737163051E+05
 cg2d: Sum(rhs),rhsMax =  -4.86474004582036E+01  1.46733450999841E+00
(PID.TID 0000.0001)  ploadbar=  1.01144407810080E+05
 cg2d: Sum(rhs),rhsMax =  -4.85170051839606E+01  1.47095020152402E+00
(PID.TID 0000.0001)  ploadbar=  1.01146078457110E+05
 cg2d: Sum(rhs),rhsMax =  -4.84052376826361E+01  1.47403691672645E+00
(PID.TID 0000.0001)  ploadbar=  1.01147749104139E+05
 cg2d: Sum(rhs),rhsMax =  -4.83045573538895E+01  1.47681455335712E+00
(PID.TID 0000.0001)  ploadbar=  1.01149419751169E+05
 cg2d: Sum(rhs),rhsMax =  -4.82109201412990E+01  1.47939224274744E+00
(PID.TID 0000.0001)  ploadbar=  1.01151090398198E+05
 cg2d: Sum(rhs),rhsMax =  -4.81223608998972E+01  1.48181352037858E+00
(PID.TID 0000.0001)  ploadbar=  1.01152761045227E+05
 cg2d: Sum(rhs),rhsMax =  -4.80250816241187E+01  1.48449107486365E+00
(PID.TID 0000.0001)  ploadbar=  1.01153494401491E+05
 cg2d: Sum(rhs),rhsMax =  -4.79314366336191E+01  1.48703635371374E+00
(PID.TID 0000.0001)  ploadbar=  1.01154227757755E+05
 cg2d: Sum(rhs),rhsMax =  -4.78283156015818E+01  1.48985628930773E+00
(PID.TID 0000.0001)  ploadbar=  1.01154961114019E+05
 cg2d: Sum(rhs),rhsMax =  -4.77126832326387E+01  1.49305100915813E+00
(PID.TID 0000.0001)  ploadbar=  1.01155694470284E+05
 cg2d: Sum(rhs),rhsMax =  -4.75876963899413E+01  1.49652446797825E+00
(PID.TID 0000.0001)  ploadbar=  1.01156427826548E+05
 cg2d: Sum(rhs),rhsMax =  -4.74596944074009E+01  1.50007676711076E+00
(PID.TID 0000.0001)  ploadbar=  1.01157161182812E+05
 cg2d: Sum(rhs),rhsMax =  -4.73198662082300E+01  1.50412501674639E+00
(PID.TID 0000.0001)  ploadbar=  1.01158005252229E+05
 cg2d: Sum(rhs),rhsMax =  -4.71859318103444E+01  1.50810723559828E+00
(PID.TID 0000.0001)  ploadbar=  1.01158849321647E+05
 cg2d: Sum(rhs),rhsMax =  -4.70672286351166E+01  1.51171981800192E+00
(PID.TID 0000.0001)  ploadbar=  1.01159693391065E+05
 cg2d: Sum(rhs),rhsMax =  -4.69542439878686E+01  1.51525873822854E+00
(PID.TID 0000.0001)  ploadbar=  1.01160537460482E+05
 cg2d: Sum(rhs),rhsMax =  -4.68469282796642E+01  1.51871519350482E+00
(PID.TID 0000.0001)  ploadbar=  1.01161381529900E+05
 cg2d: Sum(rhs),rhsMax =  -4.67441626618530E+01  1.52211536504548E+00
(PID.TID 0000.0001)  ploadbar=  1.01162225599317E+05
 cg2d: Sum(rhs),rhsMax =  -4.66372583121032E+01  1.52559161087236E+00
(PID.TID 0000.0001)  ploadbar=  1.01162543498969E+05
 cg2d: Sum(rhs),rhsMax =  -4.65276202052310E+01  1.52909315934568E+00
(PID.TID 0000.0001)  ploadbar=  1.01162861398621E+05
 cg2d: Sum(rhs),rhsMax =  -4.64189342766820E+01  1.53249262620810E+00
(PID.TID 0000.0001)  ploadbar=  1.01163179298272E+05
 cg2d: Sum(rhs),rhsMax =  -4.63061626040166E+01  1.53594585183531E+00
(PID.TID 0000.0001)  ploadbar=  1.01163497197924E+05
 cg2d: Sum(rhs),rhsMax =  -4.61877813277879E+01  1.53950950951142E+00
(PID.TID 0000.0001)  ploadbar=  1.01163815097576E+05
 cg2d: Sum(rhs),rhsMax =  -4.60617813465766E+01  1.54325356957928E+00
(PID.TID 0000.0001)  ploadbar=  1.01164132997227E+05
 cg2d: Sum(rhs),rhsMax =  -4.59581767620158E+01  1.54630998232131E+00
(PID.TID 0000.0001)  ploadbar=  1.01162905630909E+05
 cg2d: Sum(rhs),rhsMax =  -4.58678105918522E+01  1.54896269486913E+00
(PID.TID 0000.0001)  ploadbar=  1.01161678264590E+05
 cg2d: Sum(rhs),rhsMax =  -4.57835741185226E+01  1.55143605128100E+00
(PID.TID 0000.0001)  ploadbar=  1.01160450898271E+05
 cg2d: Sum(rhs),rhsMax =  -4.57081319088660E+01  1.55363812995326E+00
(PID.TID 0000.0001)  ploadbar=  1.01159223531953E+05
 cg2d: Sum(rhs),rhsMax =  -4.56427802484737E+01  1.55551803834535E+00
(PID.TID 0000.0001)  ploadbar=  1.01157996165634E+05
 cg2d: Sum(rhs),rhsMax =  -4.55879659687276E+01  1.55705731844132E+00
(PID.TID 0000.0001)  ploadbar=  1.01156768799315E+05
 cg2d: Sum(rhs),rhsMax =  -4.55596840481828E+01  1.55764707971468E+00
(PID.TID 0000.0001)  ploadbar=  1.01155797586106E+05
 cg2d: Sum(rhs),rhsMax =  -4.55528852722779E+01  1.55745310584136E+00
(PID.TID 0000.0001)  ploadbar=  1.01154826372897E+05
 cg2d: Sum(rhs),rhsMax =  -4.55605230885232E+01  1.55671435949473E+00
(PID.TID 0000.0001)  ploadbar=  1.01153855159687E+05
 cg2d: Sum(rhs),rhsMax =  -4.55942323007933E+01  1.55503320588393E+00
(PID.TID 0000.0001)  ploadbar=  1.01152883946478E+05
 cg2d: Sum(rhs),rhsMax =  -4.56450650315993E+01  1.55271716080621E+00
(PID.TID 0000.0001)  ploadbar=  1.01151912733269E+05
 cg2d: Sum(rhs),rhsMax =  -4.56951679238891E+01  1.55037525492359E+00
(PID.TID 0000.0001)  ploadbar=  1.01150941520059E+05
 cg2d: Sum(rhs),rhsMax =  -4.57439771972710E+01  1.54815803859220E+00
(PID.TID 0000.0001)  ploadbar=  1.01150927752545E+05
 cg2d: Sum(rhs),rhsMax =  -4.58328578791741E+01  1.54466275318817E+00
(PID.TID 0000.0001)  ploadbar=  1.01150913985031E+05
 cg2d: Sum(rhs),rhsMax =  -4.59452659743035E+01  1.54045442724424E+00
(PID.TID 0000.0001)  ploadbar=  1.01150900217518E+05
 cg2d: Sum(rhs),rhsMax =  -4.60890048843248E+01  1.53528147396312E+00
(PID.TID 0000.0001)  ploadbar=  1.01150886450004E+05
 cg2d: Sum(rhs),rhsMax =  -4.62786051153733E+01  1.52867150120612E+00
(PID.TID 0000.0001)  ploadbar=  1.01150872682490E+05
 cg2d: Sum(rhs),rhsMax =  -4.65166193767896E+01  1.52056930020942E+00
(PID.TID 0000.0001)  ploadbar=  1.01150858914976E+05
 cg2d: Sum(rhs),rhsMax =  -4.67749085022807E+01  1.51182312667432E+00
(PID.TID 0000.0001)  ploadbar=  1.01150223898908E+05
 cg2d: Sum(rhs),rhsMax =  -4.71034660838238E+01  1.50085296043920E+00
(PID.TID 0000.0001)  ploadbar=  1.01149588882841E+05
 cg2d: Sum(rhs),rhsMax =  -4.74954990456672E+01  1.48796160547236E+00
(PID.TID 0000.0001)  ploadbar=  1.01148953866773E+05
 cg2d: Sum(rhs),rhsMax =  -4.79435649996931E+01  1.47347004453786E+00
(PID.TID 0000.0001)  ploadbar=  1.01148318850705E+05
 cg2d: Sum(rhs),rhsMax =  -4.84169055910678E+01  1.45839369565482E+00
(PID.TID 0000.0001)  ploadbar=  1.01147683834638E+05
 cg2d: Sum(rhs),rhsMax =  -4.88614326345922E+01  1.44436442095383E+00
(PID.TID 0000.0001)  ploadbar=  1.01147048818570E+05
 cg2d: Sum(rhs),rhsMax =  -4.93784902693621E+01  1.42855900765852E+00
(PID.TID 0000.0001)  ploadbar=  1.01146880866960E+05
 cg2d: Sum(rhs),rhsMax =  -4.98058376095054E+01  1.41568563468909E+00
(PID.TID 0000.0001)  ploadbar=  1.01146712915350E+05
 cg2d: Sum(rhs),rhsMax =  -5.01867013979884E+01  1.40437824699263E+00
(PID.TID 0000.0001)  ploadbar=  1.01146544963740E+05
 cg2d: Sum(rhs),rhsMax =  -5.04544931707012E+01  1.39640305378976E+00
(PID.TID 0000.0001)  ploadbar=  1.01146377012130E+05
 cg2d: Sum(rhs),rhsMax =  -5.04796086292415E+01  1.39521692862381E+00
(PID.TID 0000.0001)  ploadbar=  1.01146209060520E+05
 cg2d: Sum(rhs),rhsMax =  -5.05243714701298E+01  1.39350957098571E+00
(PID.TID 0000.0001)  ploadbar=  1.01146041108910E+05
 cg2d: Sum(rhs),rhsMax =  -5.05504874074679E+01  1.39227931005921E+00
(PID.TID 0000.0001)  ploadbar=  1.01147284312505E+05
 cg2d: Sum(rhs),rhsMax =  -5.05295533198122E+01  1.39230526901654E+00
(PID.TID 0000.0001)  ploadbar=  1.01148527516100E+05
 cg2d: Sum(rhs),rhsMax =  -5.04853119347814E+01  1.39293361611201E+00
(PID.TID 0000.0001)  ploadbar=  1.01149770719695E+05
 cg2d: Sum(rhs),rhsMax =  -5.04239106659852E+01  1.39399641938762E+00
(PID.TID 0000.0001)  ploadbar=  1.01151013923290E+05
 cg2d: Sum(rhs),rhsMax =  -5.03465881706220E+01  1.39545777211991E+00
(PID.TID 0000.0001)  ploadbar=  1.01152257126885E+05
 cg2d: Sum(rhs),rhsMax =  -5.02576841898344E+01  1.39719818014524E+00
(PID.TID 0000.0001)  ploadbar=  1.01153500330480E+05
 cg2d: Sum(rhs),rhsMax =  -5.01768831526970E+01  1.39877074774283E+00
(PID.TID 0000.0001)  ploadbar=  1.01153030193643E+05
 cg2d: Sum(rhs),rhsMax =  -5.01032955000926E+01  1.40019815577601E+00
(PID.TID 0000.0001)  ploadbar=  1.01152560056807E+05
 cg2d: Sum(rhs),rhsMax =  -5.00194279040883E+01  1.40196676050611E+00
(PID.TID 0000.0001)  ploadbar=  1.01152089919971E+05
 cg2d: Sum(rhs),rhsMax =  -4.99402235547135E+01  1.40365528991858E+00
(PID.TID 0000.0001)  ploadbar=  1.01151619783135E+05
 cg2d: Sum(rhs),rhsMax =  -4.98635520854466E+01  1.40532048680868E+00
(PID.TID 0000.0001)  ploadbar=  1.01151149646298E+05
 cg2d: Sum(rhs),rhsMax =  -4.97896379084407E+01  1.40695632475669E+00
(PID.TID 0000.0001)  ploadbar=  1.01150679509462E+05
 cg2d: Sum(rhs),rhsMax =  -4.96984534218335E+01  1.40908892985496E+00
(PID.TID 0000.0001)  ploadbar=  1.01150935884804E+05
 cg2d: Sum(rhs),rhsMax =  -4.96110695509816E+01  1.41112116418949E+00
(PID.TID 0000.0001)  ploadbar=  1.01151192260146E+05
 cg2d: Sum(rhs),rhsMax =  -4.95235531292835E+01  1.41316058235297E+00
(PID.TID 0000.0001)  ploadbar=  1.01151448635488E+05
 cg2d: Sum(rhs),rhsMax =  -4.94355410451032E+01  1.41521599053815E+00
(PID.TID 0000.0001)  ploadbar=  1.01151705010830E+05
 cg2d: Sum(rhs),rhsMax =  -4.93468498132074E+01  1.41728840155422E+00
(PID.TID 0000.0001)  ploadbar=  1.01151961386172E+05
 cg2d: Sum(rhs),rhsMax =  -4.92566039299279E+01  1.41940159312055E+00
(PID.TID 0000.0001)  ploadbar=  1.01152217761514E+05
 cg2d: Sum(rhs),rhsMax =  -4.91694295896906E+01  1.42150220389042E+00
(PID.TID 0000.0001)  ploadbar=  1.01152458799058E+05
 cg2d: Sum(rhs),rhsMax =  -4.90982020030657E+01  1.42320811249824E+00
(PID.TID 0000.0001)  ploadbar=  1.01152699836601E+05
 cg2d: Sum(rhs),rhsMax =  -4.90254765203996E+01  1.42501276011066E+00
(PID.TID 0000.0001)  ploadbar=  1.01152940874144E+05
 cg2d: Sum(rhs),rhsMax =  -4.89564729695350E+01  1.42676036623326E+00
(PID.TID 0000.0001)  ploadbar=  1.01153181911688E+05
 cg2d: Sum(rhs),rhsMax =  -4.88889726524925E+01  1.42850875678681E+00
(PID.TID 0000.0001)  ploadbar=  1.01153422949231E+05
 cg2d: Sum(rhs),rhsMax =  -4.88178291608025E+01  1.43039917670704E+00
(PID.TID 0000.0001)  ploadbar=  1.01153663986774E+05
 cg2d: Sum(rhs),rhsMax =  -4.87222405969002E+01  1.43297601766748E+00
(PID.TID 0000.0001)  ploadbar=  1.01153844254822E+05
 cg2d: Sum(rhs),rhsMax =  -4.86107935599092E+01  1.43599059153772E+00
(PID.TID 0000.0001)  ploadbar=  1.01154024522869E+05
 cg2d: Sum(rhs),rhsMax =  -4.84644348262654E+01  1.44001401350505E+00
(PID.TID 0000.0001)  ploadbar=  1.01154204790916E+05
 cg2d: Sum(rhs),rhsMax =  -4.82810053052961E+01  1.44512727401207E+00
(PID.TID 0000.0001)  ploadbar=  1.01154385058963E+05
 cg2d: Sum(rhs),rhsMax =  -4.80769038931781E+01  1.45085907912536E+00
(PID.TID 0000.0001)  ploadbar=  1.01154565327010E+05
 cg2d: Sum(rhs),rhsMax =  -4.79051560529132E+01  1.45560831028935E+00
(PID.TID 0000.0001)  ploadbar=  1.01154745595057E+05
 cg2d: Sum(rhs),rhsMax =  -4.78600586087785E+01  1.45657439014328E+00
(PID.TID 0000.0001)  ploadbar=  1.01153682843670E+05
 cg2d: Sum(rhs),rhsMax =  -4.75007718568476E+01  1.46722547825103E+00
(PID.TID 0000.0001)  ploadbar=  1.01152620092283E+05
 cg2d: Sum(rhs),rhsMax =  -4.67288597681719E+01  1.49113074651151E+00
(PID.TID 0000.0001)  ploadbar=  1.01151557340896E+05
 cg2d: Sum(rhs),rhsMax =  -4.57900345845450E+01  1.52140133621275E+00
(PID.TID 0000.0001)  ploadbar=  1.01150494589509E+05
 cg2d: Sum(rhs),rhsMax =  -4.47326891613147E+01  1.55708528655231E+00
(PID.TID 0000.0001)  ploadbar=  1.01149431838122E+05
 cg2d: Sum(rhs),rhsMax =  -4.36456808715086E+01  1.59560905953364E+00
(PID.TID 0000.0001)  ploadbar=  1.01148369086735E+05
 cg2d: Sum(rhs),rhsMax =  -4.27050836866938E+01  1.63042751494583E+00
(PID.TID 0000.0001)  ploadbar=  1.01148542469625E+05
 cg2d: Sum(rhs),rhsMax =  -4.20172564640661E+01  1.65671929512875E+00
(PID.TID 0000.0001)  ploadbar=  1.01148715852514E+05
 cg2d: Sum(rhs),rhsMax =  -4.16774163184318E+01  1.66975502095433E+00
(PID.TID 0000.0001)  ploadbar=  1.01148889235404E+05
 cg2d: Sum(rhs),rhsMax =  -4.16899812816406E+01  1.66870283374169E+00
(PID.TID 0000.0001)  ploadbar=  1.01149062618293E+05
 cg2d: Sum(rhs),rhsMax =  -4.19911128028365E+01  1.65611749085764E+00
(PID.TID 0000.0001)  ploadbar=  1.01149236001183E+05
 cg2d: Sum(rhs),rhsMax =  -4.24860092294483E+01  1.63613873337568E+00
(PID.TID 0000.0001)  ploadbar=  1.01149409384072E+05
 cg2d: Sum(rhs),rhsMax =  -4.30924484670300E+01  1.61257753092986E+00
(PID.TID 0000.0001)  ploadbar=  1.01150632565562E+05
 cg2d: Sum(rhs),rhsMax =  -4.37511107279265E+01  1.58790046596191E+00
(PID.TID 0000.0001)  ploadbar=  1.01151855747052E+05
 cg2d: Sum(rhs),rhsMax =  -4.44231866749386E+01  1.56359417727227E+00
(PID.TID 0000.0001)  ploadbar=  1.01153078928542E+05
 cg2d: Sum(rhs),rhsMax =  -4.50951475690206E+01  1.54011688108758E+00
(PID.TID 0000.0001)  ploadbar=  1.01154302110032E+05
 cg2d: Sum(rhs),rhsMax =  -4.57543391196144E+01  1.51784392723624E+00
(PID.TID 0000.0001)  ploadbar=  1.01155525291521E+05
 cg2d: Sum(rhs),rhsMax =  -4.63940559110372E+01  1.49691379780578E+00
(PID.TID 0000.0001)  ploadbar=  1.01156748473011E+05
 cg2d: Sum(rhs),rhsMax =  -4.70030983220245E+01  1.47749363535009E+00
(PID.TID 0000.0001)  ploadbar=  1.01156512314979E+05
 cg2d: Sum(rhs),rhsMax =  -4.76020499108213E+01  1.45885586335510E+00
(PID.TID 0000.0001)  ploadbar=  1.01156276156947E+05
 cg2d: Sum(rhs),rhsMax =  -4.81892036845417E+01  1.44101641072214E+00
(PID.TID 0000.0001)  ploadbar=  1.01156039998915E+05
 cg2d: Sum(rhs),rhsMax =  -4.87786800754956E+01  1.42352126623566E+00
(PID.TID 0000.0001)  ploadbar=  1.01155803840883E+05
 cg2d: Sum(rhs),rhsMax =  -4.93825080568503E+01  1.40601161234898E+00
(PID.TID 0000.0001)  ploadbar=  1.01155567682851E+05
 cg2d: Sum(rhs),rhsMax =  -5.00016284876262E+01  1.38847471753114E+00
(PID.TID 0000.0001)  ploadbar=  1.01155331524819E+05
 cg2d: Sum(rhs),rhsMax =  -5.06238509809258E+01  1.37140826921194E+00
(PID.TID 0000.0001)  ploadbar=  1.01153876350117E+05
 cg2d: Sum(rhs),rhsMax =  -5.12729735281805E+01  1.35416573217516E+00
(PID.TID 0000.0001)  ploadbar=  1.01152421175416E+05
 cg2d: Sum(rhs),rhsMax =  -5.19251221625096E+01  1.33739382250180E+00
(PID.TID 0000.0001)  ploadbar=  1.01150966000714E+05
 cg2d: Sum(rhs),rhsMax =  -5.25911368995811E+01  1.32080427737770E+00
(PID.TID 0000.0001)  ploadbar=  1.01149510826013E+05
 cg2d: Sum(rhs),rhsMax =  -5.32703872582594E+01  1.30441514694427E+00
(PID.TID 0000.0001)  ploadbar=  1.01148055651311E+05
 cg2d: Sum(rhs),rhsMax =  -5.39619081262075E+01  1.28825023914670E+00
(PID.TID 0000.0001)  ploadbar=  1.01146600476610E+05
 cg2d: Sum(rhs),rhsMax =  -5.37896129880316E+01  1.29286084742668E+00
(PID.TID 0000.0001)  ploadbar=  1.01145950641015E+05
 cg2d: Sum(rhs),rhsMax =  -5.35730471134365E+01  1.29850054701028E+00
(PID.TID 0000.0001)  ploadbar=  1.01145300805421E+05
 cg2d: Sum(rhs),rhsMax =  -5.33500696916461E+01  1.30426724041535E+00
(PID.TID 0000.0001)  ploadbar=  1.01144650969826E+05
 cg2d: Sum(rhs),rhsMax =  -5.31178957454694E+01  1.31022872129231E+00
(PID.TID 0000.0001)  ploadbar=  1.01144001134232E+05
 cg2d: Sum(rhs),rhsMax =  -5.28792711937697E+01  1.31631621883721E+00
(PID.TID 0000.0001)  ploadbar=  1.01143351298637E+05
 cg2d: Sum(rhs),rhsMax =  -5.26367022066157E+01  1.32247133303464E+00
(PID.TID 0000.0001)  ploadbar=  1.01142701463043E+05
 cg2d: Sum(rhs),rhsMax =  -5.23971212916749E+01  1.32864170122355E+00
(PID.TID 0000.0001)  ploadbar=  1.01141542055132E+05
 cg2d: Sum(rhs),rhsMax =  -5.21639185899390E+01  1.33472379102574E+00
(PID.TID 0000.0001)  ploadbar=  1.01140382647221E+05
 cg2d: Sum(rhs),rhsMax =  -5.19504329561203E+01  1.34036668084418E+00
(PID.TID 0000.0001)  ploadbar=  1.01139223239310E+05
 cg2d: Sum(rhs),rhsMax =  -5.17554074185323E+01  1.34558567092109E+00
(PID.TID 0000.0001)  ploadbar=  1.01138063831400E+05
 cg2d: Sum(rhs),rhsMax =  -5.15804285181323E+01  1.35032214165543E+00
(PID.TID 0000.0001)  ploadbar=  1.01136904423489E+05
 cg2d: Sum(rhs),rhsMax =  -5.14281281436187E+01  1.35449216446493E+00
(PID.TID 0000.0001)  ploadbar=  1.01135745015578E+05
 cg2d: Sum(rhs),rhsMax =  -5.13094388213064E+01  1.35777501274612E+00
(PID.TID 0000.0001)  ploadbar=  1.01134984938961E+05
 cg2d: Sum(rhs),rhsMax =  -5.12004941288647E+01  1.36078935311130E+00
(PID.TID 0000.0001)  ploadbar=  1.01134224862345E+05
 cg2d: Sum(rhs),rhsMax =  -5.11030457856526E+01  1.36348281385504E+00
(PID.TID 0000.0001)  ploadbar=  1.01133464785728E+05
 cg2d: Sum(rhs),rhsMax =  -5.10136372451615E+01  1.36594171624250E+00
(PID.TID 0000.0001)  ploadbar=  1.01132704709111E+05
 cg2d: Sum(rhs),rhsMax =  -5.09307243613292E+01  1.36819910669331E+00
(PID.TID 0000.0001)  ploadbar=  1.01131944632495E+05
 cg2d: Sum(rhs),rhsMax =  -5.08507013060482E+01  1.37034386141651E+00
(PID.TID 0000.0001)  ploadbar=  1.01131184555878E+05
 cg2d: Sum(rhs),rhsMax =  -5.07970554997316E+01  1.37185001617447E+00
(PID.TID 0000.0001)  ploadbar=  1.01130477966648E+05
 cg2d: Sum(rhs),rhsMax =  -5.07569304786606E+01  1.37305638357081E+00
(PID.TID 0000.0001)  ploadbar=  1.01129771377418E+05
 cg2d: Sum(rhs),rhsMax =  -5.07207928874015E+01  1.37421283055410E+00
(PID.TID 0000.0001)  ploadbar=  1.01129064788188E+05
 cg2d: Sum(rhs),rhsMax =  -5.06910831028238E+01  1.37525272808797E+00
(PID.TID 0000.0001)  ploadbar=  1.01128358198959E+05
 cg2d: Sum(rhs),rhsMax =  -5.06679983425135E+01  1.37616493528301E+00
(PID.TID 0000.0001)  ploadbar=  1.01127651609729E+05
 cg2d: Sum(rhs),rhsMax =  -5.06500713507169E+01  1.37698160333460E+00
(PID.TID 0000.0001)  ploadbar=  1.01126945020499E+05
 cg2d: Sum(rhs),rhsMax =  -5.06334097420246E+01  1.37777142274583E+00
(PID.TID 0000.0001)  ploadbar=  1.01126154676232E+05
 cg2d: Sum(rhs),rhsMax =  -5.06243178233307E+01  1.37836144084887E+00
(PID.TID 0000.0001)  ploadbar=  1.01125364331966E+05
 cg2d: Sum(rhs),rhsMax =  -5.05917709474448E+01  1.37959075748764E+00
(PID.TID 0000.0001)  ploadbar=  1.01124573987699E+05
 cg2d: Sum(rhs),rhsMax =  -5.06039563124803E+01  1.37959414221487E+00
(PID.TID 0000.0001)  ploadbar=  1.01123783643433E+05
 cg2d: Sum(rhs),rhsMax =  -5.05953742022696E+01  1.38015467195260E+00
(PID.TID 0000.0001)  ploadbar=  1.01122993299166E+05
 cg2d: Sum(rhs),rhsMax =  -5.05872172604524E+01  1.38069175270604E+00
(PID.TID 0000.0001)  ploadbar=  1.01122202954899E+05
 cg2d: Sum(rhs),rhsMax =  -5.05668541485726E+01  1.38159753603349E+00
(PID.TID 0000.0001)  ploadbar=  1.01123286159355E+05
 cg2d: Sum(rhs),rhsMax =  -5.05490767563739E+01  1.38245963446276E+00
(PID.TID 0000.0001)  ploadbar=  1.01124369363810E+05
 cg2d: Sum(rhs),rhsMax =  -5.05375423712551E+01  1.38317223912574E+00
(PID.TID 0000.0001)  ploadbar=  1.01125452568265E+05
 cg2d: Sum(rhs),rhsMax =  -5.05298871827026E+01  1.38379684438902E+00
(PID.TID 0000.0001)  ploadbar=  1.01126535772720E+05
 cg2d: Sum(rhs),rhsMax =  -5.05240249466955E+01  1.38438249083065E+00
(PID.TID 0000.0001)  ploadbar=  1.01127618977175E+05
 cg2d: Sum(rhs),rhsMax =  -5.05186836324712E+01  1.38496063326474E+00
(PID.TID 0000.0001)  ploadbar=  1.01128702181630E+05
 cg2d: Sum(rhs),rhsMax =  -5.05135545083143E+01  1.38547530768457E+00
(PID.TID 0000.0001)  ploadbar=  1.01128641255743E+05
 cg2d: Sum(rhs),rhsMax =  -5.05024513895933E+01  1.38609309692671E+00
(PID.TID 0000.0001)  ploadbar=  1.01128580329855E+05
 cg2d: Sum(rhs),rhsMax =  -5.04944510920414E+01  1.38656166477959E+00
(PID.TID 0000.0001)  ploadbar=  1.01128519403968E+05
 cg2d: Sum(rhs),rhsMax =  -5.04906305314929E+01  1.38684660647022E+00
(PID.TID 0000.0001)  ploadbar=  1.01128458478080E+05
 cg2d: Sum(rhs),rhsMax =  -5.04907743972660E+01  1.38694842055411E+00
(PID.TID 0000.0001)  ploadbar=  1.01128397552193E+05
 cg2d: Sum(rhs),rhsMax =  -5.04961417702728E+01  1.38682735305408E+00
(PID.TID 0000.0001)  ploadbar=  1.01128336626305E+05
 cg2d: Sum(rhs),rhsMax =  -5.05216651753500E+01  1.38625062761949E+00
(PID.TID 0000.0001)  ploadbar=  1.01127092995537E+05
 cg2d: Sum(rhs),rhsMax =  -5.05596127218111E+01  1.38542444019950E+00
(PID.TID 0000.0001)  ploadbar=  1.01125849364769E+05
 cg2d: Sum(rhs),rhsMax =  -5.06072225759453E+01  1.38442284035586E+00
(PID.TID 0000.0001)  ploadbar=  1.01124605734002E+05
 cg2d: Sum(rhs),rhsMax =  -5.06666915322917E+01  1.38318376117020E+00
(PID.TID 0000.0001)  ploadbar=  1.01123362103234E+05
 cg2d: Sum(rhs),rhsMax =  -5.07386593009568E+01  1.38168806680518E+00
(PID.TID 0000.0001)  ploadbar=  1.01122118472466E+05
 cg2d: Sum(rhs),rhsMax =  -5.08219190176154E+01  1.37996467340733E+00
(PID.TID 0000.0001)  ploadbar=  1.01120874841698E+05
 cg2d: Sum(rhs),rhsMax =  -5.09099966023421E+01  1.37802852770245E+00
(PID.TID 0000.0001)  ploadbar=  1.01120529945993E+05
 cg2d: Sum(rhs),rhsMax =  -5.10038815206189E+01  1.37584827869401E+00
(PID.TID 0000.0001)  ploadbar=  1.01120185050288E+05
 cg2d: Sum(rhs),rhsMax =  -5.10974802356889E+01  1.37358481121865E+00
(PID.TID 0000.0001)  ploadbar=  1.01119840154583E+05
 cg2d: Sum(rhs),rhsMax =  -5.11902868638626E+01  1.37124828116735E+00
(PID.TID 0000.0001)  ploadbar=  1.01119495258879E+05
 cg2d: Sum(rhs),rhsMax =  -5.12837293814820E+01  1.36879637292404E+00
(PID.TID 0000.0001)  ploadbar=  1.01119150363174E+05
 cg2d: Sum(rhs),rhsMax =  -5.13789096534294E+01  1.36619799003754E+00
(PID.TID 0000.0001)  ploadbar=  1.01118805467469E+05
 cg2d: Sum(rhs),rhsMax =  -5.14705394719840E+01  1.36373240912743E+00
(PID.TID 0000.0001)  ploadbar=  1.01119754393709E+05
 cg2d: Sum(rhs),rhsMax =  -5.15676321771674E+01  1.36115621119699E+00
(PID.TID 0000.0001)  ploadbar=  1.01120703319948E+05
 cg2d: Sum(rhs),rhsMax =  -5.16659735541031E+01  1.35857782473790E+00
(PID.TID 0000.0001)  ploadbar=  1.01121652246188E+05
 cg2d: Sum(rhs),rhsMax =  -5.17613855414034E+01  1.35610125429053E+00
(PID.TID 0000.0001)  ploadbar=  1.01122601172427E+05
 cg2d: Sum(rhs),rhsMax =  -5.18519009210933E+01  1.35377294818191E+00
(PID.TID 0000.0001)  ploadbar=  1.01123550098667E+05
 cg2d: Sum(rhs),rhsMax =  -5.19363872686392E+01  1.35161727543891E+00
(PID.TID 0000.0001)  ploadbar=  1.01124499024906E+05
 cg2d: Sum(rhs),rhsMax =  -5.20129431605786E+01  1.34964732563468E+00
(PID.TID 0000.0001)  ploadbar=  1.01124334447983E+05
 cg2d: Sum(rhs),rhsMax =  -5.20819695412115E+01  1.34785062666181E+00
(PID.TID 0000.0001)  ploadbar=  1.01124169871059E+05
 cg2d: Sum(rhs),rhsMax =  -5.21443713233877E+01  1.34619764085784E+00
(PID.TID 0000.0001)  ploadbar=  1.01124005294136E+05
 cg2d: Sum(rhs),rhsMax =  -5.21990916201789E+01  1.34471182559742E+00
(PID.TID 0000.0001)  ploadbar=  1.01123840717212E+05
 cg2d: Sum(rhs),rhsMax =  -5.22456324551913E+01  1.34339972861544E+00
(PID.TID 0000.0001)  ploadbar=  1.01123676140289E+05
 cg2d: Sum(rhs),rhsMax =  -5.22841214203156E+01  1.34225444334216E+00
(PID.TID 0000.0001)  ploadbar=  1.01123511563365E+05
 cg2d: Sum(rhs),rhsMax =  -5.23167949505133E+01  1.34133014117701E+00
(PID.TID 0000.0001)  ploadbar=  1.01123905361710E+05
 cg2d: Sum(rhs),rhsMax =  -5.23433596665603E+01  1.34063105752122E+00
(PID.TID 0000.0001)  ploadbar=  1.01124299160055E+05
 cg2d: Sum(rhs),rhsMax =  -5.23633615823216E+01  1.34016612351189E+00
(PID.TID 0000.0001)  ploadbar=  1.01124692958400E+05
 cg2d: Sum(rhs),rhsMax =  -5.23764631779262E+01  1.33994071455051E+00
(PID.TID 0000.0001)  ploadbar=  1.01125086756745E+05
 cg2d: Sum(rhs),rhsMax =  -5.23823653893600E+01  1.33996015278191E+00
(PID.TID 0000.0001)  ploadbar=  1.01125480555090E+05
 cg2d: Sum(rhs),rhsMax =  -5.23811042808034E+01  1.34021492206769E+00
(PID.TID 0000.0001)  ploadbar=  1.01125874353434E+05
 cg2d: Sum(rhs),rhsMax =  -5.23708925209487E+01  1.34062875734230E+00
(PID.TID 0000.0001)  ploadbar=  1.01125293874217E+05
 cg2d: Sum(rhs),rhsMax =  -5.23475322514398E+01  1.34130995479713E+00
(PID.TID 0000.0001)  ploadbar=  1.01124713394999E+05
 cg2d: Sum(rhs),rhsMax =  -5.23124789792973E+01  1.34221711617117E+00
(PID.TID 0000.0001)  ploadbar=  1.01124132915782E+05
 cg2d: Sum(rhs),rhsMax =  -5.22682626245722E+01  1.34328351274299E+00
(PID.TID 0000.0001)  ploadbar=  1.01123552436565E+05
 cg2d: Sum(rhs),rhsMax =  -5.22141042862597E+01  1.34452890664474E+00
(PID.TID 0000.0001)  ploadbar=  1.01122971957347E+05
 cg2d: Sum(rhs),rhsMax =  -5.21492433532976E+01  1.34597347244645E+00
(PID.TID 0000.0001)  ploadbar=  1.01122391478130E+05
 cg2d: Sum(rhs),rhsMax =  -5.20829376285914E+01  1.34749274678218E+00
(PID.TID 0000.0001)  ploadbar=  1.01121739328463E+05
 cg2d: Sum(rhs),rhsMax =  -5.20100986471902E+01  1.34920711771204E+00
(PID.TID 0000.0001)  ploadbar=  1.01121087178796E+05
 cg2d: Sum(rhs),rhsMax =  -5.19337084514406E+01  1.35103438823657E+00
(PID.TID 0000.0001)  ploadbar=  1.01120435029129E+05
 cg2d: Sum(rhs),rhsMax =  -5.18547348532700E+01  1.35294621958478E+00
(PID.TID 0000.0001)  ploadbar=  1.01119782879462E+05
 cg2d: Sum(rhs),rhsMax =  -5.17730584299114E+01  1.35494548232286E+00
(PID.TID 0000.0001)  ploadbar=  1.01119130729795E+05
 cg2d: Sum(rhs),rhsMax =  -5.16887051325065E+01  1.35703042975514E+00
(PID.TID 0000.0001)  ploadbar=  1.01118478580128E+05
 cg2d: Sum(rhs),rhsMax =  -5.16096750983944E+01  1.35895580853602E+00
(PID.TID 0000.0001)  ploadbar=  1.01118435262920E+05
 cg2d: Sum(rhs),rhsMax =  -5.15297236138674E+01  1.36088226309765E+00
(PID.TID 0000.0001)  ploadbar=  1.01118391945713E+05
 cg2d: Sum(rhs),rhsMax =  -5.14560462630588E+01  1.36262150740377E+00
(PID.TID 0000.0001)  ploadbar=  1.01118348628506E+05
 cg2d: Sum(rhs),rhsMax =  -5.13871356789541E+01  1.36420978049096E+00
(PID.TID 0000.0001)  ploadbar=  1.01118305311299E+05
 cg2d: Sum(rhs),rhsMax =  -5.13174985032518E+01  1.36578918196407E+00
(PID.TID 0000.0001)  ploadbar=  1.01118261994091E+05
 cg2d: Sum(rhs),rhsMax =  -5.12500523055893E+01  1.36727895298326E+00
(PID.TID 0000.0001)  ploadbar=  1.01118218676884E+05
 cg2d: Sum(rhs),rhsMax =  -5.11931429505324E+01  1.36856682439691E+00
(PID.TID 0000.0001)  ploadbar=  1.01118335184130E+05
 cg2d: Sum(rhs),rhsMax =  -5.11464365601021E+01  1.36965361234813E+00
(PID.TID 0000.0001)  ploadbar=  1.01118451691376E+05
 cg2d: Sum(rhs),rhsMax =  -5.11119637328380E+01  1.37048080345941E+00
(PID.TID 0000.0001)  ploadbar=  1.01118568198621E+05
 cg2d: Sum(rhs),rhsMax =  -5.10887405563977E+01  1.37106859882216E+00
(PID.TID 0000.0001)  ploadbar=  1.01118684705867E+05
 cg2d: Sum(rhs),rhsMax =  -5.10771880343256E+01  1.37139898711554E+00
(PID.TID 0000.0001)  ploadbar=  1.01118801213112E+05
 cg2d: Sum(rhs),rhsMax =  -5.10884818022123E+01  1.37116742329802E+00
(PID.TID 0000.0001)  ploadbar=  1.01118917720358E+05
 cg2d: Sum(rhs),rhsMax =  -5.11039242258395E+01  1.37080408581298E+00
(PID.TID 0000.0001)  ploadbar=  1.01117617047691E+05
 cg2d: Sum(rhs),rhsMax =  -5.11259165662120E+01  1.37024136357514E+00
(PID.TID 0000.0001)  ploadbar=  1.01116316375024E+05
 cg2d: Sum(rhs),rhsMax =  -5.11555747986546E+01  1.36944594149556E+00
(PID.TID 0000.0001)  ploadbar=  1.01115015702357E+05
 cg2d: Sum(rhs),rhsMax =  -5.11915494001541E+01  1.36845416110809E+00
(PID.TID 0000.0001)  ploadbar=  1.01113715029690E+05
 cg2d: Sum(rhs),rhsMax =  -5.12328166482219E+01  1.36729608362369E+00
(PID.TID 0000.0001)  ploadbar=  1.01112414357022E+05
 cg2d: Sum(rhs),rhsMax =  -5.12776071584921E+01  1.36602279402436E+00
(PID.TID 0000.0001)  ploadbar=  1.01111113684355E+05
 cg2d: Sum(rhs),rhsMax =  -5.13099588388037E+01  1.36511200614317E+00
(PID.TID 0000.0001)  ploadbar=  1.01111610353229E+05
 cg2d: Sum(rhs),rhsMax =  -5.13471389228747E+01  1.36408874680108E+00
(PID.TID 0000.0001)  ploadbar=  1.01112107022104E+05
 cg2d: Sum(rhs),rhsMax =  -5.13820712564610E+01  1.36313974976506E+00
(PID.TID 0000.0001)  ploadbar=  1.01112603690978E+05
 cg2d: Sum(rhs),rhsMax =  -5.14170417548066E+01  1.36219822746818E+00
(PID.TID 0000.0001)  ploadbar=  1.01113100359852E+05
 cg2d: Sum(rhs),rhsMax =  -5.14545612252232E+01  1.36119495348309E+00
(PID.TID 0000.0001)  ploadbar=  1.01113597028726E+05
 cg2d: Sum(rhs),rhsMax =  -5.14957602869552E+01  1.36010338944007E+00
(PID.TID 0000.0001)  ploadbar=  1.01114093697600E+05
 cg2d: Sum(rhs),rhsMax =  -5.15346566504145E+01  1.35904222502864E+00
(PID.TID 0000.0001)  ploadbar=  1.01113462104740E+05
 cg2d: Sum(rhs),rhsMax =  -5.15767239321280E+01  1.35786445507374E+00
(PID.TID 0000.0001)  ploadbar=  1.01112830511879E+05
 cg2d: Sum(rhs),rhsMax =  -5.16191058322873E+01  1.35664471086559E+00
(PID.TID 0000.0001)  ploadbar=  1.01112198919019E+05
 cg2d: Sum(rhs),rhsMax =  -5.16604606471612E+01  1.35541847713355E+00
(PID.TID 0000.0001)  ploadbar=  1.01111567326158E+05
 cg2d: Sum(rhs),rhsMax =  -5.17008202996741E+01  1.35418448966708E+00
(PID.TID 0000.0001)  ploadbar=  1.01110935733298E+05
 cg2d: Sum(rhs),rhsMax =  -5.17399667152388E+01  1.35293987724354E+00
(PID.TID 0000.0001)  ploadbar=  1.01110304140438E+05
 cg2d: Sum(rhs),rhsMax =  -5.17988447176845E+01  1.35126284266906E+00
(PID.TID 0000.0001)  ploadbar=  1.01108969515746E+05
 cg2d: Sum(rhs),rhsMax =  -5.18626899686826E+01  1.34953344590122E+00
(PID.TID 0000.0001)  ploadbar=  1.01107634891053E+05
 cg2d: Sum(rhs),rhsMax =  -5.19284305907380E+01  1.34782678133927E+00
(PID.TID 0000.0001)  ploadbar=  1.01106300266361E+05
 cg2d: Sum(rhs),rhsMax =  -5.19962359826115E+01  1.34613109931331E+00
(PID.TID 0000.0001)  ploadbar=  1.01104965641669E+05
 cg2d: Sum(rhs),rhsMax =  -5.20669743663324E+01  1.34442038464033E+00
(PID.TID 0000.0001)  ploadbar=  1.01103631016977E+05
 cg2d: Sum(rhs),rhsMax =  -5.21407392006626E+01  1.34268402989047E+00
(PID.TID 0000.0001)  ploadbar=  1.01102296392285E+05
 cg2d: Sum(rhs),rhsMax =  -5.22035221540553E+01  1.34123762500030E+00
(PID.TID 0000.0001)  ploadbar=  1.01101055666235E+05
 cg2d: Sum(rhs),rhsMax =  -5.22604901053688E+01  1.33994137866691E+00
(PID.TID 0000.0001)  ploadbar=  1.01099814940186E+05
 cg2d: Sum(rhs),rhsMax =  -5.23034899962875E+01  1.33900025696077E+00
(PID.TID 0000.0001)  ploadbar=  1.01098574214137E+05
 cg2d: Sum(rhs),rhsMax =  -5.23329535904631E+01  1.33840408920994E+00
(PID.TID 0000.0001)  ploadbar=  1.01097333488087E+05
 cg2d: Sum(rhs),rhsMax =  -5.23553558383305E+01  1.33799174474792E+00
(PID.TID 0000.0001)  ploadbar=  1.01096092762038E+05
 cg2d: Sum(rhs),rhsMax =  -5.23804849863519E+01  1.33751140728637E+00
(PID.TID 0000.0001)  ploadbar=  1.01094852035988E+05
 cg2d: Sum(rhs),rhsMax =  -5.23969019233698E+01  1.33730727439279E+00
(PID.TID 0000.0001)  ploadbar=  1.01094569466423E+05
 cg2d: Sum(rhs),rhsMax =  -5.24146823411448E+01  1.33710911528501E+00
(PID.TID 0000.0001)  ploadbar=  1.01094286896857E+05
 cg2d: Sum(rhs),rhsMax =  -5.24425989597495E+01  1.33668956463856E+00
(PID.TID 0000.0001)  ploadbar=  1.01094004327291E+05
 cg2d: Sum(rhs),rhsMax =  -5.24789093191120E+01  1.33609102693936E+00
(PID.TID 0000.0001)  ploadbar=  1.01093721757726E+05
 cg2d: Sum(rhs),rhsMax =  -5.25254470522468E+01  1.33526620669249E+00
(PID.TID 0000.0001)  ploadbar=  1.01093439188160E+05
 cg2d: Sum(rhs),rhsMax =  -5.25764536404633E+01  1.33435958583238E+00
(PID.TID 0000.0001)  ploadbar=  1.01093156618594E+05
 cg2d: Sum(rhs),rhsMax =  -5.26432103186057E+01  1.33303126446582E+00
(PID.TID 0000.0001)  ploadbar=  1.01092282058910E+05
 cg2d: Sum(rhs),rhsMax =  -5.27100849514279E+01  1.33167647504327E+00
(PID.TID 0000.0001)  ploadbar=  1.01091407499225E+05
 cg2d: Sum(rhs),rhsMax =  -5.27800664072231E+01  1.33022030666873E+00
(PID.TID 0000.0001)  ploadbar=  1.01090532939541E+05
 cg2d: Sum(rhs),rhsMax =  -5.28494328899446E+01  1.32875570447238E+00
(PID.TID 0000.0001)  ploadbar=  1.01089658379856E+05
 cg2d: Sum(rhs),rhsMax =  -5.29153729176344E+01  1.32734996631155E+00
(PID.TID 0000.0001)  ploadbar=  1.01088783820172E+05
 cg2d: Sum(rhs),rhsMax =  -5.29767627939185E+01  1.32602667766142E+00
(PID.TID 0000.0001)  ploadbar=  1.01087909260487E+05
 cg2d: Sum(rhs),rhsMax =  -5.30577937323874E+01  1.32428733336349E+00
(PID.TID 0000.0001)  ploadbar=  1.01087889430784E+05
 cg2d: Sum(rhs),rhsMax =  -5.31502547914842E+01  1.32233471491723E+00
(PID.TID 0000.0001)  ploadbar=  1.01087869601081E+05
 cg2d: Sum(rhs),rhsMax =  -5.32472336760431E+01  1.32033718326492E+00
(PID.TID 0000.0001)  ploadbar=  1.01087849771378E+05
 cg2d: Sum(rhs),rhsMax =  -5.33519681295778E+01  1.31820997020819E+00
(PID.TID 0000.0001)  ploadbar=  1.01087829941675E+05
 cg2d: Sum(rhs),rhsMax =  -5.34645559685801E+01  1.31594929300370E+00
(PID.TID 0000.0001)  ploadbar=  1.01087810111972E+05
 cg2d: Sum(rhs),rhsMax =  -5.35835198177952E+01  1.31359133587419E+00
(PID.TID 0000.0001)  ploadbar=  1.01087790282268E+05
 cg2d: Sum(rhs),rhsMax =  -5.37002775650549E+01  1.31127215304798E+00
(PID.TID 0000.0001)  ploadbar=  1.01087577088551E+05
 cg2d: Sum(rhs),rhsMax =  -5.38120153776863E+01  1.30905866309869E+00
(PID.TID 0000.0001)  ploadbar=  1.01087363894833E+05
 cg2d: Sum(rhs),rhsMax =  -5.39191433530563E+01  1.30694027283043E+00
(PID.TID 0000.0001)  ploadbar=  1.01087150701116E+05
 cg2d: Sum(rhs),rhsMax =  -5.40223495666609E+01  1.30489804002990E+00
(PID.TID 0000.0001)  ploadbar=  1.01086937507398E+05
 cg2d: Sum(rhs),rhsMax =  -5.41204035126896E+01  1.30296340226372E+00
(PID.TID 0000.0001)  ploadbar=  1.01086724313681E+05
 cg2d: Sum(rhs),rhsMax =  -5.42128303871397E+01  1.30114815783953E+00
(PID.TID 0000.0001)  ploadbar=  1.01086511119963E+05
 cg2d: Sum(rhs),rhsMax =  -5.42991699974926E+01  1.29950060599997E+00
(PID.TID 0000.0001)  ploadbar=  1.01086662358759E+05
 cg2d: Sum(rhs),rhsMax =  -5.43774594420115E+01  1.29805445559989E+00
(PID.TID 0000.0001)  ploadbar=  1.01086813597554E+05
 cg2d: Sum(rhs),rhsMax =  -5.44511427722015E+01  1.29672436876194E+00
(PID.TID 0000.0001)  ploadbar=  1.01086964836350E+05
 cg2d: Sum(rhs),rhsMax =  -5.45200073379910E+01  1.29550933666304E+00
(PID.TID 0000.0001)  ploadbar=  1.01087116075145E+05
 cg2d: Sum(rhs),rhsMax =  -5.45817371552996E+01  1.29445863797907E+00
(PID.TID 0000.0001)  ploadbar=  1.01087267313941E+05
 cg2d: Sum(rhs),rhsMax =  -5.46360280270231E+01  1.29357523660619E+00
(PID.TID 0000.0001)  ploadbar=  1.01087418552736E+05
 cg2d: Sum(rhs),rhsMax =  -5.46725585241739E+01  1.29304605109875E+00
(PID.TID 0000.0001)  ploadbar=  1.01086925843731E+05
 cg2d: Sum(rhs),rhsMax =  -5.46924037420602E+01  1.29284345807612E+00
(PID.TID 0000.0001)  ploadbar=  1.01086433134726E+05
 cg2d: Sum(rhs),rhsMax =  -5.47022785550044E+01  1.29281268217372E+00
(PID.TID 0000.0001)  ploadbar=  1.01085940425721E+05
 cg2d: Sum(rhs),rhsMax =  -5.47021202178752E+01  1.29295403951681E+00
(PID.TID 0000.0001)  ploadbar=  1.01085447716715E+05
 cg2d: Sum(rhs),rhsMax =  -5.46904725249309E+01  1.29330135450295E+00
(PID.TID 0000.0001)  ploadbar=  1.01084955007710E+05
 cg2d: Sum(rhs),rhsMax =  -5.46645046136372E+01  1.29391896202462E+00
(PID.TID 0000.0001)  ploadbar=  1.01084462298705E+05
 cg2d: Sum(rhs),rhsMax =  -5.46427252098011E+01  1.29450741310902E+00
(PID.TID 0000.0001)  ploadbar=  1.01085652597166E+05
 cg2d: Sum(rhs),rhsMax =  -5.46274249810283E+01  1.29500695755182E+00
(PID.TID 0000.0001)  ploadbar=  1.01086842895626E+05
 cg2d: Sum(rhs),rhsMax =  -5.46226787667351E+01  1.29531600057870E+00
(PID.TID 0000.0001)  ploadbar=  1.01088033194087E+05
 cg2d: Sum(rhs),rhsMax =  -5.46278812528382E+01  1.29544508638491E+00
(PID.TID 0000.0001)  ploadbar=  1.01089223492547E+05
 cg2d: Sum(rhs),rhsMax =  -5.46433125839821E+01  1.29538352810409E+00
(PID.TID 0000.0001)  ploadbar=  1.01090413791008E+05
 cg2d: Sum(rhs),rhsMax =  -5.46685364546489E+01  1.29514107255145E+00
(PID.TID 0000.0001)  ploadbar=  1.01091604089469E+05
 cg2d: Sum(rhs),rhsMax =  -5.46982164802376E+01  1.29476540887494E+00
(PID.TID 0000.0001)  ploadbar=  1.01092146991045E+05
 cg2d: Sum(rhs),rhsMax =  -5.47265139860561E+01  1.29439685060549E+00
(PID.TID 0000.0001)  ploadbar=  1.01092689892622E+05
 cg2d: Sum(rhs),rhsMax =  -5.47521858126027E+01  1.29406883699637E+00
(PID.TID 0000.0001)  ploadbar=  1.01093232794198E+05
 cg2d: Sum(rhs),rhsMax =  -5.47734443893227E+01  1.29382657890129E+00
(PID.TID 0000.0001)  ploadbar=  1.01093775695775E+05
 cg2d: Sum(rhs),rhsMax =  -5.47920491899702E+01  1.29362625680539E+00
(PID.TID 0000.0001)  ploadbar=  1.01094318597351E+05
 cg2d: Sum(rhs),rhsMax =  -5.48108267984541E+01  1.29340367712794E+00
(PID.TID 0000.0001)  ploadbar=  1.01094861498928E+05
 cg2d: Sum(rhs),rhsMax =  -5.48358811623078E+01  1.29304504801213E+00
(PID.TID 0000.0001)  ploadbar=  1.01095396221748E+05
 cg2d: Sum(rhs),rhsMax =  -5.48716459035819E+01  1.29243875262147E+00
(PID.TID 0000.0001)  ploadbar=  1.01095930944568E+05
 cg2d: Sum(rhs),rhsMax =  -5.49143433728176E+01  1.29167159068393E+00
(PID.TID 0000.0001)  ploadbar=  1.01096465667388E+05
 cg2d: Sum(rhs),rhsMax =  -5.49630645498064E+01  1.29076023353665E+00
(PID.TID 0000.0001)  ploadbar=  1.01097000390208E+05
 cg2d: Sum(rhs),rhsMax =  -5.50211944013953E+01  1.28962240265049E+00
(PID.TID 0000.0001)  ploadbar=  1.01097535113028E+05
 cg2d: Sum(rhs),rhsMax =  -5.50887010646569E+01  1.28825801715847E+00
(PID.TID 0000.0001)  ploadbar=  1.01098069835848E+05
 cg2d: Sum(rhs),rhsMax =  -5.51492742425011E+01  1.28698988575864E+00
(PID.TID 0000.0001)  ploadbar=  1.01098097603229E+05
 cg2d: Sum(rhs),rhsMax =  -5.52112924686258E+01  1.28561969021305E+00
(PID.TID 0000.0001)  ploadbar=  1.01098125370610E+05
 cg2d: Sum(rhs),rhsMax =  -5.52734643538477E+01  1.28418005338437E+00
(PID.TID 0000.0001)  ploadbar=  1.01098153137991E+05
 cg2d: Sum(rhs),rhsMax =  -5.53361637577719E+01  1.28266524592864E+00
(PID.TID 0000.0001)  ploadbar=  1.01098180905372E+05
 cg2d: Sum(rhs),rhsMax =  -5.53989300001321E+01  1.28108530376902E+00
(PID.TID 0000.0001)  ploadbar=  1.01098208672753E+05
 cg2d: Sum(rhs),rhsMax =  -5.54611764793117E+01  1.27945170033870E+00
(PID.TID 0000.0001)  ploadbar=  1.01098236440134E+05
 cg2d: Sum(rhs),rhsMax =  -5.55163945893236E+01  1.27805024178368E+00
(PID.TID 0000.0001)  ploadbar=  1.01098459720794E+05
 cg2d: Sum(rhs),rhsMax =  -5.55730387952995E+01  1.27668119516194E+00
(PID.TID 0000.0001)  ploadbar=  1.01098683001455E+05
 cg2d: Sum(rhs),rhsMax =  -5.56329265882867E+01  1.27529676552047E+00
(PID.TID 0000.0001)  ploadbar=  1.01098906282115E+05
 cg2d: Sum(rhs),rhsMax =  -5.56954865375019E+01  1.27390362540338E+00
(PID.TID 0000.0001)  ploadbar=  1.01099129562775E+05
 cg2d: Sum(rhs),rhsMax =  -5.57599084418761E+01  1.27251806286342E+00
(PID.TID 0000.0001)  ploadbar=  1.01099352843436E+05
 cg2d: Sum(rhs),rhsMax =  -5.58251634289478E+01  1.27115955014755E+00
(PID.TID 0000.0001)  ploadbar=  1.01099576124096E+05
 cg2d: Sum(rhs),rhsMax =  -5.58977818769589E+01  1.26963465180392E+00
(PID.TID 0000.0001)  ploadbar=  1.01100041516929E+05
 cg2d: Sum(rhs),rhsMax =  -5.59711889468562E+01  1.26809523550834E+00
(PID.TID 0000.0001)  ploadbar=  1.01100506909762E+05
 cg2d: Sum(rhs),rhsMax =  -5.60448813235149E+01  1.26655444303653E+00
(PID.TID 0000.0001)  ploadbar=  1.01100972302595E+05
 cg2d: Sum(rhs),rhsMax =  -5.61202322170676E+01  1.26498707833708E+00
(PID.TID 0000.0001)  ploadbar=  1.01101437695428E+05
 cg2d: Sum(rhs),rhsMax =  -5.61974863446388E+01  1.26338986871211E+00
(PID.TID 0000.0001)  ploadbar=  1.01101903088261E+05
 cg2d: Sum(rhs),rhsMax =  -5.62765901059876E+01  1.26176468509596E+00
(PID.TID 0000.0001)  ploadbar=  1.01102368481094E+05
 cg2d: Sum(rhs),rhsMax =  -5.63640643448631E+01  1.25999579241405E+00
(PID.TID 0000.0001)  ploadbar=  1.01104177464967E+05
 cg2d: Sum(rhs),rhsMax =  -5.64576661885462E+01  1.25812834900546E+00
(PID.TID 0000.0001)  ploadbar=  1.01105986448840E+05
 cg2d: Sum(rhs),rhsMax =  -5.65523416180530E+01  1.25627228643150E+00
(PID.TID 0000.0001)  ploadbar=  1.01107795432713E+05
 cg2d: Sum(rhs),rhsMax =  -5.66483276696682E+01  1.25442023729286E+00
(PID.TID 0000.0001)  ploadbar=  1.01109604416585E+05
 cg2d: Sum(rhs),rhsMax =  -5.67465892997630E+01  1.25254823908720E+00
(PID.TID 0000.0001)  ploadbar=  1.01111413400458E+05
 cg2d: Sum(rhs),rhsMax =  -5.68472839520719E+01  1.25064951262832E+00
(PID.TID 0000.0001)  ploadbar=  1.01113222384331E+05
 cg2d: Sum(rhs),rhsMax =  -5.69566703525330E+01  1.24854126334502E+00
(PID.TID 0000.0001)  ploadbar=  1.01113846226508E+05
 cg2d: Sum(rhs),rhsMax =  -5.70685032040893E+01  1.24636310775648E+00
(PID.TID 0000.0001)  ploadbar=  1.01114470068685E+05
 cg2d: Sum(rhs),rhsMax =  -5.71810063890351E+01  1.24415601386087E+00
(PID.TID 0000.0001)  ploadbar=  1.01115093910862E+05
 cg2d: Sum(rhs),rhsMax =  -5.72951225165024E+01  1.24189819260365E+00
(PID.TID 0000.0001)  ploadbar=  1.01115717753039E+05
 cg2d: Sum(rhs),rhsMax =  -5.74114654267452E+01  1.23957511131327E+00
(PID.TID 0000.0001)  ploadbar=  1.01116341595216E+05
 cg2d: Sum(rhs),rhsMax =  -5.75303452223344E+01  1.23718033818005E+00
(PID.TID 0000.0001)  ploadbar=  1.01116965437393E+05
 cg2d: Sum(rhs),rhsMax =  -5.76443412012897E+01  1.23494402618368E+00
(PID.TID 0000.0001)  ploadbar=  1.01116356365828E+05
 cg2d: Sum(rhs),rhsMax =  -5.77631989840441E+01  1.23265194172782E+00
(PID.TID 0000.0001)  ploadbar=  1.01115747294262E+05
 cg2d: Sum(rhs),rhsMax =  -5.78855480968277E+01  1.23032731151251E+00
(PID.TID 0000.0001)  ploadbar=  1.01115138222696E+05
 cg2d: Sum(rhs),rhsMax =  -5.80117761710537E+01  1.22795663400646E+00
(PID.TID 0000.0001)  ploadbar=  1.01114529151131E+05
 cg2d: Sum(rhs),rhsMax =  -5.81418156323536E+01  1.22553894212154E+00
(PID.TID 0000.0001)  ploadbar=  1.01113920079565E+05
 cg2d: Sum(rhs),rhsMax =  -5.82750680699159E+01  1.22308551050283E+00
(PID.TID 0000.0001)  ploadbar=  1.01113311008000E+05
 cg2d: Sum(rhs),rhsMax =  -5.84140577665987E+01  1.22052643363334E+00
(PID.TID 0000.0001)  ploadbar=  1.01113924325722E+05
 cg2d: Sum(rhs),rhsMax =  -5.85546446610782E+01  1.21794806125453E+00
(PID.TID 0000.0001)  ploadbar=  1.01114537643445E+05
 cg2d: Sum(rhs),rhsMax =  -5.86964846889051E+01  1.21535711451652E+00
(PID.TID 0000.0001)  ploadbar=  1.01115150961167E+05
 cg2d: Sum(rhs),rhsMax =  -5.88399534244757E+01  1.21274432426893E+00
(PID.TID 0000.0001)  ploadbar=  1.01115764278890E+05
 cg2d: Sum(rhs),rhsMax =  -5.89844749878270E+01  1.21012037451095E+00
(PID.TID 0000.0001)  ploadbar=  1.01116377596613E+05
 cg2d: Sum(rhs),rhsMax =  -5.91293775437869E+01  1.20749806825750E+00
(PID.TID 0000.0001)  ploadbar=  1.01116990914335E+05
 cg2d: Sum(rhs),rhsMax =  -5.92731157533641E+01  1.20490078907044E+00
(PID.TID 0000.0001)  ploadbar=  1.01118610553216E+05
 cg2d: Sum(rhs),rhsMax =  -5.94152334821136E+01  1.20232427559539E+00
(PID.TID 0000.0001)  ploadbar=  1.01120230192097E+05
 cg2d: Sum(rhs),rhsMax =  -5.95533295821654E+01  1.19981606307583E+00
(PID.TID 0000.0001)  ploadbar=  1.01121849830978E+05
 cg2d: Sum(rhs),rhsMax =  -5.96886643823492E+01  1.19734517937061E+00
(PID.TID 0000.0001)  ploadbar=  1.01123469469859E+05
 cg2d: Sum(rhs),rhsMax =  -5.98215501603289E+01  1.19490313522068E+00
(PID.TID 0000.0001)  ploadbar=  1.01125089108740E+05
 cg2d: Sum(rhs),rhsMax =  -5.99543186402993E+01  1.19244114720969E+00
(PID.TID 0000.0001)  ploadbar=  1.01126708747621E+05
 cg2d: Sum(rhs),rhsMax =  -6.00823817586518E+01  1.19004345776745E+00
(PID.TID 0000.0001)  ploadbar=  1.01126895798885E+05
 cg2d: Sum(rhs),rhsMax =  -6.02065539778147E+01  1.18769568543334E+00
(PID.TID 0000.0001)  ploadbar=  1.01127082850150E+05
 cg2d: Sum(rhs),rhsMax =  -6.03301635638410E+01  1.18533351016540E+00
(PID.TID 0000.0001)  ploadbar=  1.01127269901414E+05
 cg2d: Sum(rhs),rhsMax =  -6.04515037081913E+01  1.18298689328115E+00
(PID.TID 0000.0001)  ploadbar=  1.01127456952678E+05
 cg2d: Sum(rhs),rhsMax =  -6.05708052674021E+01  1.18065159574268E+00
(PID.TID 0000.0001)  ploadbar=  1.01127644003943E+05
 cg2d: Sum(rhs),rhsMax =  -6.06890833079134E+01  1.17830535912922E+00
(PID.TID 0000.0001)  ploadbar=  1.01127831055207E+05
 cg2d: Sum(rhs),rhsMax =  -6.08095203093115E+01  1.17598953785680E+00
(PID.TID 0000.0001)  ploadbar=  1.01128326962921E+05
 cg2d: Sum(rhs),rhsMax =  -6.09329628636513E+01  1.17368129755145E+00
(PID.TID 0000.0001)  ploadbar=  1.01128822870634E+05
 cg2d: Sum(rhs),rhsMax =  -6.10585366709933E+01  1.17139116107768E+00
(PID.TID 0000.0001)  ploadbar=  1.01129318778348E+05
 cg2d: Sum(rhs),rhsMax =  -6.11857283807863E+01  1.16912435624213E+00
(PID.TID 0000.0001)  ploadbar=  1.01129814686061E+05
 cg2d: Sum(rhs),rhsMax =  -6.13143728058985E+01  1.16688718183426E+00
(PID.TID 0000.0001)  ploadbar=  1.01130310593775E+05
 cg2d: Sum(rhs),rhsMax =  -6.14442106808996E+01  1.16468418855492E+00
(PID.TID 0000.0001)  ploadbar=  1.01130806501488E+05
 cg2d: Sum(rhs),rhsMax =  -6.15723924232327E+01  1.16255813797523E+00
(PID.TID 0000.0001)  ploadbar=  1.01130469125908E+05
 cg2d: Sum(rhs),rhsMax =  -6.16975455231214E+01  1.16053262849646E+00
(PID.TID 0000.0001)  ploadbar=  1.01130131750328E+05
 cg2d: Sum(rhs),rhsMax =  -6.18213007083667E+01  1.15857813069533E+00
(PID.TID 0000.0001)  ploadbar=  1.01129794374747E+05
 cg2d: Sum(rhs),rhsMax =  -6.19431692996958E+01  1.15669955984246E+00
(PID.TID 0000.0001)  ploadbar=  1.01129456999167E+05
 cg2d: Sum(rhs),rhsMax =  -6.20634318242770E+01  1.15488579898285E+00
(PID.TID 0000.0001)  ploadbar=  1.01129119623587E+05
 cg2d: Sum(rhs),rhsMax =  -6.21826034886790E+01  1.15312560845612E+00
(PID.TID 0000.0001)  ploadbar=  1.01128782248007E+05
 cg2d: Sum(rhs),rhsMax =  -6.23033239872406E+01  1.15130716441917E+00
(PID.TID 0000.0001)  ploadbar=  1.01128775944982E+05
 cg2d: Sum(rhs),rhsMax =  -6.24218037199297E+01  1.14949315654676E+00
(PID.TID 0000.0001)  ploadbar=  1.01128769641957E+05
 cg2d: Sum(rhs),rhsMax =  -6.25361732267731E+01  1.14771593797659E+00
(PID.TID 0000.0001)  ploadbar=  1.01128763338932E+05
 cg2d: Sum(rhs),rhsMax =  -6.26461710050245E+01  1.14597667143208E+00
(PID.TID 0000.0001)  ploadbar=  1.01128757035907E+05
 cg2d: Sum(rhs),rhsMax =  -6.27514090227591E+01  1.14428063519870E+00
(PID.TID 0000.0001)  ploadbar=  1.01128750732882E+05
 cg2d: Sum(rhs),rhsMax =  -6.28524317304948E+01  1.14262007721339E+00
(PID.TID 0000.0001)  ploadbar=  1.01128744429857E+05
 cg2d: Sum(rhs),rhsMax =  -6.29498027646261E+01  1.14099231802356E+00
(PID.TID 0000.0001)  ploadbar=  1.01128783070213E+05
 cg2d: Sum(rhs),rhsMax =  -6.30402876855898E+01  1.13945669319662E+00
(PID.TID 0000.0001)  ploadbar=  1.01128821710570E+05
 cg2d: Sum(rhs),rhsMax =  -6.31276517297239E+01  1.13794423571059E+00
(PID.TID 0000.0001)  ploadbar=  1.01128860350926E+05
 cg2d: Sum(rhs),rhsMax =  -6.32116427043600E+01  1.13645729655205E+00
(PID.TID 0000.0001)  ploadbar=  1.01128898991283E+05
 cg2d: Sum(rhs),rhsMax =  -6.32912945460438E+01  1.13501013530584E+00
(PID.TID 0000.0001)  ploadbar=  1.01128937631639E+05
 cg2d: Sum(rhs),rhsMax =  -6.33666323715955E+01  1.13360290630080E+00
(PID.TID 0000.0001)  ploadbar=  1.01128976271996E+05
 cg2d: Sum(rhs),rhsMax =  -6.34377379005820E+01  1.13231773597921E+00
(PID.TID 0000.0001)  ploadbar=  1.01130213066014E+05
 cg2d: Sum(rhs),rhsMax =  -6.35079867103745E+01  1.13108820612132E+00
(PID.TID 0000.0001)  ploadbar=  1.01131449860033E+05
 cg2d: Sum(rhs),rhsMax =  -6.33253866048345E+01  1.13440736426551E+00
(PID.TID 0000.0001)  ploadbar=  1.01132686654051E+05
 cg2d: Sum(rhs),rhsMax =  -6.23087726748908E+01  1.15300864882819E+00
(PID.TID 0000.0001)  ploadbar=  1.01133923448070E+05
 cg2d: Sum(rhs),rhsMax =  -6.13917794332194E+01  1.17035734373974E+00
(PID.TID 0000.0001)  ploadbar=  1.01135160242088E+05
 cg2d: Sum(rhs),rhsMax =  -6.05602229207834E+01  1.18658866265439E+00
(PID.TID 0000.0001)  ploadbar=  1.01136397036106E+05
 cg2d: Sum(rhs),rhsMax =  -5.98188687413403E+01  1.20148781969683E+00
(PID.TID 0000.0001)  ploadbar=  1.01137543880325E+05
 cg2d: Sum(rhs),rhsMax =  -5.91501158176475E+01  1.21529765829467E+00
(PID.TID 0000.0001)  ploadbar=  1.01138690724543E+05
 cg2d: Sum(rhs),rhsMax =  -5.85501794413491E+01  1.22800687070232E+00
(PID.TID 0000.0001)  ploadbar=  1.01139837568762E+05
 cg2d: Sum(rhs),rhsMax =  -5.80196120900051E+01  1.23952628193413E+00
(PID.TID 0000.0001)  ploadbar=  1.01140984412980E+05
 cg2d: Sum(rhs),rhsMax =  -5.75638003108375E+01  1.24966599183674E+00
(PID.TID 0000.0001)  ploadbar=  1.01142131257199E+05
 cg2d: Sum(rhs),rhsMax =  -5.71824650000288E+01  1.25835623206547E+00
(PID.TID 0000.0001)  ploadbar=  1.01143278101417E+05
 cg2d: Sum(rhs),rhsMax =  -5.69336768199282E+01  1.26419490601632E+00
(PID.TID 0000.0001)  ploadbar=  1.01143532985608E+05
 cg2d: Sum(rhs),rhsMax =  -5.67705247479752E+01  1.26813942437755E+00
(PID.TID 0000.0001)  ploadbar=  1.01143787869799E+05
 cg2d: Sum(rhs),rhsMax =  -5.66783026636822E+01  1.27048522697740E+00
(PID.TID 0000.0001)  ploadbar=  1.01144042753990E+05
 cg2d: Sum(rhs),rhsMax =  -5.66446176924889E+01  1.27149099910135E+00
(PID.TID 0000.0001)  ploadbar=  1.01144297638180E+05
 cg2d: Sum(rhs),rhsMax =  -5.66538367677009E+01  1.27149904075805E+00
(PID.TID 0000.0001)  ploadbar=  1.01144552522371E+05
 cg2d: Sum(rhs),rhsMax =  -5.66994083181813E+01  1.27065596742388E+00
(PID.TID 0000.0001)  ploadbar=  1.01144807406562E+05
 cg2d: Sum(rhs),rhsMax =  -5.67590206837222E+01  1.26947620331148E+00
(PID.TID 0000.0001)  ploadbar=  1.01145770654111E+05
 cg2d: Sum(rhs),rhsMax =  -5.68703794282199E+01  1.26711945162353E+00
(PID.TID 0000.0001)  ploadbar=  1.01146733901661E+05
 cg2d: Sum(rhs),rhsMax =  -5.70186644583400E+01  1.26392533124774E+00
(PID.TID 0000.0001)  ploadbar=  1.01147697149210E+05
 cg2d: Sum(rhs),rhsMax =  -5.72007896898372E+01  1.25997379716761E+00
(PID.TID 0000.0001)  ploadbar=  1.01148660396760E+05
 cg2d: Sum(rhs),rhsMax =  -5.74152566512309E+01  1.25531225523151E+00
(PID.TID 0000.0001)  ploadbar=  1.01149623644309E+05
 cg2d: Sum(rhs),rhsMax =  -5.76072624770133E+01  1.25114476248780E+00
(PID.TID 0000.0001)  ploadbar=  1.01150586891859E+05
 cg2d: Sum(rhs),rhsMax =  -5.81202421522379E+01  1.24018505245511E+00
(PID.TID 0000.0001)  ploadbar=  1.01152275664687E+05
 cg2d: Sum(rhs),rhsMax =  -5.88245204153766E+01  1.22547538797006E+00
(PID.TID 0000.0001)  ploadbar=  1.01153964437516E+05
 cg2d: Sum(rhs),rhsMax =  -5.95221400678783E+01  1.21130453570641E+00
(PID.TID 0000.0001)  ploadbar=  1.01155653210344E+05
 cg2d: Sum(rhs),rhsMax =  -6.00961495379075E+01  1.19997796577478E+00
(PID.TID 0000.0001)  ploadbar=  1.01157341983173E+05
 cg2d: Sum(rhs),rhsMax =  -6.06414297996705E+01  1.18948028298635E+00
(PID.TID 0000.0001)  ploadbar=  1.01159030756001E+05
 cg2d: Sum(rhs),rhsMax =  -6.11898064112921E+01  1.17916054758375E+00
(PID.TID 0000.0001)  ploadbar=  1.01160719528829E+05
 cg2d: Sum(rhs),rhsMax =  -6.17087139861848E+01  1.16958014205336E+00
(PID.TID 0000.0001)  ploadbar=  1.01161255343380E+05
 cg2d: Sum(rhs),rhsMax =  -6.22040738466273E+01  1.16059737350330E+00
(PID.TID 0000.0001)  ploadbar=  1.01161791157931E+05
 cg2d: Sum(rhs),rhsMax =  -6.26705235272690E+01  1.15228459089110E+00
(PID.TID 0000.0001)  ploadbar=  1.01162326972482E+05
 cg2d: Sum(rhs),rhsMax =  -6.31078495017907E+01  1.14462213306415E+00
(PID.TID 0000.0001)  ploadbar=  1.01162862787033E+05
 cg2d: Sum(rhs),rhsMax =  -6.35150089569642E+01  1.13760541241801E+00
(PID.TID 0000.0001)  ploadbar=  1.01163398601584E+05
 cg2d: Sum(rhs),rhsMax =  -6.38924209338433E+01  1.13120317196464E+00
(PID.TID 0000.0001)  ploadbar=  1.01163934416135E+05
 cg2d: Sum(rhs),rhsMax =  -6.42302886096076E+01  1.12559102634879E+00
(PID.TID 0000.0001)  ploadbar=  1.01163522678446E+05
 cg2d: Sum(rhs),rhsMax =  -6.45626382017500E+01  1.12014986192252E+00
(PID.TID 0000.0001)  ploadbar=  1.01163110940757E+05
 cg2d: Sum(rhs),rhsMax =  -6.48979891282754E+01  1.11472693042645E+00
(PID.TID 0000.0001)  ploadbar=  1.01162699203068E+05
 cg2d: Sum(rhs),rhsMax =  -6.52303368245413E+01  1.10942412171379E+00
(PID.TID 0000.0001)  ploadbar=  1.01162287465378E+05
 cg2d: Sum(rhs),rhsMax =  -6.55597682315635E+01  1.10423610783191E+00
(PID.TID 0000.0001)  ploadbar=  1.01161875727689E+05
 cg2d: Sum(rhs),rhsMax =  -6.58833455519835E+01  1.09920855515169E+00
(PID.TID 0000.0001)  ploadbar=  1.01161463990000E+05
 cg2d: Sum(rhs),rhsMax =  -6.61411893895242E+01  1.09530268765301E+00
(PID.TID 0000.0001)  ploadbar=  1.01161852158020E+05
 cg2d: Sum(rhs),rhsMax =  -6.63735625486409E+01  1.09183032486209E+00
(PID.TID 0000.0001)  ploadbar=  1.01162240326040E+05
 cg2d: Sum(rhs),rhsMax =  -6.65914022221284E+01  1.08860493208200E+00
(PID.TID 0000.0001)  ploadbar=  1.01162628494060E+05
 cg2d: Sum(rhs),rhsMax =  -6.67914540501815E+01  1.08567568040213E+00
(PID.TID 0000.0001)  ploadbar=  1.01163016662079E+05
 cg2d: Sum(rhs),rhsMax =  -6.69755995520910E+01  1.08300715182092E+00
(PID.TID 0000.0001)  ploadbar=  1.01163404830099E+05
 cg2d: Sum(rhs),rhsMax =  -6.71440134444822E+01  1.08058836518622E+00
(PID.TID 0000.0001)  ploadbar=  1.01163792998119E+05
 cg2d: Sum(rhs),rhsMax =  -6.73605607568758E+01  1.07746816145815E+00
(PID.TID 0000.0001)  ploadbar=  1.01164204793378E+05
 cg2d: Sum(rhs),rhsMax =  -6.75650439041223E+01  1.07461024870372E+00
(PID.TID 0000.0001)  ploadbar=  1.01164616588636E+05
 cg2d: Sum(rhs),rhsMax =  -6.75198075254701E+01  1.07578146609317E+00
(PID.TID 0000.0001)  ploadbar=  1.01165028383895E+05
 cg2d: Sum(rhs),rhsMax =  -6.74352714695492E+01  1.07762919046873E+00
(PID.TID 0000.0001)  ploadbar=  1.01165440179154E+05
 cg2d: Sum(rhs),rhsMax =  -6.73523289659905E+01  1.07950299951209E+00
(PID.TID 0000.0001)  ploadbar=  1.01165851974412E+05
 cg2d: Sum(rhs),rhsMax =  -6.72708626401470E+01  1.08140079469324E+00
(PID.TID 0000.0001)  ploadbar=  1.01166263769671E+05
 cg2d: Sum(rhs),rhsMax =  -6.72884374010851E+01  1.08169656878766E+00
(PID.TID 0000.0001)  ploadbar=  1.01165586578630E+05
 cg2d: Sum(rhs),rhsMax =  -6.73065743805227E+01  1.08197288381527E+00
(PID.TID 0000.0001)  ploadbar=  1.01164909387590E+05
 cg2d: Sum(rhs),rhsMax =  -6.73190289233068E+01  1.08233263261447E+00
(PID.TID 0000.0001)  ploadbar=  1.01164232196549E+05
 cg2d: Sum(rhs),rhsMax =  -6.73296392637918E+01  1.08271543673544E+00
(PID.TID 0000.0001)  ploadbar=  1.01163555005509E+05
 cg2d: Sum(rhs),rhsMax =  -6.73381480697574E+01  1.08312898630341E+00
(PID.TID 0000.0001)  ploadbar=  1.01162877814468E+05
 cg2d: Sum(rhs),rhsMax =  -6.73432376359477E+01  1.08359293108378E+00
(PID.TID 0000.0001)  ploadbar=  1.01162200623428E+05
 cg2d: Sum(rhs),rhsMax =  -6.72879705636080E+01  1.08502838660059E+00
(PID.TID 0000.0001)  ploadbar=  1.01164084759865E+05
 cg2d: Sum(rhs),rhsMax =  -6.72340937910775E+01  1.08643734172296E+00
(PID.TID 0000.0001)  ploadbar=  1.01165968896302E+05
 cg2d: Sum(rhs),rhsMax =  -6.71811163884108E+01  1.08782588474989E+00
(PID.TID 0000.0001)  ploadbar=  1.01167853032739E+05
 cg2d: Sum(rhs),rhsMax =  -6.71252534435558E+01  1.08925607546372E+00
(PID.TID 0000.0001)  ploadbar=  1.01169737169176E+05
 cg2d: Sum(rhs),rhsMax =  -6.70686754141527E+01  1.09069376078523E+00
(PID.TID 0000.0001)  ploadbar=  1.01171621305613E+05
 cg2d: Sum(rhs),rhsMax =  -6.70225254191211E+01  1.09195715298298E+00
(PID.TID 0000.0001)  ploadbar=  1.01173505442049E+05
 cg2d: Sum(rhs),rhsMax =  -6.69017747097261E+01  1.09436383713809E+00
(PID.TID 0000.0001)  ploadbar=  1.01173393311036E+05
 cg2d: Sum(rhs),rhsMax =  -6.68431794171393E+01  1.09568130102452E+00
(PID.TID 0000.0001)  ploadbar=  1.01173281180023E+05
 cg2d: Sum(rhs),rhsMax =  -6.67814342805381E+01  1.09697607098386E+00
(PID.TID 0000.0001)  ploadbar=  1.01173169049010E+05
 cg2d: Sum(rhs),rhsMax =  -6.67179642425772E+01  1.09822715280660E+00
(PID.TID 0000.0001)  ploadbar=  1.01173056917997E+05
 cg2d: Sum(rhs),rhsMax =  -6.66519511259422E+01  1.09945291364351E+00
(PID.TID 0000.0001)  ploadbar=  1.01172944786984E+05
 cg2d: Sum(rhs),rhsMax =  -6.65842636691758E+01  1.10064285329385E+00
(PID.TID 0000.0001)  ploadbar=  1.01172832655971E+05
 cg2d: Sum(rhs),rhsMax =  -6.65885103418704E+01  1.10070955932852E+00
(PID.TID 0000.0001)  ploadbar=  1.01171310163931E+05
 cg2d: Sum(rhs),rhsMax =  -6.65970703189394E+01  1.10075941345102E+00
(PID.TID 0000.0001)  ploadbar=  1.01169787671892E+05
 cg2d: Sum(rhs),rhsMax =  -6.66115941636033E+01  1.10076247615219E+00
(PID.TID 0000.0001)  ploadbar=  1.01168265179853E+05
 cg2d: Sum(rhs),rhsMax =  -6.66309559832709E+01  1.10073812772934E+00
(PID.TID 0000.0001)  ploadbar=  1.01166742687813E+05
 cg2d: Sum(rhs),rhsMax =  -6.66535124585245E+01  1.10071368961002E+00
(PID.TID 0000.0001)  ploadbar=  1.01165220195774E+05
 cg2d: Sum(rhs),rhsMax =  -6.66793527018363E+01  1.10068753034522E+00
(PID.TID 0000.0001)  ploadbar=  1.01163697703735E+05
 cg2d: Sum(rhs),rhsMax =  -6.66039551705472E+01  1.10231525711574E+00
(PID.TID 0000.0001)  ploadbar=  1.01163175687182E+05
 cg2d: Sum(rhs),rhsMax =  -6.65250504537233E+01  1.10398713050094E+00
(PID.TID 0000.0001)  ploadbar=  1.01162653670629E+05
 cg2d: Sum(rhs),rhsMax =  -6.64511982437328E+01  1.10556467245804E+00
(PID.TID 0000.0001)  ploadbar=  1.01162131654076E+05
 cg2d: Sum(rhs),rhsMax =  -6.63780573305108E+01  1.10712169339074E+00
(PID.TID 0000.0001)  ploadbar=  1.01161609637524E+05
 cg2d: Sum(rhs),rhsMax =  -6.63077588541508E+01  1.10862500534857E+00
(PID.TID 0000.0001)  ploadbar=  1.01161087620971E+05
 cg2d: Sum(rhs),rhsMax =  -6.62417019396603E+01  1.11005214223992E+00
(PID.TID 0000.0001)  ploadbar=  1.01160565604418E+05
 cg2d: Sum(rhs),rhsMax =  -6.53703127209489E+01  1.12517408823266E+00
(PID.TID 0000.0001)  ploadbar=  1.01160688590245E+05
 cg2d: Sum(rhs),rhsMax =  -6.46080421511778E+01  1.13877105632358E+00
(PID.TID 0000.0001)  ploadbar=  1.01160811576073E+05
 cg2d: Sum(rhs),rhsMax =  -6.41182489689813E+01  1.14778786217530E+00
(PID.TID 0000.0001)  ploadbar=  1.01160934561900E+05
 cg2d: Sum(rhs),rhsMax =  -6.38714529555277E+01  1.15253504314980E+00
(PID.TID 0000.0001)  ploadbar=  1.01161057547728E+05
 cg2d: Sum(rhs),rhsMax =  -6.38299022648668E+01  1.15359059449533E+00
(PID.TID 0000.0001)  ploadbar=  1.01161180533556E+05
 cg2d: Sum(rhs),rhsMax =  -6.39553222195533E+01  1.15162560773496E+00
(PID.TID 0000.0001)  ploadbar=  1.01161303519383E+05
 cg2d: Sum(rhs),rhsMax =  -6.42350673668534E+01  1.14687214720151E+00
(PID.TID 0000.0001)  ploadbar=  1.01160695258641E+05
 cg2d: Sum(rhs),rhsMax =  -6.45703470022451E+01  1.14114240327821E+00
(PID.TID 0000.0001)  ploadbar=  1.01160086997898E+05
 cg2d: Sum(rhs),rhsMax =  -6.49733686303814E+01  1.13425359111115E+00
(PID.TID 0000.0001)  ploadbar=  1.01159478737156E+05
 cg2d: Sum(rhs),rhsMax =  -6.52119182065753E+01  1.13025881320276E+00
(PID.TID 0000.0001)  ploadbar=  1.01158870476413E+05
 cg2d: Sum(rhs),rhsMax =  -6.51269998380132E+01  1.13185640252358E+00
(PID.TID 0000.0001)  ploadbar=  1.01158262215671E+05
 cg2d: Sum(rhs),rhsMax =  -6.50399797192103E+01  1.13347398567115E+00
(PID.TID 0000.0001)  ploadbar=  1.01157653954929E+05
 cg2d: Sum(rhs),rhsMax =  -6.49910147694251E+01  1.13448608339964E+00
(PID.TID 0000.0001)  ploadbar=  1.01157574998183E+05
 cg2d: Sum(rhs),rhsMax =  -6.49417705585735E+01  1.13555100699089E+00
(PID.TID 0000.0001)  ploadbar=  1.01157496041437E+05
 cg2d: Sum(rhs),rhsMax =  -6.48925744155099E+01  1.13666249555387E+00
(PID.TID 0000.0001)  ploadbar=  1.01157417084690E+05
 cg2d: Sum(rhs),rhsMax =  -6.48470830185280E+01  1.13775595131657E+00
(PID.TID 0000.0001)  ploadbar=  1.01157338127944E+05
 cg2d: Sum(rhs),rhsMax =  -6.48044974678472E+01  1.13884560525474E+00
(PID.TID 0000.0001)  ploadbar=  1.01157259171198E+05
 cg2d: Sum(rhs),rhsMax =  -6.47654391448316E+01  1.13992174246107E+00
(PID.TID 0000.0001)  ploadbar=  1.01157180214452E+05
 cg2d: Sum(rhs),rhsMax =  -6.47330956383064E+01  1.14086890318535E+00
(PID.TID 0000.0001)  ploadbar=  1.01156524695254E+05
 cg2d: Sum(rhs),rhsMax =  -6.47047585208251E+01  1.14173585926948E+00
(PID.TID 0000.0001)  ploadbar=  1.01155869176056E+05
 cg2d: Sum(rhs),rhsMax =  -6.46831545674787E+01  1.14247727625974E+00
(PID.TID 0000.0001)  ploadbar=  1.01155213656858E+05
 cg2d: Sum(rhs),rhsMax =  -6.46661964280980E+01  1.14313025568632E+00
(PID.TID 0000.0001)  ploadbar=  1.01154558137660E+05
 cg2d: Sum(rhs),rhsMax =  -6.46540469938634E+01  1.14369306820909E+00
(PID.TID 0000.0001)  ploadbar=  1.01153902618462E+05
 cg2d: Sum(rhs),rhsMax =  -6.46463599968562E+01  1.14417618097672E+00
(PID.TID 0000.0001)  ploadbar=  1.01153247099264E+05
 cg2d: Sum(rhs),rhsMax =  -6.46323114196666E+01  1.14480063517239E+00
(PID.TID 0000.0001)  ploadbar=  1.01153499378328E+05
 cg2d: Sum(rhs),rhsMax =  -6.46226089901275E+01  1.14536964089689E+00
(PID.TID 0000.0001)  ploadbar=  1.01153751657392E+05
 cg2d: Sum(rhs),rhsMax =  -6.46145037561369E+01  1.14593033982277E+00
(PID.TID 0000.0001)  ploadbar=  1.01154003936456E+05
 cg2d: Sum(rhs),rhsMax =  -6.46099894324531E+01  1.14644738448137E+00
(PID.TID 0000.0001)  ploadbar=  1.01154256215520E+05
 cg2d: Sum(rhs),rhsMax =  -6.46102258764882E+01  1.14689790413543E+00
(PID.TID 0000.0001)  ploadbar=  1.01154508494584E+05
 cg2d: Sum(rhs),rhsMax =  -6.46157793105892E+01  1.14727278806047E+00
(PID.TID 0000.0001)  ploadbar=  1.01154760773647E+05
 cg2d: Sum(rhs),rhsMax =  -6.46660203057129E+01  1.14680468433534E+00
(PID.TID 0000.0001)  ploadbar=  1.01154460225129E+05
 cg2d: Sum(rhs),rhsMax =  -6.47209146266671E+01  1.14620369037102E+00
(PID.TID 0000.0001)  ploadbar=  1.01154159676610E+05
 cg2d: Sum(rhs),rhsMax =  -6.47697270522185E+01  1.14565885491309E+00
(PID.TID 0000.0001)  ploadbar=  1.01153859128091E+05
 cg2d: Sum(rhs),rhsMax =  -6.48166677351646E+01  1.14509766614287E+00
(PID.TID 0000.0001)  ploadbar=  1.01153558579572E+05
 cg2d: Sum(rhs),rhsMax =  -6.48605699139004E+01  1.14454644267053E+00
(PID.TID 0000.0001)  ploadbar=  1.01153258031054E+05
 cg2d: Sum(rhs),rhsMax =  -6.49008432133818E+01  1.14401910025142E+00
(PID.TID 0000.0001)  ploadbar=  1.01152957482535E+05
 cg2d: Sum(rhs),rhsMax =  -6.49232431820677E+01  1.14386231806780E+00
(PID.TID 0000.0001)  ploadbar=  1.01153334510533E+05
 cg2d: Sum(rhs),rhsMax =  -6.49551683953162E+01  1.14358814133223E+00
(PID.TID 0000.0001)  ploadbar=  1.01153711538532E+05
 cg2d: Sum(rhs),rhsMax =  -6.49837007610850E+01  1.14342247707499E+00
(PID.TID 0000.0001)  ploadbar=  1.01154088566530E+05
 cg2d: Sum(rhs),rhsMax =  -6.50128819945141E+01  1.14329352556244E+00
(PID.TID 0000.0001)  ploadbar=  1.01154465594529E+05
 cg2d: Sum(rhs),rhsMax =  -6.50465644499690E+01  1.14313335634766E+00
(PID.TID 0000.0001)  ploadbar=  1.01154842622527E+05
 cg2d: Sum(rhs),rhsMax =  -6.50855144597705E+01  1.14292860496392E+00
(PID.TID 0000.0001)  ploadbar=  1.01155219650526E+05
 cg2d: Sum(rhs),rhsMax =  -6.51368437555348E+01  1.14247741355461E+00
(PID.TID 0000.0001)  ploadbar=  1.01155943507714E+05
 cg2d: Sum(rhs),rhsMax =  -6.51897990452448E+01  1.14197090561193E+00
(PID.TID 0000.0001)  ploadbar=  1.01156667364902E+05
 cg2d: Sum(rhs),rhsMax =  -6.52448301804903E+01  1.14140394935727E+00
(PID.TID 0000.0001)  ploadbar=  1.01157391222090E+05
 cg2d: Sum(rhs),rhsMax =  -6.53007211994966E+01  1.14079940605130E+00
(PID.TID 0000.0001)  ploadbar=  1.01158115079278E+05
 cg2d: Sum(rhs),rhsMax =  -6.53573315718078E+01  1.14016125883055E+00
(PID.TID 0000.0001)  ploadbar=  1.01158838936466E+05
 cg2d: Sum(rhs),rhsMax =  -6.54148769992699E+01  1.13948609086282E+00
(PID.TID 0000.0001)  ploadbar=  1.01159562793654E+05
 cg2d: Sum(rhs),rhsMax =  -6.54564764693355E+01  1.13912537196773E+00
(PID.TID 0000.0001)  ploadbar=  1.01159096612119E+05
 cg2d: Sum(rhs),rhsMax =  -6.55022087626227E+01  1.13872137881508E+00
(PID.TID 0000.0001)  ploadbar=  1.01158630430583E+05
 cg2d: Sum(rhs),rhsMax =  -6.55421302204155E+01  1.13844454846619E+00
(PID.TID 0000.0001)  ploadbar=  1.01158164249047E+05
 cg2d: Sum(rhs),rhsMax =  -6.55801099615782E+01  1.13822539707457E+00
(PID.TID 0000.0001)  ploadbar=  1.01157698067512E+05
 cg2d: Sum(rhs),rhsMax =  -6.55508004154539E+01  1.13919636916843E+00
(PID.TID 0000.0001)  ploadbar=  1.01157231885976E+05
 cg2d: Sum(rhs),rhsMax =  -6.52997175241391E+01  1.14406043744364E+00
(PID.TID 0000.0001)  ploadbar=  1.01156765704440E+05
 cg2d: Sum(rhs),rhsMax =  -6.50755337288708E+01  1.14843201951375E+00
(PID.TID 0000.0001)  ploadbar=  1.01156863320822E+05
 cg2d: Sum(rhs),rhsMax =  -6.48973069050773E+01  1.15196160253179E+00
(PID.TID 0000.0001)  ploadbar=  1.01156960937203E+05
 cg2d: Sum(rhs),rhsMax =  -6.47656720705155E+01  1.15462620118190E+00
(PID.TID 0000.0001)  ploadbar=  1.01157058553584E+05
 cg2d: Sum(rhs),rhsMax =  -6.46867529177179E+01  1.15630631282197E+00
(PID.TID 0000.0001)  ploadbar=  1.01157156169965E+05
 cg2d: Sum(rhs),rhsMax =  -6.46550808276858E+01  1.15709516399970E+00
(PID.TID 0000.0001)  ploadbar=  1.01157253786346E+05
 cg2d: Sum(rhs),rhsMax =  -6.46650379904162E+01  1.15709316645170E+00
(PID.TID 0000.0001)  ploadbar=  1.01157351402727E+05
 cg2d: Sum(rhs),rhsMax =  -6.47341957479946E+01  1.15606021901258E+00
(PID.TID 0000.0001)  ploadbar=  1.01157277045410E+05
 cg2d: Sum(rhs),rhsMax =  -6.48576945234973E+01  1.15408612022503E+00
(PID.TID 0000.0001)  ploadbar=  1.01157202688093E+05
 cg2d: Sum(rhs),rhsMax =  -6.50378343004897E+01  1.15114168901432E+00
(PID.TID 0000.0001)  ploadbar=  1.01157128330776E+05
 cg2d: Sum(rhs),rhsMax =  -6.52740272429251E+01  1.14725236539133E+00
(PID.TID 0000.0001)  ploadbar=  1.01157053973459E+05
 cg2d: Sum(rhs),rhsMax =  -6.55657574767709E+01  1.14244893655812E+00
(PID.TID 0000.0001)  ploadbar=  1.01156979616142E+05
 cg2d: Sum(rhs),rhsMax =  -6.55457159417360E+01  1.14312798988338E+00
(PID.TID 0000.0001)  ploadbar=  1.01156905258825E+05
 cg2d: Sum(rhs),rhsMax =  -6.55264601166981E+01  1.14375491567525E+00
(PID.TID 0000.0001)  ploadbar=  1.01156662755822E+05
 cg2d: Sum(rhs),rhsMax =  -6.55019881021430E+01  1.14443429399712E+00
(PID.TID 0000.0001)  ploadbar=  1.01156420252818E+05
 cg2d: Sum(rhs),rhsMax =  -6.54839085730946E+01  1.14496641401123E+00
(PID.TID 0000.0001)  ploadbar=  1.01156177749815E+05
 cg2d: Sum(rhs),rhsMax =  -6.54690787754557E+01  1.14541347846201E+00
(PID.TID 0000.0001)  ploadbar=  1.01155935246811E+05
 cg2d: Sum(rhs),rhsMax =  -6.54566166701167E+01  1.14579442099512E+00
(PID.TID 0000.0001)  ploadbar=  1.01155692743807E+05
 cg2d: Sum(rhs),rhsMax =  -6.54475636658568E+01  1.14608936632986E+00
(PID.TID 0000.0001)  ploadbar=  1.01155450240804E+05
 cg2d: Sum(rhs),rhsMax =  -6.54420453635518E+01  1.14632798803563E+00
(PID.TID 0000.0001)  ploadbar=  1.01155554108176E+05
 cg2d: Sum(rhs),rhsMax =  -6.54351984489139E+01  1.14658765207175E+00
(PID.TID 0000.0001)  ploadbar=  1.01155657975549E+05
 cg2d: Sum(rhs),rhsMax =  -6.54338782978113E+01  1.14674642175322E+00
(PID.TID 0000.0001)  ploadbar=  1.01155761842922E+05
 cg2d: Sum(rhs),rhsMax =  -6.54334776702237E+01  1.14688347934167E+00
(PID.TID 0000.0001)  ploadbar=  1.01155865710294E+05
 cg2d: Sum(rhs),rhsMax =  -6.54319252433906E+01  1.14703531924000E+00
(PID.TID 0000.0001)  ploadbar=  1.01155969577667E+05
 cg2d: Sum(rhs),rhsMax =  -6.54322333724423E+01  1.14714832635972E+00
(PID.TID 0000.0001)  ploadbar=  1.01156073445039E+05
 cg2d: Sum(rhs),rhsMax =  -6.54633443823842E+01  1.14668546530535E+00
(PID.TID 0000.0001)  ploadbar=  1.01154966788462E+05
 cg2d: Sum(rhs),rhsMax =  -6.54982715052386E+01  1.14611921023335E+00
(PID.TID 0000.0001)  ploadbar=  1.01153860131885E+05
 cg2d: Sum(rhs),rhsMax =  -6.55383163402901E+01  1.14542636963390E+00
(PID.TID 0000.0001)  ploadbar=  1.01152753475308E+05
 cg2d: Sum(rhs),rhsMax =  -6.55796082324428E+01  1.14467338051031E+00
(PID.TID 0000.0001)  ploadbar=  1.01151646818731E+05
 cg2d: Sum(rhs),rhsMax =  -6.56182236507554E+01  1.14393379499367E+00
(PID.TID 0000.0001)  ploadbar=  1.01150540162154E+05
 cg2d: Sum(rhs),rhsMax =  -6.56518435478879E+01  1.14325139665962E+00
(PID.TID 0000.0001)  ploadbar=  1.01149433505577E+05
 cg2d: Sum(rhs),rhsMax =  -6.56834301104236E+01  1.14268614579557E+00
(PID.TID 0000.0001)  ploadbar=  1.01147846206732E+05
 cg2d: Sum(rhs),rhsMax =  -6.57185493928322E+01  1.14213626127429E+00
(PID.TID 0000.0001)  ploadbar=  1.01146258907886E+05
 cg2d: Sum(rhs),rhsMax =  -6.57540492787242E+01  1.14165609400386E+00
(PID.TID 0000.0001)  ploadbar=  1.01144671609040E+05
 cg2d: Sum(rhs),rhsMax =  -6.57885503783951E+01  1.14126947845391E+00
(PID.TID 0000.0001)  ploadbar=  1.01143084310195E+05
 cg2d: Sum(rhs),rhsMax =  -6.58219602260796E+01  1.14097765049281E+00
(PID.TID 0000.0001)  ploadbar=  1.01141497011349E+05
 cg2d: Sum(rhs),rhsMax =  -6.58545699104280E+01  1.14077530402339E+00
(PID.TID 0000.0001)  ploadbar=  1.01139909712504E+05
 cg2d: Sum(rhs),rhsMax =  -6.58952946118232E+01  1.14044141147602E+00
(PID.TID 0000.0001)  ploadbar=  1.01138328414534E+05
 cg2d: Sum(rhs),rhsMax =  -6.59381317701197E+01  1.14007734622127E+00
(PID.TID 0000.0001)      cg2d_init_res =   3.07767946371159E-01
(PID.TID 0000.0001)      cg2d_iters(min,last) =      -1     149
(PID.TID 0000.0001)      cg2d_last_res =   9.77354891771446E-08
(PID.TID 0000.0001) // =======================================================
(PID.TID 0000.0001) // Begin MONITOR dynamic field statistics
(PID.TID 0000.0001) // =======================================================
(PID.TID 0000.0001) %MON time_tsnumber                =                 12264
(PID.TID 0000.0001) %MON time_secondsf                =   4.4150400000000E+07
(PID.TID 0000.0001) %MON dynstat_eta_max              =   1.1592470198148E+00
(PID.TID 0000.0001) %MON dynstat_eta_min              =  -5.9721987386959E+00
(PID.TID 0000.0001) %MON dynstat_eta_mean             =   3.8048187995310E-02
(PID.TID 0000.0001) %MON dynstat_eta_sd               =   7.9259332279535E-01
(PID.TID 0000.0001) %MON dynstat_eta_del2             =   2.6133090785428E-04
(PID.TID 0000.0001) %MON dynstat_uvel_max             =   7.9530315706741E-01
(PID.TID 0000.0001) %MON dynstat_uvel_min             =  -9.4639955380807E-01
(PID.TID 0000.0001) %MON dynstat_uvel_mean            =   1.4477649266822E-03
(PID.TID 0000.0001) %MON dynstat_uvel_sd              =   2.0658870945044E-02
(PID.TID 0000.0001) %MON dynstat_uvel_del2            =   8.3876713237799E-06
(PID.TID 0000.0001) %MON dynstat_vvel_max             =   8.6080732778691E-01
(PID.TID 0000.0001) %MON dynstat_vvel_min             =  -9.9107620707836E-01
(PID.TID 0000.0001) %MON dynstat_vvel_mean            =   1.1511729233520E-03
(PID.TID 0000.0001) %MON dynstat_vvel_sd              =   2.1051828032732E-02
(PID.TID 0000.0001) %MON dynstat_vvel_del2            =   8.7425627756171E-06
(PID.TID 0000.0001) %MON dynstat_wvel_max             =   9.8980476727638E-04
(PID.TID 0000.0001) %MON dynstat_wvel_min             =  -8.5194152350618E-04
(PID.TID 0000.0001) %MON dynstat_wvel_mean            =  -2.6688850606473E-09
(PID.TID 0000.0001) %MON dynstat_wvel_sd              =   1.9264758230201E-05
(PID.TID 0000.0001) %MON dynstat_wvel_del2            =   1.5462719149180E-08
(PID.TID 0000.0001) %MON dynstat_theta_max            =   3.1954680378153E+01
(PID.TID 0000.0001) %MON dynstat_theta_min            =  -1.9824613689877E+00
(PID.TID 0000.0001) %MON dynstat_theta_mean           =   3.5851196451509E+00
(PID.TID 0000.0001) %MON dynstat_theta_sd             =   4.4406449052162E+00
(PID.TID 0000.0001) %MON dynstat_theta_del2           =   8.6984636344706E-05
(PID.TID 0000.0001) %MON dynstat_salt_max             =   4.0647919861197E+01
(PID.TID 0000.0001) %MON dynstat_salt_min             =   2.1800132932310E+01
(PID.TID 0000.0001) %MON dynstat_salt_mean            =   3.4727271542727E+01
(PID.TID 0000.0001) %MON dynstat_salt_sd              =   3.7557618855689E-01
(PID.TID 0000.0001) %MON dynstat_salt_del2            =   1.8917844517205E-05
(PID.TID 0000.0001) %MON dynstat_sst_max              =   3.1954680378153E+01
(PID.TID 0000.0001) %MON dynstat_sst_min              =  -1.9607583271151E+00
(PID.TID 0000.0001) %MON dynstat_sst_mean             =   1.8210068584750E+01
(PID.TID 0000.0001) %MON dynstat_sst_sd               =   1.0430773210670E+01
(PID.TID 0000.0001) %MON dynstat_sst_del2             =   6.0816391804798E-04
(PID.TID 0000.0001) %MON dynstat_sss_max              =   3.9476211834915E+01
(PID.TID 0000.0001) %MON dynstat_sss_min              =   2.1800132932310E+01
(PID.TID 0000.0001) %MON dynstat_sss_mean             =   3.4755433036727E+01
(PID.TID 0000.0001) %MON dynstat_sss_sd               =   1.1611453960811E+00
(PID.TID 0000.0001) %MON dynstat_sss_del2             =   3.0159277943210E-04
(PID.TID 0000.0001) %MON forcing_qnet_max             =   8.9696709476839E+02
(PID.TID 0000.0001) %MON forcing_qnet_min             =  -5.6742086862057E+02
(PID.TID 0000.0001) %MON forcing_qnet_mean            =   4.2016279463104E+01
(PID.TID 0000.0001) %MON forcing_qnet_sd              =   1.6354114817446E+02
(PID.TID 0000.0001) %MON forcing_qnet_del2            =   8.8365779565008E-02
(PID.TID 0000.0001) %MON forcing_qsw_max              =   4.9634133928860E+01
(PID.TID 0000.0001) %MON forcing_qsw_min              =  -6.8962575688705E+02
(PID.TID 0000.0001) %MON forcing_qsw_mean             =  -1.1566160253564E+02
(PID.TID 0000.0001) %MON forcing_qsw_sd               =   1.4593810220905E+02
(PID.TID 0000.0001) %MON forcing_qsw_del2             =   5.4262797737055E-02
(PID.TID 0000.0001) %MON forcing_empmr_max            =   2.2904249672391E-03
(PID.TID 0000.0001) %MON forcing_empmr_min            =  -3.1695470195211E-03
(PID.TID 0000.0001) %MON forcing_empmr_mean           =  -3.5946644970337E-06
(PID.TID 0000.0001) %MON forcing_empmr_sd             =   9.8954770190989E-05
(PID.TID 0000.0001) %MON forcing_empmr_del2           =   2.6131698762639E-07
(PID.TID 0000.0001) %MON forcing_fu_max               =   1.2695122758547E+00
(PID.TID 0000.0001) %MON forcing_fu_min               =  -6.8735981980960E-01
(PID.TID 0000.0001) %MON forcing_fu_mean              =   6.3337870028634E-03
(PID.TID 0000.0001) %MON forcing_fu_sd                =   1.3384274750370E-01
(PID.TID 0000.0001) %MON forcing_fu_del2              =   6.2855835073616E-05
(PID.TID 0000.0001) %MON forcing_fv_max               =   7.0823138579801E-01
(PID.TID 0000.0001) %MON forcing_fv_min               =  -5.6532067060471E-01
(PID.TID 0000.0001) %MON forcing_fv_mean              =   2.5857501214259E-03
(PID.TID 0000.0001) %MON forcing_fv_sd                =   1.1175937466831E-01
(PID.TID 0000.0001) %MON forcing_fv_del2              =   6.0509225642860E-05
(PID.TID 0000.0001) %MON trAdv_CFL_u_max              =   5.5008523369536E-02
(PID.TID 0000.0001) %MON trAdv_CFL_v_max              =   6.0862947914420E-02
(PID.TID 0000.0001) %MON trAdv_CFL_w_max              =   1.2294928961935E-01
(PID.TID 0000.0001) %MON advcfl_uvel_max              =   4.7157048370741E-02
(PID.TID 0000.0001) %MON advcfl_vvel_max              =   6.3481479923469E-02
(PID.TID 0000.0001) %MON advcfl_wvel_max              =   1.0546992876275E-01
(PID.TID 0000.0001) %MON advcfl_W_hf_max              =   1.1058958713158E-01
(PID.TID 0000.0001) %MON pe_b_mean                    =   1.3335790766786E-03
(PID.TID 0000.0001) %MON ke_max                       =   5.3654777837932E-01
(PID.TID 0000.0001) %MON ke_mean                      =   4.2114189629146E-04
(PID.TID 0000.0001) %MON ke_vol                       =   1.3350114942156E+18
(PID.TID 0000.0001) %MON vort_r_min                   =  -2.3544478322691E-05
(PID.TID 0000.0001) %MON vort_r_max                   =   2.2458947583565E-05
(PID.TID 0000.0001) %MON vort_a_mean                  =  -1.9727725688088E-05
(PID.TID 0000.0001) %MON vort_a_sd                    =   7.4542977647876E-05
(PID.TID 0000.0001) %MON vort_p_mean                  =  -2.1760108887280E-05
(PID.TID 0000.0001) %MON vort_p_sd                    =   9.7248058924458E-05
(PID.TID 0000.0001) %MON surfExpan_theta_mean         =  -1.6229480851984E-07
(PID.TID 0000.0001) %MON surfExpan_salt_mean          =   3.3701113862296E-08
(PID.TID 0000.0001) // =======================================================
(PID.TID 0000.0001) // End MONITOR dynamic field statistics
(PID.TID 0000.0001) // =======================================================
(PID.TID 0000.0001)  ploadbar=  1.01136747116564E+05
(PID.TID 0000.0001) %SBO sbo_mass                     =   1.3737574977435E+21
(PID.TID 0000.0001) %SBO sbo_mass_fw                  =   4.4682372993179E+16
(PID.TID 0000.0001) %SBO sbo_zoamc                    =   1.1857357299720E+25
(PID.TID 0000.0001) %SBO sbo_zoamp                    =   2.9276657975413E+30
(PID.TID 0000.0001) // =======================================================
(PID.TID 0000.0001) // Begin MONITOR SEAICE statistics
(PID.TID 0000.0001) // =======================================================
(PID.TID 0000.0001) %MON seaice_tsnumber              =                 12264
(PID.TID 0000.0001) %MON seaice_time_sec              =   4.4150400000000E+07
(PID.TID 0000.0001) %MON seaice_uice_max              =   4.0000000000000E-01
(PID.TID 0000.0001) %MON seaice_uice_min              =  -4.0000000000000E-01
(PID.TID 0000.0001) %MON seaice_uice_mean             =  -5.6839649534428E-03
(PID.TID 0000.0001) %MON seaice_uice_sd               =   1.8120403012268E-01
(PID.TID 0000.0001) %MON seaice_uice_del2             =   1.4154184197446E-04
(PID.TID 0000.0001) %MON seaice_vice_max              =   4.0000000000000E-01
(PID.TID 0000.0001) %MON seaice_vice_min              =  -4.0000000000000E-01
(PID.TID 0000.0001) %MON seaice_vice_mean             =  -1.2226810386998E-02
(PID.TID 0000.0001) %MON seaice_vice_sd               =   1.8074137656993E-01
(PID.TID 0000.0001) %MON seaice_vice_del2             =   1.4313644350699E-04
(PID.TID 0000.0001) %MON seaice_area_max              =   9.7000000000000E-01
(PID.TID 0000.0001) %MON seaice_area_min              =   0.0000000000000E+00
(PID.TID 0000.0001) %MON seaice_area_mean             =   6.2605113197994E-02
(PID.TID 0000.0001) %MON seaice_area_sd               =   2.2929690927244E-01
(PID.TID 0000.0001) %MON seaice_area_del2             =   2.1104635778628E-04
(PID.TID 0000.0001) %MON seaice_heff_max              =   5.8024820385145E+00
(PID.TID 0000.0001) %MON seaice_heff_min              =   0.0000000000000E+00
(PID.TID 0000.0001) %MON seaice_heff_mean             =   8.9647729118665E-02
(PID.TID 0000.0001) %MON seaice_heff_sd               =   4.2284289226589E-01
(PID.TID 0000.0001) %MON seaice_heff_del2             =   2.7889721485900E-04
(PID.TID 0000.0001) %MON seaice_hsnow_max             =   1.2272853135853E+00
(PID.TID 0000.0001) %MON seaice_hsnow_min             =  -4.2962353339960E-05
(PID.TID 0000.0001) %MON seaice_hsnow_mean            =   1.2349231864866E-02
(PID.TID 0000.0001) %MON seaice_hsnow_sd              =   5.9725362341095E-02
(PID.TID 0000.0001) %MON seaice_hsnow_del2            =   5.1099223283545E-05
(PID.TID 0000.0001) // =======================================================
(PID.TID 0000.0001) // End MONITOR SEAICE statistics
(PID.TID 0000.0001) // =======================================================
(PID.TID 0000.0001) // =======================================================
(PID.TID 0000.0001) // Begin MONITOR EXF statistics
(PID.TID 0000.0001) // =======================================================
(PID.TID 0000.0001) %MON exf_tsnumber                 =                 12264
(PID.TID 0000.0001) %MON exf_time_sec                 =   4.4150400000000E+07
(PID.TID 0000.0001) %MON exf_ustress_max              =   1.2865241765976E+00
(PID.TID 0000.0001) %MON exf_ustress_min              =  -8.1635534763336E-01
(PID.TID 0000.0001) %MON exf_ustress_mean             =   5.9774967967754E-03
(PID.TID 0000.0001) %MON exf_ustress_sd               =   1.3468711429316E-01
(PID.TID 0000.0001) %MON exf_ustress_del2             =   8.0390285477207E-05
(PID.TID 0000.0001) %MON exf_vstress_max              =   9.0066087764781E-01
(PID.TID 0000.0001) %MON exf_vstress_min              =  -5.9247130155563E-01
(PID.TID 0000.0001) %MON exf_vstress_mean             =   2.5268524573670E-03
(PID.TID 0000.0001) %MON exf_vstress_sd               =   1.1121150225391E-01
(PID.TID 0000.0001) %MON exf_vstress_del2             =   7.5919952459886E-05
(PID.TID 0000.0001) %MON exf_hflux_max                =   1.2851502052520E+03
(PID.TID 0000.0001) %MON exf_hflux_min                =  -5.3385250947026E+02
(PID.TID 0000.0001) %MON exf_hflux_mean               =   4.3377374500681E+01
(PID.TID 0000.0001) %MON exf_hflux_sd                 =   1.8569039722470E+02
(PID.TID 0000.0001) %MON exf_hflux_del2               =   4.7768567205961E-01
(PID.TID 0000.0001) %MON exf_sflux_max                =   2.0645157074226E-07
(PID.TID 0000.0001) %MON exf_sflux_min                =  -3.1590253408225E-06
(PID.TID 0000.0001) %MON exf_sflux_mean               =  -2.6174689899504E-09
(PID.TID 0000.0001) %MON exf_sflux_sd                 =   8.7211533084789E-08
(PID.TID 0000.0001) %MON exf_sflux_del2               =   2.3046794220625E-10
(PID.TID 0000.0001) %MON exf_wspeed_max               =   2.1071719169617E+01
(PID.TID 0000.0001) %MON exf_wspeed_min               =   5.4447671771049E-01
(PID.TID 0000.0001) %MON exf_wspeed_mean              =   7.3060564547231E+00
(PID.TID 0000.0001) %MON exf_wspeed_sd                =   3.2609362541269E+00
(PID.TID 0000.0001) %MON exf_wspeed_del2              =   1.7570801186250E-02
(PID.TID 0000.0001) %MON exf_atemp_max                =   3.1236984863281E+02
(PID.TID 0000.0001) %MON exf_atemp_min                =   2.2243785896301E+02
(PID.TID 0000.0001) %MON exf_atemp_mean               =   2.8988432183719E+02
(PID.TID 0000.0001) %MON exf_atemp_sd                 =   1.1282403598058E+01
(PID.TID 0000.0001) %MON exf_atemp_del2               =   3.5256817633431E-02
(PID.TID 0000.0001) %MON exf_aqh_max                  =   2.5599951855838E-02
(PID.TID 0000.0001) %MON exf_aqh_min                  =  -8.1001237504097E-06
(PID.TID 0000.0001) %MON exf_aqh_mean                 =   1.1203668068331E-02
(PID.TID 0000.0001) %MON exf_aqh_sd                   =   5.7744294866076E-03
(PID.TID 0000.0001) %MON exf_aqh_del2                 =   2.1125876073749E-05
(PID.TID 0000.0001) %MON exf_lwflux_max               =   2.2107741918442E+02
(PID.TID 0000.0001) %MON exf_lwflux_min               =  -5.0162240904057E+01
(PID.TID 0000.0001) %MON exf_lwflux_mean              =   4.3381497274238E+01
(PID.TID 0000.0001) %MON exf_lwflux_sd                =   2.4858686790992E+01
(PID.TID 0000.0001) %MON exf_lwflux_del2              =   1.1301558114629E-01
(PID.TID 0000.0001) %MON exf_evap_max                 =   2.7231878255960E-07
(PID.TID 0000.0001) %MON exf_evap_min                 =  -2.2073271705572E-08
(PID.TID 0000.0001) %MON exf_evap_mean                =   4.2401896695496E-08
(PID.TID 0000.0001) %MON exf_evap_sd                  =   2.9503459402753E-08
(PID.TID 0000.0001) %MON exf_evap_del2                =   9.5705079037045E-11
(PID.TID 0000.0001) %MON exf_precip_max               =   1.5121862020351E-06
(PID.TID 0000.0001) %MON exf_precip_min               =  -2.6223814231230E-08
(PID.TID 0000.0001) %MON exf_precip_mean              =   4.0368094811504E-08
(PID.TID 0000.0001) %MON exf_precip_sd                =   7.0632203047813E-08
(PID.TID 0000.0001) %MON exf_precip_del2              =   2.0068203067563E-10
(PID.TID 0000.0001) %MON exf_swflux_max               =   5.2556553562368E+01
(PID.TID 0000.0001) %MON exf_swflux_min               =  -6.2813253172984E+02
(PID.TID 0000.0001) %MON exf_swflux_mean              =  -1.2635579363569E+02
(PID.TID 0000.0001) %MON exf_swflux_sd                =   1.4801263704396E+02
(PID.TID 0000.0001) %MON exf_swflux_del2              =   3.6903288576310E-01
(PID.TID 0000.0001) %MON exf_swdown_max               =   6.7794329833984E+02
(PID.TID 0000.0001) %MON exf_swdown_min               =  -6.6663272857666E+01
(PID.TID 0000.0001) %MON exf_swdown_mean              =   1.3737213459820E+02
(PID.TID 0000.0001) %MON exf_swdown_sd                =   1.6009932505260E+02
(PID.TID 0000.0001) %MON exf_swdown_del2              =   4.0177649593747E-01
(PID.TID 0000.0001) %MON exf_lwdown_max               =   4.7118644714355E+02
(PID.TID 0000.0001) %MON exf_lwdown_min               =   7.9124198913574E+01
(PID.TID 0000.0001) %MON exf_lwdown_mean              =   3.6697663210888E+02
(PID.TID 0000.0001) %MON exf_lwdown_sd                =   5.8464628006844E+01
(PID.TID 0000.0001) %MON exf_lwdown_del2              =   7.0356083031524E-01
(PID.TID 0000.0001) %MON exf_apressure_max            =   1.0354763671875E+05
(PID.TID 0000.0001) %MON exf_apressure_min            =   9.4401535156250E+04
(PID.TID 0000.0001) %MON exf_apressure_mean           =   1.0113516581859E+05
(PID.TID 0000.0001) %MON exf_apressure_sd             =   1.1485221914056E+03
(PID.TID 0000.0001) %MON exf_apressure_del2           =   2.0698477053185E+02
(PID.TID 0000.0001) %MON exf_runoff_max               =   3.1856565641885E-06
(PID.TID 0000.0001) %MON exf_runoff_min               =   0.0000000000000E+00
(PID.TID 0000.0001) %MON exf_runoff_mean              =   4.6512708739432E-09
(PID.TID 0000.0001) %MON exf_runoff_sd                =   4.0722969529259E-08
(PID.TID 0000.0001) %MON exf_runoff_del2              =   1.1789714852047E-10
(PID.TID 0000.0001) // =======================================================
(PID.TID 0000.0001) // End MONITOR EXF statistics
(PID.TID 0000.0001) // =======================================================
 cg2d: Sum(rhs),rhsMax =  -6.59780370835545E+01  1.13977436501087E+00
(PID.TID 0000.0001)  ploadbar=  1.01135165818595E+05
 cg2d: Sum(rhs),rhsMax =  -6.60173358526593E+01  1.13949388875145E+00
(PID.TID 0000.0001)  ploadbar=  1.01133584520625E+05
 cg2d: Sum(rhs),rhsMax =  -6.60568939520825E+01  1.13922266794548E+00
(PID.TID 0000.0001)  ploadbar=  1.01132003222655E+05
 cg2d: Sum(rhs),rhsMax =  -6.60977997954614E+01  1.13894200202607E+00
(PID.TID 0000.0001)  ploadbar=  1.01130421924686E+05
 cg2d: Sum(rhs),rhsMax =  -6.60686627879883E+01  1.13988205920730E+00
(PID.TID 0000.0001)  ploadbar=  1.01127996405599E+05
 cg2d: Sum(rhs),rhsMax =  -6.60450446258716E+01  1.14073350293632E+00
(PID.TID 0000.0001)  ploadbar=  1.01125570886512E+05
 cg2d: Sum(rhs),rhsMax =  -6.60203937053802E+01  1.14160824994400E+00
(PID.TID 0000.0001)  ploadbar=  1.01123145367425E+05
 cg2d: Sum(rhs),rhsMax =  -6.59973129024926E+01  1.14245913207806E+00
(PID.TID 0000.0001)  ploadbar=  1.01120719848339E+05
 cg2d: Sum(rhs),rhsMax =  -6.59782120387734E+01  1.14324352625590E+00
(PID.TID 0000.0001)  ploadbar=  1.01118294329252E+05
 cg2d: Sum(rhs),rhsMax =  -6.59609653268024E+01  1.14399563296436E+00
(PID.TID 0000.0001)  ploadbar=  1.01115868810165E+05
 cg2d: Sum(rhs),rhsMax =  -6.59303799526063E+01  1.14493609339905E+00
(PID.TID 0000.0001)  ploadbar=  1.01113846276836E+05
 cg2d: Sum(rhs),rhsMax =  -6.58937936148464E+01  1.14593653614444E+00
(PID.TID 0000.0001)  ploadbar=  1.01111823743507E+05
 cg2d: Sum(rhs),rhsMax =  -6.58515409520749E+01  1.14699102793229E+00
(PID.TID 0000.0001)  ploadbar=  1.01109801210178E+05
 cg2d: Sum(rhs),rhsMax =  -6.58040825872473E+01  1.14809144221211E+00
(PID.TID 0000.0001)  ploadbar=  1.01107778676849E+05
 cg2d: Sum(rhs),rhsMax =  -6.57516002817294E+01  1.14924098478808E+00
(PID.TID 0000.0001)  ploadbar=  1.01105756143521E+05
 cg2d: Sum(rhs),rhsMax =  -6.01140085266383E+01  1.25723390361973E+00
(PID.TID 0000.0001)  ploadbar=  1.01103733610192E+05
 cg2d: Sum(rhs),rhsMax =  -5.34532485539059E+01  1.41423107384221E+00
(PID.TID 0000.0001)  ploadbar=  1.01101930753521E+05
 cg2d: Sum(rhs),rhsMax =  -4.75217454399074E+01  1.59122476955451E+00
(PID.TID 0000.0001)  ploadbar=  1.01100127896850E+05
 cg2d: Sum(rhs),rhsMax =  -4.37056163590717E+01  1.73078194466900E+00
(PID.TID 0000.0001)  ploadbar=  1.01098325040179E+05
 cg2d: Sum(rhs),rhsMax =  -4.07251368443201E+01  1.85822816482950E+00
(PID.TID 0000.0001)  ploadbar=  1.01096522183508E+05
 cg2d: Sum(rhs),rhsMax =  -3.83108991606045E+01  1.97627703074404E+00
(PID.TID 0000.0001)  ploadbar=  1.01094719326837E+05
 cg2d: Sum(rhs),rhsMax =  -3.63505435685789E+01  2.08398494684012E+00
(PID.TID 0000.0001)  ploadbar=  1.01092916470166E+05
 cg2d: Sum(rhs),rhsMax =  -3.47889002235382E+01  2.17869782408452E+00
(PID.TID 0000.0001)  ploadbar=  1.01092494637980E+05
 cg2d: Sum(rhs),rhsMax =  -3.34831132529330E+01  2.26485241273313E+00
(PID.TID 0000.0001)  ploadbar=  1.01092072805793E+05
 cg2d: Sum(rhs),rhsMax =  -3.24341430162740E+01  2.33931237415169E+00
(PID.TID 0000.0001)  ploadbar=  1.01091650973607E+05
 cg2d: Sum(rhs),rhsMax =  -3.15939773400752E+01  2.40275955400522E+00
(PID.TID 0000.0001)  ploadbar=  1.01091229141420E+05
 cg2d: Sum(rhs),rhsMax =  -3.09336825373928E+01  2.45531153495909E+00
(PID.TID 0000.0001)  ploadbar=  1.01090807309233E+05
 cg2d: Sum(rhs),rhsMax =  -3.04303869258332E+01  2.49719977975620E+00
(PID.TID 0000.0001)  ploadbar=  1.01090385477047E+05
 cg2d: Sum(rhs),rhsMax =  -3.00704849535747E+01  2.52837300957762E+00
(PID.TID 0000.0001)  ploadbar=  1.01090068061489E+05
 cg2d: Sum(rhs),rhsMax =  -2.97788739517982E+01  2.55440937711508E+00
(PID.TID 0000.0001)  ploadbar=  1.01089750645932E+05
 cg2d: Sum(rhs),rhsMax =  -2.95438525313545E+01  2.57599319837093E+00
(PID.TID 0000.0001)  ploadbar=  1.01089433230375E+05
 cg2d: Sum(rhs),rhsMax =  -2.93764025443665E+01  2.59192116289677E+00
(PID.TID 0000.0001)  ploadbar=  1.01089115814818E+05
 cg2d: Sum(rhs),rhsMax =  -2.92760285419384E+01  2.60202905343869E+00
(PID.TID 0000.0001)  ploadbar=  1.01088798399260E+05
 cg2d: Sum(rhs),rhsMax =  -2.92430983743294E+01  2.60615137303118E+00
(PID.TID 0000.0001)  ploadbar=  1.01088480983703E+05
 cg2d: Sum(rhs),rhsMax =  -2.92519205014568E+01  2.60636886376364E+00
(PID.TID 0000.0001)  ploadbar=  1.01088112261272E+05
 cg2d: Sum(rhs),rhsMax =  -2.93094280635624E+01  2.60206750843429E+00
(PID.TID 0000.0001)  ploadbar=  1.01087743538840E+05
 cg2d: Sum(rhs),rhsMax =  -2.94054719540359E+01  2.59419701425736E+00
(PID.TID 0000.0001)  ploadbar=  1.01087374816409E+05
 cg2d: Sum(rhs),rhsMax =  -2.95345202626039E+01  2.58331762819287E+00
(PID.TID 0000.0001)  ploadbar=  1.01087006093977E+05
 cg2d: Sum(rhs),rhsMax =  -2.97102656644940E+01  2.56832692722090E+00
(PID.TID 0000.0001)  ploadbar=  1.01086637371546E+05
 cg2d: Sum(rhs),rhsMax =  -3.00776125261989E+01  2.53709162383844E+00
(PID.TID 0000.0001)  ploadbar=  1.01086268649114E+05
 cg2d: Sum(rhs),rhsMax =  -3.05410184143874E+01  2.49881387319198E+00
(PID.TID 0000.0001)  ploadbar=  1.01086035524303E+05
 cg2d: Sum(rhs),rhsMax =  -3.10952558870280E+01  2.45457386205853E+00
(PID.TID 0000.0001)  ploadbar=  1.01085802399491E+05
 cg2d: Sum(rhs),rhsMax =  -3.17180906757431E+01  2.40674942062097E+00
(PID.TID 0000.0001)  ploadbar=  1.01085569274679E+05
 cg2d: Sum(rhs),rhsMax =  -3.24487500292046E+01  2.35300400287222E+00
(PID.TID 0000.0001)  ploadbar=  1.01085336149867E+05
 cg2d: Sum(rhs),rhsMax =  -3.32708165784865E+01  2.29538487365904E+00
(PID.TID 0000.0001)  ploadbar=  1.01085103025056E+05
 cg2d: Sum(rhs),rhsMax =  -3.40620208098480E+01  2.24265667561189E+00
(PID.TID 0000.0001)  ploadbar=  1.01084869900244E+05
 cg2d: Sum(rhs),rhsMax =  -3.48518754978988E+01  2.19234417308003E+00
(PID.TID 0000.0001)  ploadbar=  1.01085249468662E+05
 cg2d: Sum(rhs),rhsMax =  -3.56400835434827E+01  2.14429348986176E+00
(PID.TID 0000.0001)  ploadbar=  1.01085629037079E+05
 cg2d: Sum(rhs),rhsMax =  -3.64182835565929E+01  2.09883552069700E+00
(PID.TID 0000.0001)  ploadbar=  1.01086008605497E+05
 cg2d: Sum(rhs),rhsMax =  -3.69562174659743E+01  2.06858078405737E+00
(PID.TID 0000.0001)  ploadbar=  1.01086388173915E+05
 cg2d: Sum(rhs),rhsMax =  -3.73633434674460E+01  2.04627738715655E+00
(PID.TID 0000.0001)  ploadbar=  1.01086767742332E+05
 cg2d: Sum(rhs),rhsMax =  -3.79153533330419E+01  2.01666400215171E+00
(PID.TID 0000.0001)  ploadbar=  1.01087147310750E+05
 cg2d: Sum(rhs),rhsMax =  -3.84561520828647E+01  1.98850673609870E+00
(PID.TID 0000.0001)  ploadbar=  1.01087972061712E+05
 cg2d: Sum(rhs),rhsMax =  -3.83977937744356E+01  1.99174453948879E+00
(PID.TID 0000.0001)  ploadbar=  1.01088796812674E+05
 cg2d: Sum(rhs),rhsMax =  -3.83490970967550E+01  1.99450051698741E+00
(PID.TID 0000.0001)  ploadbar=  1.01089621563636E+05
 cg2d: Sum(rhs),rhsMax =  -3.83474949181422E+01  1.99482348269195E+00
(PID.TID 0000.0001)  ploadbar=  1.01090446314598E+05
 cg2d: Sum(rhs),rhsMax =  -3.83616806067337E+01  1.99434216342744E+00
(PID.TID 0000.0001)  ploadbar=  1.01091271065560E+05
 cg2d: Sum(rhs),rhsMax =  -3.84039720324213E+01  1.99241848013929E+00
(PID.TID 0000.0001)  ploadbar=  1.01092095816521E+05
 cg2d: Sum(rhs),rhsMax =  -3.84146443662151E+01  1.99203781410472E+00
(PID.TID 0000.0001)  ploadbar=  1.01092457622035E+05
 cg2d: Sum(rhs),rhsMax =  -3.83914788586331E+01  1.99330424622188E+00
(PID.TID 0000.0001)  ploadbar=  1.01092819427548E+05
 cg2d: Sum(rhs),rhsMax =  -3.83366474961239E+01  1.99611275287632E+00
(PID.TID 0000.0001)  ploadbar=  1.01093181233061E+05
 cg2d: Sum(rhs),rhsMax =  -3.82401234471859E+01  2.00100318199470E+00
(PID.TID 0000.0001)  ploadbar=  1.01093543038574E+05
 cg2d: Sum(rhs),rhsMax =  -3.81287179653753E+01  2.00660179384595E+00
(PID.TID 0000.0001)  ploadbar=  1.01093904844088E+05
 cg2d: Sum(rhs),rhsMax =  -3.80094621532379E+01  2.01255567039391E+00
(PID.TID 0000.0001)  ploadbar=  1.01094266649601E+05
 cg2d: Sum(rhs),rhsMax =  -3.79013915010385E+01  2.01809280263096E+00
(PID.TID 0000.0001)  ploadbar=  1.01093969936669E+05
 cg2d: Sum(rhs),rhsMax =  -3.78113419669113E+01  2.02282764528106E+00
(PID.TID 0000.0001)  ploadbar=  1.01093673223737E+05
 cg2d: Sum(rhs),rhsMax =  -3.77449626907230E+01  2.02644396727289E+00
(PID.TID 0000.0001)  ploadbar=  1.01093376510805E+05
 cg2d: Sum(rhs),rhsMax =  -3.77095652036756E+01  2.02853705646985E+00
(PID.TID 0000.0001)  ploadbar=  1.01093079797873E+05
 cg2d: Sum(rhs),rhsMax =  -3.77098100248528E+01  2.02884600697763E+00
(PID.TID 0000.0001)  ploadbar=  1.01092783084941E+05
 cg2d: Sum(rhs),rhsMax =  -3.77443100777299E+01  2.02744409902769E+00
(PID.TID 0000.0001)  ploadbar=  1.01092486372009E+05
 cg2d: Sum(rhs),rhsMax =  -3.78054830525165E+01  2.02462094298089E+00
(PID.TID 0000.0001)  ploadbar=  1.01092940804430E+05
 cg2d: Sum(rhs),rhsMax =  -3.78990294794828E+01  2.02007897707869E+00
(PID.TID 0000.0001)  ploadbar=  1.01093395236851E+05
 cg2d: Sum(rhs),rhsMax =  -3.80196503091425E+01  2.01412486265144E+00
(PID.TID 0000.0001)  ploadbar=  1.01093849669272E+05
 cg2d: Sum(rhs),rhsMax =  -3.81577390742499E+01  2.00729590612462E+00
(PID.TID 0000.0001)  ploadbar=  1.01094304101693E+05
 cg2d: Sum(rhs),rhsMax =  -3.83069825156309E+01  1.99994279530389E+00
(PID.TID 0000.0001)  ploadbar=  1.01094758534114E+05
 cg2d: Sum(rhs),rhsMax =  -3.84593629128716E+01  1.99250009452327E+00
(PID.TID 0000.0001)  ploadbar=  1.01095212966535E+05
 cg2d: Sum(rhs),rhsMax =  -3.85872877609879E+01  1.98646229496208E+00
(PID.TID 0000.0001)  ploadbar=  1.01096361813528E+05
 cg2d: Sum(rhs),rhsMax =  -3.87038556545756E+01  1.98112367190811E+00
(PID.TID 0000.0001)  ploadbar=  1.01097510660522E+05
 cg2d: Sum(rhs),rhsMax =  -3.88312696361374E+01  1.97534227219341E+00
(PID.TID 0000.0001)  ploadbar=  1.01098659507516E+05
 cg2d: Sum(rhs),rhsMax =  -3.89579381858389E+01  1.96971697523177E+00
(PID.TID 0000.0001)  ploadbar=  1.01099808354509E+05
 cg2d: Sum(rhs),rhsMax =  -3.91360302603247E+01  1.96163293980815E+00
(PID.TID 0000.0001)  ploadbar=  1.01100957201503E+05
 cg2d: Sum(rhs),rhsMax =  -3.93634474372281E+01  1.95126945503294E+00
(PID.TID 0000.0001)  ploadbar=  1.01102106048497E+05
 cg2d: Sum(rhs),rhsMax =  -3.96345630627084E+01  1.93873073021761E+00
(PID.TID 0000.0001)  ploadbar=  1.01102552006912E+05
 cg2d: Sum(rhs),rhsMax =  -3.99867342348873E+01  1.92229463098631E+00
(PID.TID 0000.0001)  ploadbar=  1.01102997965326E+05
 cg2d: Sum(rhs),rhsMax =  -4.04317393503912E+01  1.90160862280339E+00
(PID.TID 0000.0001)  ploadbar=  1.01103443923741E+05
 cg2d: Sum(rhs),rhsMax =  -4.09611287997221E+01  1.87734101984936E+00
(PID.TID 0000.0001)  ploadbar=  1.01103889882156E+05
 cg2d: Sum(rhs),rhsMax =  -4.15709118430431E+01  1.84995943570183E+00
(PID.TID 0000.0001)  ploadbar=  1.01104335840571E+05
 cg2d: Sum(rhs),rhsMax =  -4.22585948885638E+01  1.81986161610414E+00
(PID.TID 0000.0001)  ploadbar=  1.01104781798986E+05
 cg2d: Sum(rhs),rhsMax =  -4.30442001480713E+01  1.78671680378901E+00
(PID.TID 0000.0001)  ploadbar=  1.01104262247216E+05
 cg2d: Sum(rhs),rhsMax =  -4.39286336934009E+01  1.75087302326129E+00
(PID.TID 0000.0001)  ploadbar=  1.01103742695446E+05
 cg2d: Sum(rhs),rhsMax =  -4.48980781174763E+01  1.71325606654569E+00
(PID.TID 0000.0001)  ploadbar=  1.01103223143676E+05
 cg2d: Sum(rhs),rhsMax =  -4.59222630607385E+01  1.67529235922166E+00
(PID.TID 0000.0001)  ploadbar=  1.01102703591906E+05
 cg2d: Sum(rhs),rhsMax =  -4.69599431314739E+01  1.63858236554922E+00
(PID.TID 0000.0001)  ploadbar=  1.01102184040136E+05
 cg2d: Sum(rhs),rhsMax =  -4.79620477502118E+01  1.60472671958623E+00
(PID.TID 0000.0001)  ploadbar=  1.01101664488366E+05
 cg2d: Sum(rhs),rhsMax =  -4.88989868436761E+01  1.57433530936237E+00
(PID.TID 0000.0001)  ploadbar=  1.01100879470202E+05
 cg2d: Sum(rhs),rhsMax =  -4.97052037326677E+01  1.54912703118102E+00
(PID.TID 0000.0001)  ploadbar=  1.01100094452038E+05
 cg2d: Sum(rhs),rhsMax =  -5.03414564634754E+01  1.52985429582135E+00
(PID.TID 0000.0001)  ploadbar=  1.01099309433874E+05
 cg2d: Sum(rhs),rhsMax =  -5.07892256707195E+01  1.51666091598071E+00
(PID.TID 0000.0001)  ploadbar=  1.01098524415710E+05
 cg2d: Sum(rhs),rhsMax =  -5.10578345682358E+01  1.50897188650826E+00
(PID.TID 0000.0001)  ploadbar=  1.01097739397546E+05
 cg2d: Sum(rhs),rhsMax =  -5.11845187711417E+01  1.50552480724602E+00
(PID.TID 0000.0001)  ploadbar=  1.01096954379382E+05
 cg2d: Sum(rhs),rhsMax =  -5.12260779604151E+01  1.50464992364337E+00
(PID.TID 0000.0001)  ploadbar=  1.01097866247728E+05
 cg2d: Sum(rhs),rhsMax =  -5.12024051622962E+01  1.50574282224872E+00
(PID.TID 0000.0001)  ploadbar=  1.01098778116075E+05
 cg2d: Sum(rhs),rhsMax =  -5.11538138055770E+01  1.50762509646534E+00
(PID.TID 0000.0001)  ploadbar=  1.01099689984422E+05
 cg2d: Sum(rhs),rhsMax =  -5.13347406317316E+01  1.50281781138909E+00
(PID.TID 0000.0001)  ploadbar=  1.01100601852768E+05
 cg2d: Sum(rhs),rhsMax =  -5.15414862025282E+01  1.49735052245501E+00
(PID.TID 0000.0001)  ploadbar=  1.01101513721115E+05
 cg2d: Sum(rhs),rhsMax =  -5.17820022594479E+01  1.49101368721740E+00
(PID.TID 0000.0001)  ploadbar=  1.01102425589462E+05
 cg2d: Sum(rhs),rhsMax =  -5.20472247466178E+01  1.48396948176425E+00
(PID.TID 0000.0001)  ploadbar=  1.01101447620318E+05
 cg2d: Sum(rhs),rhsMax =  -5.23423441862397E+01  1.47609052959397E+00
(PID.TID 0000.0001)  ploadbar=  1.01100469651175E+05
 cg2d: Sum(rhs),rhsMax =  -5.26625924722279E+01  1.46753966978425E+00
(PID.TID 0000.0001)  ploadbar=  1.01099491682031E+05
 cg2d: Sum(rhs),rhsMax =  -5.29843632144550E+01  1.45899308890241E+00
(PID.TID 0000.0001)  ploadbar=  1.01098513712888E+05
 cg2d: Sum(rhs),rhsMax =  -5.23350176812736E+01  1.47741133671894E+00
(PID.TID 0000.0001)  ploadbar=  1.01097535743744E+05
 cg2d: Sum(rhs),rhsMax =  -5.14064612479434E+01  1.50436680320557E+00
(PID.TID 0000.0001)  ploadbar=  1.01096557774600E+05
 cg2d: Sum(rhs),rhsMax =  -5.05821654668395E+01  1.52920190105085E+00
(PID.TID 0000.0001)  ploadbar=  1.01095417408052E+05
 cg2d: Sum(rhs),rhsMax =  -4.98206439577841E+01  1.55293802109328E+00
(PID.TID 0000.0001)  ploadbar=  1.01094277041504E+05
 cg2d: Sum(rhs),rhsMax =  -4.91016038683218E+01  1.57608441179170E+00
(PID.TID 0000.0001)  ploadbar=  1.01093136674955E+05
 cg2d: Sum(rhs),rhsMax =  -4.84659770951304E+01  1.59720264823398E+00
(PID.TID 0000.0001)  ploadbar=  1.01091996308407E+05
 cg2d: Sum(rhs),rhsMax =  -4.79013155038268E+01  1.61652538319971E+00
(PID.TID 0000.0001)  ploadbar=  1.01090855941858E+05
 cg2d: Sum(rhs),rhsMax =  -4.73868952409684E+01  1.63461948310036E+00
(PID.TID 0000.0001)  ploadbar=  1.01089715575310E+05
 cg2d: Sum(rhs),rhsMax =  -4.69471540108459E+01  1.65043456157441E+00
(PID.TID 0000.0001)  ploadbar=  1.01088917077108E+05
 cg2d: Sum(rhs),rhsMax =  -4.65675960741053E+01  1.66434542282251E+00
(PID.TID 0000.0001)  ploadbar=  1.01088118578906E+05
 cg2d: Sum(rhs),rhsMax =  -4.62613233370785E+01  1.67578215051737E+00
(PID.TID 0000.0001)  ploadbar=  1.01087320080703E+05
 cg2d: Sum(rhs),rhsMax =  -4.60174373905367E+01  1.68504546178872E+00
(PID.TID 0000.0001)  ploadbar=  1.01086521582501E+05
 cg2d: Sum(rhs),rhsMax =  -4.58371225140533E+01  1.69202419610506E+00
(PID.TID 0000.0001)  ploadbar=  1.01085723084299E+05
 cg2d: Sum(rhs),rhsMax =  -4.57273833437987E+01  1.69640619269629E+00
(PID.TID 0000.0001)  ploadbar=  1.01084924586097E+05
 cg2d: Sum(rhs),rhsMax =  -4.58682256776827E+01  1.69156495643199E+00
(PID.TID 0000.0001)  ploadbar=  1.01084589394568E+05
 cg2d: Sum(rhs),rhsMax =  -4.61487115937323E+01  1.68168888719396E+00
(PID.TID 0000.0001)  ploadbar=  1.01084254203040E+05
 cg2d: Sum(rhs),rhsMax =  -4.65407491463090E+01  1.66796505070496E+00
(PID.TID 0000.0001)  ploadbar=  1.01083919011511E+05
 cg2d: Sum(rhs),rhsMax =  -4.69990422719227E+01  1.65218092302781E+00
(PID.TID 0000.0001)  ploadbar=  1.01083583819983E+05
 cg2d: Sum(rhs),rhsMax =  -4.70168684249189E+01  1.65207824495556E+00
(PID.TID 0000.0001)  ploadbar=  1.01083248628454E+05
 cg2d: Sum(rhs),rhsMax =  -4.70122069921665E+01  1.65281573225678E+00
(PID.TID 0000.0001)  ploadbar=  1.01082913436926E+05
 cg2d: Sum(rhs),rhsMax =  -4.70638430964195E+01  1.65147915549766E+00
(PID.TID 0000.0001)  ploadbar=  1.01082497616806E+05
 cg2d: Sum(rhs),rhsMax =  -4.71403853764761E+01  1.64916628292303E+00
(PID.TID 0000.0001)  ploadbar=  1.01082081796687E+05
 cg2d: Sum(rhs),rhsMax =  -4.72703974015677E+01  1.64489444098853E+00
(PID.TID 0000.0001)  ploadbar=  1.01081665976568E+05
 cg2d: Sum(rhs),rhsMax =  -4.74093034687872E+01  1.64024081983907E+00
(PID.TID 0000.0001)  ploadbar=  1.01081250156449E+05
 cg2d: Sum(rhs),rhsMax =  -4.75348467892205E+01  1.63598067891522E+00
(PID.TID 0000.0001)  ploadbar=  1.01080834336329E+05
 cg2d: Sum(rhs),rhsMax =  -4.76577430261300E+01  1.63173927029355E+00
(PID.TID 0000.0001)  ploadbar=  1.01080418516210E+05
 cg2d: Sum(rhs),rhsMax =  -4.77859976647066E+01  1.62745350612566E+00
(PID.TID 0000.0001)  ploadbar=  1.01079408454039E+05
 cg2d: Sum(rhs),rhsMax =  -4.79328251665786E+01  1.62266658233415E+00
(PID.TID 0000.0001)  ploadbar=  1.01078398391868E+05
 cg2d: Sum(rhs),rhsMax =  -4.80689480086678E+01  1.61837103740509E+00
(PID.TID 0000.0001)  ploadbar=  1.01077388329697E+05
 cg2d: Sum(rhs),rhsMax =  -4.82001342125435E+01  1.61436944293977E+00
(PID.TID 0000.0001)  ploadbar=  1.01076378267526E+05
 cg2d: Sum(rhs),rhsMax =  -4.83320224034356E+01  1.61047647174390E+00
(PID.TID 0000.0001)  ploadbar=  1.01075368205355E+05
 cg2d: Sum(rhs),rhsMax =  -4.84672282384544E+01  1.60660561149658E+00
(PID.TID 0000.0001)  ploadbar=  1.01074358143184E+05
 cg2d: Sum(rhs),rhsMax =  -4.85805834052150E+01  1.60343139533416E+00
(PID.TID 0000.0001)  ploadbar=  1.01074003273582E+05
 cg2d: Sum(rhs),rhsMax =  -4.87059458285647E+01  1.59982777292893E+00
(PID.TID 0000.0001)  ploadbar=  1.01073648403980E+05
 cg2d: Sum(rhs),rhsMax =  -4.88253727394989E+01  1.59639278832849E+00
(PID.TID 0000.0001)  ploadbar=  1.01073293534379E+05
 cg2d: Sum(rhs),rhsMax =  -4.89367271245296E+01  1.59319886859697E+00
(PID.TID 0000.0001)  ploadbar=  1.01072938664777E+05
 cg2d: Sum(rhs),rhsMax =  -4.90466296104845E+01  1.59003644798660E+00
(PID.TID 0000.0001)  ploadbar=  1.01072583795175E+05
 cg2d: Sum(rhs),rhsMax =  -4.91502160423362E+01  1.58706509248541E+00
(PID.TID 0000.0001)  ploadbar=  1.01072228925573E+05
 cg2d: Sum(rhs),rhsMax =  -4.92600754425871E+01  1.58395955861876E+00
(PID.TID 0000.0001)  ploadbar=  1.01071869444184E+05
 cg2d: Sum(rhs),rhsMax =  -4.93690387361124E+01  1.58094275269325E+00
(PID.TID 0000.0001)  ploadbar=  1.01071509962796E+05
 cg2d: Sum(rhs),rhsMax =  -4.94686245304769E+01  1.57828226468808E+00
(PID.TID 0000.0001)  ploadbar=  1.01071150481408E+05
 cg2d: Sum(rhs),rhsMax =  -4.95587965612998E+01  1.57597842188954E+00
(PID.TID 0000.0001)  ploadbar=  1.01070791000019E+05
 cg2d: Sum(rhs),rhsMax =  -4.96414237173690E+01  1.57396915790395E+00
(PID.TID 0000.0001)  ploadbar=  1.01070431518631E+05
 cg2d: Sum(rhs),rhsMax =  -4.97201656655007E+01  1.57213910793796E+00
(PID.TID 0000.0001)  ploadbar=  1.01070072037242E+05
 cg2d: Sum(rhs),rhsMax =  -4.97720462504148E+01  1.57104660317881E+00
(PID.TID 0000.0001)  ploadbar=  1.01070701613366E+05
 cg2d: Sum(rhs),rhsMax =  -4.98214975823645E+01  1.56991298695178E+00
(PID.TID 0000.0001)  ploadbar=  1.01071331189489E+05
 cg2d: Sum(rhs),rhsMax =  -4.98661252431045E+01  1.56881817116065E+00
(PID.TID 0000.0001)  ploadbar=  1.01071960765612E+05
 cg2d: Sum(rhs),rhsMax =  -4.99059731361923E+01  1.56776595932551E+00
(PID.TID 0000.0001)  ploadbar=  1.01072590341736E+05
 cg2d: Sum(rhs),rhsMax =  -4.99404391241467E+01  1.56678250875240E+00
(PID.TID 0000.0001)  ploadbar=  1.01073219917859E+05
 cg2d: Sum(rhs),rhsMax =  -4.99672409944938E+01  1.56593344233839E+00
(PID.TID 0000.0001)  ploadbar=  1.01073849493982E+05
 cg2d: Sum(rhs),rhsMax =  -4.99931083161704E+01  1.56520173137680E+00
(PID.TID 0000.0001)  ploadbar=  1.01076294616213E+05
 cg2d: Sum(rhs),rhsMax =  -4.99891645689753E+01  1.56548579014175E+00
(PID.TID 0000.0001)  ploadbar=  1.01078739738443E+05
 cg2d: Sum(rhs),rhsMax =  -4.98947688488487E+01  1.56868981853476E+00
(PID.TID 0000.0001)  ploadbar=  1.01081184860674E+05
 cg2d: Sum(rhs),rhsMax =  -4.97745016864794E+01  1.57280804719752E+00
(PID.TID 0000.0001)  ploadbar=  1.01083629982904E+05
 cg2d: Sum(rhs),rhsMax =  -4.96458453348854E+01  1.57729650919786E+00
(PID.TID 0000.0001)  ploadbar=  1.01086075105134E+05
 cg2d: Sum(rhs),rhsMax =  -4.95242815686667E+01  1.58167049764445E+00
(PID.TID 0000.0001)  ploadbar=  1.01088520227365E+05
 cg2d: Sum(rhs),rhsMax =  -4.94130734356781E+01  1.58571059876867E+00
(PID.TID 0000.0001)  ploadbar=  1.01089976672272E+05
 cg2d: Sum(rhs),rhsMax =  -4.93026663359107E+01  1.58971838844028E+00
(PID.TID 0000.0001)  ploadbar=  1.01091433117179E+05
 cg2d: Sum(rhs),rhsMax =  -4.91936834812165E+01  1.59367565979003E+00
(PID.TID 0000.0001)  ploadbar=  1.01092889562086E+05
 cg2d: Sum(rhs),rhsMax =  -4.90873952313529E+01  1.59755011864195E+00
(PID.TID 0000.0001)  ploadbar=  1.01094346006994E+05
 cg2d: Sum(rhs),rhsMax =  -4.89849953135514E+01  1.60131968818342E+00
(PID.TID 0000.0001)  ploadbar=  1.01095802451901E+05
 cg2d: Sum(rhs),rhsMax =  -4.88867481474098E+01  1.60497915442086E+00
(PID.TID 0000.0001)  ploadbar=  1.01097258896808E+05
 cg2d: Sum(rhs),rhsMax =  -4.88098941918226E+01  1.60795198668191E+00
(PID.TID 0000.0001)  ploadbar=  1.01098826128281E+05
 cg2d: Sum(rhs),rhsMax =  -4.87411723432472E+01  1.61065895875063E+00
(PID.TID 0000.0001)  ploadbar=  1.01100393359753E+05
 cg2d: Sum(rhs),rhsMax =  -4.86852302507888E+01  1.61294745220106E+00
(PID.TID 0000.0001)  ploadbar=  1.01101960591226E+05
 cg2d: Sum(rhs),rhsMax =  -4.86404710065934E+01  1.61487291432553E+00
(PID.TID 0000.0001)  ploadbar=  1.01103527822699E+05
 cg2d: Sum(rhs),rhsMax =  -4.86069999826025E+01  1.61643559505927E+00
(PID.TID 0000.0001)  ploadbar=  1.01105095054172E+05
 cg2d: Sum(rhs),rhsMax =  -4.85858612723621E+01  1.61760409528261E+00
(PID.TID 0000.0001)  ploadbar=  1.01106662285644E+05
 cg2d: Sum(rhs),rhsMax =  -4.85484550400537E+01  1.61923145628640E+00
(PID.TID 0000.0001)  ploadbar=  1.01107711162489E+05
 cg2d: Sum(rhs),rhsMax =  -4.84953602791425E+01  1.62129375910605E+00
(PID.TID 0000.0001)  ploadbar=  1.01108760039333E+05
 cg2d: Sum(rhs),rhsMax =  -4.84200890631840E+01  1.62401250859824E+00
(PID.TID 0000.0001)  ploadbar=  1.01109808916177E+05
 cg2d: Sum(rhs),rhsMax =  -4.83190132357384E+01  1.62752194671571E+00
(PID.TID 0000.0001)  ploadbar=  1.01110857793021E+05
 cg2d: Sum(rhs),rhsMax =  -4.81931306366471E+01  1.63180315385566E+00
(PID.TID 0000.0001)  ploadbar=  1.01111906669866E+05
 cg2d: Sum(rhs),rhsMax =  -4.80422027165401E+01  1.63687708100348E+00
(PID.TID 0000.0001)  ploadbar=  1.01112955546710E+05
 cg2d: Sum(rhs),rhsMax =  -4.78983073165472E+01  1.64180643329328E+00
(PID.TID 0000.0001)  ploadbar=  1.01114218170926E+05
 cg2d: Sum(rhs),rhsMax =  -4.77644436477485E+01  1.64647511703419E+00
(PID.TID 0000.0001)  ploadbar=  1.01115480795141E+05
 cg2d: Sum(rhs),rhsMax =  -4.76480649793893E+01  1.65061696908354E+00
(PID.TID 0000.0001)  ploadbar=  1.01116743419357E+05
 cg2d: Sum(rhs),rhsMax =  -4.75542268934507E+01  1.65404239899550E+00
(PID.TID 0000.0001)  ploadbar=  1.01118006043573E+05
 cg2d: Sum(rhs),rhsMax =  -4.74904335993881E+01  1.65647571524713E+00
(PID.TID 0000.0001)  ploadbar=  1.01119268667788E+05
 cg2d: Sum(rhs),rhsMax =  -4.74603322737114E+01  1.65777927418049E+00
(PID.TID 0000.0001)  ploadbar=  1.01120531292004E+05
 cg2d: Sum(rhs),rhsMax =  -4.74992891679290E+01  1.65665700597030E+00
(PID.TID 0000.0001)  ploadbar=  1.01120968236858E+05
 cg2d: Sum(rhs),rhsMax =  -4.75842472411183E+01  1.65392548879084E+00
(PID.TID 0000.0001)  ploadbar=  1.01121405181711E+05
 cg2d: Sum(rhs),rhsMax =  -4.76941595842840E+01  1.65033879786381E+00
(PID.TID 0000.0001)  ploadbar=  1.01121842126565E+05
 cg2d: Sum(rhs),rhsMax =  -4.78350923369250E+01  1.64571054783380E+00
(PID.TID 0000.0001)  ploadbar=  1.01122279071418E+05
 cg2d: Sum(rhs),rhsMax =  -4.80077777757534E+01  1.64003819335644E+00
(PID.TID 0000.0001)  ploadbar=  1.01122716016272E+05
 cg2d: Sum(rhs),rhsMax =  -4.79185452231260E+01  1.64335365121363E+00
(PID.TID 0000.0001)  ploadbar=  1.01123152961125E+05
 cg2d: Sum(rhs),rhsMax =  -4.75195200216769E+01  1.65746001466204E+00
(PID.TID 0000.0001)  ploadbar=  1.01123125084198E+05
 cg2d: Sum(rhs),rhsMax =  -4.71665146480725E+01  1.67020501595527E+00
(PID.TID 0000.0001)  ploadbar=  1.01123097207271E+05
 cg2d: Sum(rhs),rhsMax =  -4.68523531860417E+01  1.68177736109152E+00
(PID.TID 0000.0001)  ploadbar=  1.01123069330344E+05
 cg2d: Sum(rhs),rhsMax =  -4.65764682150670E+01  1.69214826653405E+00
(PID.TID 0000.0001)  ploadbar=  1.01123041453417E+05
 cg2d: Sum(rhs),rhsMax =  -4.63327748727888E+01  1.70149938603947E+00
(PID.TID 0000.0001)  ploadbar=  1.01123013576490E+05
 cg2d: Sum(rhs),rhsMax =  -4.61114493416375E+01  1.71015924865444E+00
(PID.TID 0000.0001)  ploadbar=  1.01122985699563E+05
 cg2d: Sum(rhs),rhsMax =  -4.58993137460472E+01  1.71851001950443E+00
(PID.TID 0000.0001)  ploadbar=  1.01123429544169E+05
 cg2d: Sum(rhs),rhsMax =  -4.57103541938644E+01  1.72600429045999E+00
(PID.TID 0000.0001)  ploadbar=  1.01123873388774E+05
 cg2d: Sum(rhs),rhsMax =  -4.55478500066790E+01  1.73249601618397E+00
(PID.TID 0000.0001)  ploadbar=  1.01124317233380E+05
 cg2d: Sum(rhs),rhsMax =  -4.54391737667800E+01  1.73691912435459E+00
(PID.TID 0000.0001)  ploadbar=  1.01124761077985E+05
 cg2d: Sum(rhs),rhsMax =  -4.53961594952262E+01  1.73879645825167E+00
(PID.TID 0000.0001)  ploadbar=  1.01125204922591E+05
 cg2d: Sum(rhs),rhsMax =  -4.54094803264231E+01  1.73847551884655E+00
(PID.TID 0000.0001)  ploadbar=  1.01125648767196E+05
 cg2d: Sum(rhs),rhsMax =  -4.54566081514560E+01  1.73692815464349E+00
(PID.TID 0000.0001)  ploadbar=  1.01126114728581E+05
 cg2d: Sum(rhs),rhsMax =  -4.55223893455559E+01  1.73473231860584E+00
(PID.TID 0000.0001)  ploadbar=  1.01126580689967E+05
 cg2d: Sum(rhs),rhsMax =  -4.55960848277279E+01  1.73230231072175E+00
(PID.TID 0000.0001)  ploadbar=  1.01127046651352E+05
 cg2d: Sum(rhs),rhsMax =  -4.56772886798123E+01  1.72965567649890E+00
(PID.TID 0000.0001)  ploadbar=  1.01127512612738E+05
 cg2d: Sum(rhs),rhsMax =  -4.57672824083319E+01  1.72674718435397E+00
(PID.TID 0000.0001)  ploadbar=  1.01127978574123E+05
 cg2d: Sum(rhs),rhsMax =  -4.58619389366781E+01  1.72373339723132E+00
(PID.TID 0000.0001)  ploadbar=  1.01128444535509E+05
 cg2d: Sum(rhs),rhsMax =  -4.59462137893080E+01  1.72110399005097E+00
(PID.TID 0000.0001)  ploadbar=  1.01127869212134E+05
 cg2d: Sum(rhs),rhsMax =  -4.60265799372597E+01  1.71861626566843E+00
(PID.TID 0000.0001)  ploadbar=  1.01127293888759E+05
 cg2d: Sum(rhs),rhsMax =  -4.61002867215719E+01  1.71637970217165E+00
(PID.TID 0000.0001)  ploadbar=  1.01126718565384E+05
 cg2d: Sum(rhs),rhsMax =  -4.61680844420276E+01  1.71436808447150E+00
(PID.TID 0000.0001)  ploadbar=  1.01126143242010E+05
 cg2d: Sum(rhs),rhsMax =  -4.62295408731250E+01  1.71259910001815E+00
(PID.TID 0000.0001)  ploadbar=  1.01125567918635E+05
 cg2d: Sum(rhs),rhsMax =  -4.62832973853741E+01  1.71112388932980E+00
(PID.TID 0000.0001)  ploadbar=  1.01124992595260E+05
 cg2d: Sum(rhs),rhsMax =  -4.63075093656816E+01  1.71081277226139E+00
(PID.TID 0000.0001)  ploadbar=  1.01123889703643E+05
 cg2d: Sum(rhs),rhsMax =  -4.63189917428089E+01  1.71103672801812E+00
(PID.TID 0000.0001)  ploadbar=  1.01122786812026E+05
 cg2d: Sum(rhs),rhsMax =  -4.63125040764108E+01  1.71199651068225E+00
(PID.TID 0000.0001)  ploadbar=  1.01121683920409E+05
 cg2d: Sum(rhs),rhsMax =  -4.62861322368582E+01  1.71376592333699E+00
(PID.TID 0000.0001)  ploadbar=  1.01120581028792E+05
 cg2d: Sum(rhs),rhsMax =  -4.62398165966053E+01  1.71634702494800E+00
(PID.TID 0000.0001)  ploadbar=  1.01119478137175E+05
 cg2d: Sum(rhs),rhsMax =  -4.53016381232382E+01  1.75284845099656E+00
(PID.TID 0000.0001)  ploadbar=  1.01118375245558E+05
 cg2d: Sum(rhs),rhsMax =  -4.41768689658617E+01  1.79837821347286E+00
(PID.TID 0000.0001)  ploadbar=  1.01117530520058E+05
 cg2d: Sum(rhs),rhsMax =  -4.29686435072706E+01  1.84978209970915E+00
(PID.TID 0000.0001)  ploadbar=  1.01116685794558E+05
 cg2d: Sum(rhs),rhsMax =  -4.18344479473329E+01  1.90070080703988E+00
(PID.TID 0000.0001)  ploadbar=  1.01115841069058E+05
 cg2d: Sum(rhs),rhsMax =  -4.08076290938242E+01  1.94922530114886E+00
(PID.TID 0000.0001)  ploadbar=  1.01114996343558E+05
 cg2d: Sum(rhs),rhsMax =  -3.98663243040314E+01  1.99587681926240E+00
(PID.TID 0000.0001)  ploadbar=  1.01114151618058E+05
 cg2d: Sum(rhs),rhsMax =  -3.90006358496284E+01  2.04073439357670E+00
(PID.TID 0000.0001)  ploadbar=  1.01113306892558E+05
 cg2d: Sum(rhs),rhsMax =  -3.82126129120318E+01  2.08349977315929E+00
(PID.TID 0000.0001)  ploadbar=  1.01113344777367E+05
 cg2d: Sum(rhs),rhsMax =  -3.74943212176754E+01  2.12421722701712E+00
(PID.TID 0000.0001)  ploadbar=  1.01113382662175E+05
 cg2d: Sum(rhs),rhsMax =  -3.67567410420116E+01  2.16777135389542E+00
(PID.TID 0000.0001)  ploadbar=  1.01113420546984E+05
 cg2d: Sum(rhs),rhsMax =  -3.59690571217464E+01  2.21630279924201E+00
(PID.TID 0000.0001)  ploadbar=  1.01113458431793E+05
 cg2d: Sum(rhs),rhsMax =  -3.51702724325399E+01  2.26783347153219E+00
(PID.TID 0000.0001)  ploadbar=  1.01113496316602E+05
 cg2d: Sum(rhs),rhsMax =  -3.43878384446718E+01  2.32077479722945E+00
(PID.TID 0000.0001)  ploadbar=  1.01113534201411E+05
 cg2d: Sum(rhs),rhsMax =  -3.32509086441739E+01  2.40143644730779E+00
(PID.TID 0000.0001)  ploadbar=  1.01114002183040E+05
 cg2d: Sum(rhs),rhsMax =  -3.17584227976913E+01  2.51558855565369E+00
(PID.TID 0000.0001)  ploadbar=  1.01114470164668E+05
 cg2d: Sum(rhs),rhsMax =  -3.01695340276778E+01  2.64937468928000E+00
(PID.TID 0000.0001)  ploadbar=  1.01114938146297E+05
 cg2d: Sum(rhs),rhsMax =  -2.85959884349214E+01  2.79647779390065E+00
(PID.TID 0000.0001)  ploadbar=  1.01115406127926E+05
 cg2d: Sum(rhs),rhsMax =  -2.71534262140404E+01  2.94638129209598E+00
(PID.TID 0000.0001)  ploadbar=  1.01115874109554E+05
 cg2d: Sum(rhs),rhsMax =  -2.59196102984064E+01  3.08798319647176E+00
(PID.TID 0000.0001)  ploadbar=  1.01116342091183E+05
 cg2d: Sum(rhs),rhsMax =  -2.47973068118402E+01  3.22917761527541E+00
(PID.TID 0000.0001)  ploadbar=  1.01116283101739E+05
 cg2d: Sum(rhs),rhsMax =  -2.37496005578048E+01  3.37314740243755E+00
(PID.TID 0000.0001)  ploadbar=  1.01116224112296E+05
 cg2d: Sum(rhs),rhsMax =  -2.28204532897808E+01  3.51209820268045E+00
(PID.TID 0000.0001)  ploadbar=  1.01116165122852E+05
 cg2d: Sum(rhs),rhsMax =  -2.19951821609201E+01  3.64559765459353E+00
(PID.TID 0000.0001)  ploadbar=  1.01116106133408E+05
 cg2d: Sum(rhs),rhsMax =  -2.12580095558125E+01  3.77386721147253E+00
(PID.TID 0000.0001)  ploadbar=  1.01116047143965E+05
 cg2d: Sum(rhs),rhsMax =  -2.05933574496212E+01  3.89765255878372E+00
(PID.TID 0000.0001)  ploadbar=  1.01115988154521E+05
 cg2d: Sum(rhs),rhsMax =  -1.99432192836566E+01  4.02650603515228E+00
(PID.TID 0000.0001)  ploadbar=  1.01116445435245E+05
 cg2d: Sum(rhs),rhsMax =  -1.93135415201221E+01  4.15934722770504E+00
(PID.TID 0000.0001)  ploadbar=  1.01116902715969E+05
 cg2d: Sum(rhs),rhsMax =  -1.87466912945728E+01  4.28644302683787E+00
(PID.TID 0000.0001)  ploadbar=  1.01117359996694E+05
 cg2d: Sum(rhs),rhsMax =  -1.87961761359319E+01  4.27621889803240E+00
(PID.TID 0000.0001)  ploadbar=  1.01117817277418E+05
 cg2d: Sum(rhs),rhsMax =  -1.90884309106165E+01  4.21153764424940E+00
(PID.TID 0000.0001)  ploadbar=  1.01118274558142E+05
 cg2d: Sum(rhs),rhsMax =  -1.95023711827579E+01  4.12268009257629E+00
(PID.TID 0000.0001)  ploadbar=  1.01118731838866E+05
 cg2d: Sum(rhs),rhsMax =  -1.99468120851433E+01  4.03159365819139E+00
(PID.TID 0000.0001)  ploadbar=  1.01118599986065E+05
 cg2d: Sum(rhs),rhsMax =  -2.03926358293726E+01  3.94445666062521E+00
(PID.TID 0000.0001)  ploadbar=  1.01118468133263E+05
 cg2d: Sum(rhs),rhsMax =  -2.08073998511490E+01  3.86705703847064E+00
(PID.TID 0000.0001)  ploadbar=  1.01118336280462E+05
 cg2d: Sum(rhs),rhsMax =  -2.12045804100610E+01  3.79607229352253E+00
(PID.TID 0000.0001)  ploadbar=  1.01118204427660E+05
 cg2d: Sum(rhs),rhsMax =  -2.15526346061451E+01  3.73644734521498E+00
(PID.TID 0000.0001)  ploadbar=  1.01118072574858E+05
 cg2d: Sum(rhs),rhsMax =  -2.18419162867952E+01  3.68887950144222E+00
(PID.TID 0000.0001)  ploadbar=  1.01117940722057E+05
 cg2d: Sum(rhs),rhsMax =  -2.20585965305856E+01  3.65442700944831E+00
(PID.TID 0000.0001)  ploadbar=  1.01118639590080E+05
 cg2d: Sum(rhs),rhsMax =  -2.22425979426957E+01  3.62585825345153E+00
(PID.TID 0000.0001)  ploadbar=  1.01119338458104E+05
 cg2d: Sum(rhs),rhsMax =  -2.24074969735451E+01  3.60074449981537E+00
(PID.TID 0000.0001)  ploadbar=  1.01120037326127E+05
 cg2d: Sum(rhs),rhsMax =  -2.25584549497954E+01  3.57813506025578E+00
(PID.TID 0000.0001)  ploadbar=  1.01120736194151E+05
 cg2d: Sum(rhs),rhsMax =  -2.27031419645802E+01  3.55674295063008E+00
(PID.TID 0000.0001)  ploadbar=  1.01121435062174E+05
 cg2d: Sum(rhs),rhsMax =  -2.28467778072359E+01  3.53572461777786E+00
(PID.TID 0000.0001)  ploadbar=  1.01122133930198E+05
 cg2d: Sum(rhs),rhsMax =  -2.29907759224253E+01  3.51492920748256E+00
(PID.TID 0000.0001)  ploadbar=  1.01123269075583E+05
 cg2d: Sum(rhs),rhsMax =  -2.31379990640129E+01  3.49391033725176E+00
(PID.TID 0000.0001)  ploadbar=  1.01124404220968E+05
 cg2d: Sum(rhs),rhsMax =  -2.32871538996455E+01  3.47287968783809E+00
(PID.TID 0000.0001)  ploadbar=  1.01125539366354E+05
 cg2d: Sum(rhs),rhsMax =  -2.34359795429359E+01  3.45218675021192E+00
(PID.TID 0000.0001)  ploadbar=  1.01126674511739E+05
 cg2d: Sum(rhs),rhsMax =  -2.35813545916140E+01  3.43229187926495E+00
(PID.TID 0000.0001)  ploadbar=  1.01127809657124E+05
 cg2d: Sum(rhs),rhsMax =  -2.37226479619725E+01  3.41326876510175E+00
(PID.TID 0000.0001)  ploadbar=  1.01128944802510E+05
 cg2d: Sum(rhs),rhsMax =  -2.38622187250935E+01  3.39449312703114E+00
(PID.TID 0000.0001)  ploadbar=  1.01129292402712E+05
 cg2d: Sum(rhs),rhsMax =  -2.39975405815456E+01  3.37630524975939E+00
(PID.TID 0000.0001)  ploadbar=  1.01129640002914E+05
 cg2d: Sum(rhs),rhsMax =  -2.41291550016150E+01  3.35861969060363E+00
(PID.TID 0000.0001)  ploadbar=  1.01129987603116E+05
 cg2d: Sum(rhs),rhsMax =  -2.42584035957045E+01  3.34124664028734E+00
(PID.TID 0000.0001)  ploadbar=  1.01130335203318E+05
 cg2d: Sum(rhs),rhsMax =  -2.43864072009598E+01  3.32404697022532E+00
(PID.TID 0000.0001)  ploadbar=  1.01130682803520E+05
 cg2d: Sum(rhs),rhsMax =  -2.45135094364113E+01  3.30696823925559E+00
(PID.TID 0000.0001)  ploadbar=  1.01131030403723E+05
 cg2d: Sum(rhs),rhsMax =  -2.46409783561848E+01  3.29011930987368E+00
(PID.TID 0000.0001)  ploadbar=  1.01131474366870E+05
 cg2d: Sum(rhs),rhsMax =  -2.47672704190739E+01  3.27369521586049E+00
(PID.TID 0000.0001)  ploadbar=  1.01131918330018E+05
 cg2d: Sum(rhs),rhsMax =  -2.48906856882339E+01  3.25791297929383E+00
(PID.TID 0000.0001)  ploadbar=  1.01132362293166E+05
 cg2d: Sum(rhs),rhsMax =  -2.50115378605585E+01  3.24271759431666E+00
(PID.TID 0000.0001)  ploadbar=  1.01132806256313E+05
 cg2d: Sum(rhs),rhsMax =  -2.51302766599878E+01  3.22804567045930E+00
(PID.TID 0000.0001)  ploadbar=  1.01133250219461E+05
 cg2d: Sum(rhs),rhsMax =  -2.52474924615136E+01  3.21381646487615E+00
(PID.TID 0000.0001)  ploadbar=  1.01133694182609E+05
 cg2d: Sum(rhs),rhsMax =  -2.53626454229403E+01  3.19990718382434E+00
(PID.TID 0000.0001)  ploadbar=  1.01133512208237E+05
 cg2d: Sum(rhs),rhsMax =  -2.54790563681495E+01  3.18589662482977E+00
(PID.TID 0000.0001)  ploadbar=  1.01133330233865E+05
 cg2d: Sum(rhs),rhsMax =  -2.56001268167907E+01  3.17138336451026E+00
(PID.TID 0000.0001)  ploadbar=  1.01133148259492E+05
 cg2d: Sum(rhs),rhsMax =  -2.57275250891891E+01  3.15619260337126E+00
(PID.TID 0000.0001)  ploadbar=  1.01132966285120E+05
 cg2d: Sum(rhs),rhsMax =  -2.58631907047897E+01  3.14011878062646E+00
(PID.TID 0000.0001)  ploadbar=  1.01132784310748E+05
 cg2d: Sum(rhs),rhsMax =  -2.60092244078918E+01  3.12295400217429E+00
(PID.TID 0000.0001)  ploadbar=  1.01132602336376E+05
 cg2d: Sum(rhs),rhsMax =  -2.61675364679427E+01  3.10459476703305E+00
(PID.TID 0000.0001)  ploadbar=  1.01131281307556E+05
 cg2d: Sum(rhs),rhsMax =  -2.63377759856381E+01  3.08511712130227E+00
(PID.TID 0000.0001)  ploadbar=  1.01129960278736E+05
 cg2d: Sum(rhs),rhsMax =  -2.65224718170165E+01  3.06427705251427E+00
(PID.TID 0000.0001)  ploadbar=  1.01128639249916E+05
 cg2d: Sum(rhs),rhsMax =  -2.67228395778185E+01  3.04199663907973E+00
(PID.TID 0000.0001)  ploadbar=  1.01127318221096E+05
 cg2d: Sum(rhs),rhsMax =  -2.69400279683013E+01  3.01822396351774E+00
(PID.TID 0000.0001)  ploadbar=  1.01125997192276E+05
 cg2d: Sum(rhs),rhsMax =  -2.71763204109124E+01  2.99279106639837E+00
(PID.TID 0000.0001)  ploadbar=  1.01124676163456E+05
 cg2d: Sum(rhs),rhsMax =  -2.74339187522937E+01  2.96536325107083E+00
(PID.TID 0000.0001)  ploadbar=  1.01123539818722E+05
 cg2d: Sum(rhs),rhsMax =  -2.77118067918340E+01  2.93615676614390E+00
(PID.TID 0000.0001)  ploadbar=  1.01122403473989E+05
 cg2d: Sum(rhs),rhsMax =  -2.80081831420018E+01  2.90547908951825E+00
(PID.TID 0000.0001)  ploadbar=  1.01121267129255E+05
 cg2d: Sum(rhs),rhsMax =  -2.83172876987863E+01  2.87402801853351E+00
(PID.TID 0000.0001)  ploadbar=  1.01120130784522E+05
 cg2d: Sum(rhs),rhsMax =  -2.86297744289097E+01  2.84281017309084E+00
(PID.TID 0000.0001)  ploadbar=  1.01118994439788E+05
 cg2d: Sum(rhs),rhsMax =  -2.89380127086325E+01  2.81257048305306E+00
(PID.TID 0000.0001)  ploadbar=  1.01117858095055E+05
 cg2d: Sum(rhs),rhsMax =  -2.92399697478621E+01  2.78363861838206E+00
(PID.TID 0000.0001)  ploadbar=  1.01116993746516E+05
 cg2d: Sum(rhs),rhsMax =  -2.95452378583947E+01  2.75506128890518E+00
(PID.TID 0000.0001)  ploadbar=  1.01116129397977E+05
 cg2d: Sum(rhs),rhsMax =  -2.98526445299443E+01  2.72693949159876E+00
(PID.TID 0000.0001)  ploadbar=  1.01115265049438E+05
 cg2d: Sum(rhs),rhsMax =  -3.01639515467635E+01  2.69910752409834E+00
(PID.TID 0000.0001)  ploadbar=  1.01114400700899E+05
 cg2d: Sum(rhs),rhsMax =  -3.04849781441261E+01  2.67106039531980E+00
(PID.TID 0000.0001)  ploadbar=  1.01113536352360E+05
 cg2d: Sum(rhs),rhsMax =  -3.08219784295962E+01  2.64229450500795E+00
(PID.TID 0000.0001)  ploadbar=  1.01112672003821E+05
 cg2d: Sum(rhs),rhsMax =  -3.11681255866544E+01  2.61335672176146E+00
(PID.TID 0000.0001)  ploadbar=  1.01111492015899E+05
 cg2d: Sum(rhs),rhsMax =  -3.15254762621905E+01  2.58410911455028E+00
(PID.TID 0000.0001)  ploadbar=  1.01110312027978E+05
 cg2d: Sum(rhs),rhsMax =  -3.18903399813117E+01  2.55489341390749E+00
(PID.TID 0000.0001)  ploadbar=  1.01109132040057E+05
 cg2d: Sum(rhs),rhsMax =  -3.22604836120615E+01  2.52591301493885E+00
(PID.TID 0000.0001)  ploadbar=  1.01107952052135E+05
 cg2d: Sum(rhs),rhsMax =  -3.26343574948353E+01  2.49729864363483E+00
(PID.TID 0000.0001)  ploadbar=  1.01106772064214E+05
 cg2d: Sum(rhs),rhsMax =  -3.30081112046139E+01  2.46933834662940E+00
(PID.TID 0000.0001)  ploadbar=  1.01105592076292E+05
 cg2d: Sum(rhs),rhsMax =  -3.33773471787212E+01  2.44242458773870E+00
(PID.TID 0000.0001)  ploadbar=  1.01104364193072E+05
 cg2d: Sum(rhs),rhsMax =  -3.37504331736163E+01  2.41590407154381E+00
(PID.TID 0000.0001)  ploadbar=  1.01103136309852E+05
 cg2d: Sum(rhs),rhsMax =  -3.34774374210363E+01  2.43617341690223E+00
(PID.TID 0000.0001)  ploadbar=  1.01101908426631E+05
 cg2d: Sum(rhs),rhsMax =  -3.28412761502551E+01  2.48403943458166E+00
(PID.TID 0000.0001)  ploadbar=  1.01100680543411E+05
 cg2d: Sum(rhs),rhsMax =  -3.22662357049569E+01  2.52910178655257E+00
(PID.TID 0000.0001)  ploadbar=  1.01099452660190E+05
 cg2d: Sum(rhs),rhsMax =  -3.17435449860734E+01  2.57165920442639E+00
(PID.TID 0000.0001)  ploadbar=  1.01098224776970E+05
 cg2d: Sum(rhs),rhsMax =  -3.12674559121479E+01  2.61169445169241E+00
(PID.TID 0000.0001)  ploadbar=  1.01096716500334E+05
 cg2d: Sum(rhs),rhsMax =  -3.08231909959512E+01  2.65016286061493E+00
(PID.TID 0000.0001)  ploadbar=  1.01095208223698E+05
 cg2d: Sum(rhs),rhsMax =  -3.04355237437592E+01  2.68469138110607E+00
(PID.TID 0000.0001)  ploadbar=  1.01093699947062E+05
 cg2d: Sum(rhs),rhsMax =  -3.01239026988982E+01  2.71318204791677E+00
(PID.TID 0000.0001)  ploadbar=  1.01092191670426E+05
 cg2d: Sum(rhs),rhsMax =  -2.98916384878819E+01  2.73494078282096E+00
(PID.TID 0000.0001)  ploadbar=  1.01090683393790E+05
 cg2d: Sum(rhs),rhsMax =  -2.97348165089215E+01  2.75000408682686E+00
(PID.TID 0000.0001)  ploadbar=  1.01089175117154E+05
 cg2d: Sum(rhs),rhsMax =  -2.96204020064109E+01  2.76141243054240E+00
(PID.TID 0000.0001)  ploadbar=  1.01088780239865E+05
 cg2d: Sum(rhs),rhsMax =  -2.96318104433354E+01  2.76126839692514E+00
(PID.TID 0000.0001)  ploadbar=  1.01088385362577E+05
 cg2d: Sum(rhs),rhsMax =  -2.98033303368280E+01  2.74642329808662E+00
(PID.TID 0000.0001)  ploadbar=  1.01087990485288E+05
 cg2d: Sum(rhs),rhsMax =  -3.00676102575322E+01  2.72345210060318E+00
(PID.TID 0000.0001)  ploadbar=  1.01087595607999E+05
 cg2d: Sum(rhs),rhsMax =  -3.04985646034445E+01  2.68625419104399E+00
(PID.TID 0000.0001)  ploadbar=  1.01087200730710E+05
 cg2d: Sum(rhs),rhsMax =  -3.11582869816771E+01  2.63076830751921E+00
(PID.TID 0000.0001)  ploadbar=  1.01086805853422E+05
 cg2d: Sum(rhs),rhsMax =  -3.18944640573366E+01  2.57132259963472E+00
(PID.TID 0000.0001)  ploadbar=  1.01085710255702E+05
 cg2d: Sum(rhs),rhsMax =  -3.27176315976036E+01  2.50779871977135E+00
(PID.TID 0000.0001)  ploadbar=  1.01084614657983E+05
 cg2d: Sum(rhs),rhsMax =  -3.35840727658587E+01  2.44417563445860E+00
(PID.TID 0000.0001)  ploadbar=  1.01083519060263E+05
 cg2d: Sum(rhs),rhsMax =  -3.44470023891943E+01  2.38393801925182E+00
(PID.TID 0000.0001)  ploadbar=  1.01082423462544E+05
 cg2d: Sum(rhs),rhsMax =  -3.52947694197928E+01  2.32759888265596E+00
(PID.TID 0000.0001)  ploadbar=  1.01081327864824E+05
 cg2d: Sum(rhs),rhsMax =  -3.61189814763092E+01  2.27533702768852E+00
(PID.TID 0000.0001)  ploadbar=  1.01080232267105E+05
 cg2d: Sum(rhs),rhsMax =  -3.69626569494057E+01  2.22426185148223E+00
(PID.TID 0000.0001)  ploadbar=  1.01079555452000E+05
 cg2d: Sum(rhs),rhsMax =  -3.70839928350872E+01  2.21785500191694E+00
(PID.TID 0000.0001)  ploadbar=  1.01078878636896E+05
 cg2d: Sum(rhs),rhsMax =  -3.70803693266216E+01  2.21896051554494E+00
(PID.TID 0000.0001)  ploadbar=  1.01078201821791E+05
 cg2d: Sum(rhs),rhsMax =  -3.71038811061508E+01  2.21846031068731E+00
(PID.TID 0000.0001)  ploadbar=  1.01077525006687E+05
 cg2d: Sum(rhs),rhsMax =  -3.71516841793860E+01  2.21652888915501E+00
(PID.TID 0000.0001)  ploadbar=  1.01076848191582E+05
 cg2d: Sum(rhs),rhsMax =  -3.72214114931887E+01  2.21332252122149E+00
(PID.TID 0000.0001)  ploadbar=  1.01076171376478E+05
 cg2d: Sum(rhs),rhsMax =  -3.73386096245903E+01  2.20721723663319E+00
(PID.TID 0000.0001)  ploadbar=  1.01075932462180E+05
 cg2d: Sum(rhs),rhsMax =  -3.74995282619674E+01  2.19847492316420E+00
(PID.TID 0000.0001)  ploadbar=  1.01075693547882E+05
 cg2d: Sum(rhs),rhsMax =  -3.77029502897667E+01  2.18722843695763E+00
(PID.TID 0000.0001)  ploadbar=  1.01075454633584E+05
 cg2d: Sum(rhs),rhsMax =  -3.79494642609103E+01  2.17352649766783E+00
(PID.TID 0000.0001)  ploadbar=  1.01075215719286E+05
 cg2d: Sum(rhs),rhsMax =  -3.82392527773572E+01  2.15746159667464E+00
(PID.TID 0000.0001)  ploadbar=  1.01074976804988E+05
 cg2d: Sum(rhs),rhsMax =  -3.85717486541247E+01  2.13918232875739E+00
(PID.TID 0000.0001)  ploadbar=  1.01074737890690E+05
 cg2d: Sum(rhs),rhsMax =  -3.89296524475950E+01  2.11991349370169E+00
(PID.TID 0000.0001)  ploadbar=  1.01073456500818E+05
 cg2d: Sum(rhs),rhsMax =  -3.93336122864497E+01  2.09860895210805E+00
(PID.TID 0000.0001)  ploadbar=  1.01072175110946E+05
 cg2d: Sum(rhs),rhsMax =  -3.98069443958593E+01  2.07419323254751E+00
(PID.TID 0000.0001)  ploadbar=  1.01070893721074E+05
 cg2d: Sum(rhs),rhsMax =  -4.03415662378625E+01  2.04731735915077E+00
(PID.TID 0000.0001)  ploadbar=  1.01069612331203E+05
 cg2d: Sum(rhs),rhsMax =  -4.09348676066885E+01  2.01833075360419E+00
(PID.TID 0000.0001)  ploadbar=  1.01068330941331E+05
 cg2d: Sum(rhs),rhsMax =  -4.15871201044032E+01  1.98743826468014E+00
(PID.TID 0000.0001)  ploadbar=  1.01067049551459E+05
 cg2d: Sum(rhs),rhsMax =  -4.22898050683851E+01  1.95509882094998E+00
(PID.TID 0000.0001)  ploadbar=  1.01067179073403E+05
 cg2d: Sum(rhs),rhsMax =  -4.30438522510310E+01  1.92145626949464E+00
(PID.TID 0000.0001)  ploadbar=  1.01067308595347E+05
 cg2d: Sum(rhs),rhsMax =  -4.38439609668015E+01  1.88692772594723E+00
(PID.TID 0000.0001)  ploadbar=  1.01067438117291E+05
 cg2d: Sum(rhs),rhsMax =  -4.42257727443505E+01  1.87111494259449E+00
(PID.TID 0000.0001)  ploadbar=  1.01067567639235E+05
 cg2d: Sum(rhs),rhsMax =  -4.39829594416945E+01  1.88187699550670E+00
(PID.TID 0000.0001)  ploadbar=  1.01067697161179E+05
 cg2d: Sum(rhs),rhsMax =  -4.37353285754170E+01  1.89292316003144E+00
(PID.TID 0000.0001)  ploadbar=  1.01067826683123E+05
 cg2d: Sum(rhs),rhsMax =  -4.35007464813356E+01  1.90359939363734E+00
(PID.TID 0000.0001)  ploadbar=  1.01069447931434E+05
 cg2d: Sum(rhs),rhsMax =  -4.33478799637566E+01  1.91085044981752E+00
(PID.TID 0000.0001)  ploadbar=  1.01071069179745E+05
 cg2d: Sum(rhs),rhsMax =  -4.32782485907770E+01  1.91453839152261E+00
(PID.TID 0000.0001)  ploadbar=  1.01072690428055E+05
 cg2d: Sum(rhs),rhsMax =  -4.32740726405474E+01  1.91541456534118E+00
(PID.TID 0000.0001)  ploadbar=  1.01074311676366E+05
 cg2d: Sum(rhs),rhsMax =  -4.33257324728178E+01  1.91390502393331E+00
(PID.TID 0000.0001)  ploadbar=  1.01075932924677E+05
 cg2d: Sum(rhs),rhsMax =  -4.34319122857593E+01  1.91008685216081E+00
(PID.TID 0000.0001)  ploadbar=  1.01077554172988E+05
 cg2d: Sum(rhs),rhsMax =  -4.36427827182337E+01  1.90159934621963E+00
(PID.TID 0000.0001)  ploadbar=  1.01079207543851E+05
 cg2d: Sum(rhs),rhsMax =  -4.38839921966517E+01  1.89177024875031E+00
(PID.TID 0000.0001)  ploadbar=  1.01080860914714E+05
 cg2d: Sum(rhs),rhsMax =  -4.41542058196106E+01  1.88070193080506E+00
(PID.TID 0000.0001)  ploadbar=  1.01082514285576E+05
 cg2d: Sum(rhs),rhsMax =  -4.44506126768096E+01  1.86856294266558E+00
(PID.TID 0000.0001)  ploadbar=  1.01084167656439E+05
 cg2d: Sum(rhs),rhsMax =  -4.47898311145568E+01  1.85471423695512E+00
(PID.TID 0000.0001)  ploadbar=  1.01085821027302E+05
 cg2d: Sum(rhs),rhsMax =  -4.52048885543640E+01  1.83789389390162E+00
(PID.TID 0000.0001)  ploadbar=  1.01087474398164E+05
 cg2d: Sum(rhs),rhsMax =  -4.56692413204226E+01  1.81944208730843E+00
(PID.TID 0000.0001)  ploadbar=  1.01088536244371E+05
 cg2d: Sum(rhs),rhsMax =  -4.60985095250351E+01  1.80276006176257E+00
(PID.TID 0000.0001)  ploadbar=  1.01089598090578E+05
 cg2d: Sum(rhs),rhsMax =  -4.64294380502444E+01  1.79019954362723E+00
(PID.TID 0000.0001)  ploadbar=  1.01090659936785E+05
 cg2d: Sum(rhs),rhsMax =  -4.66368966886647E+01  1.78255432494703E+00
(PID.TID 0000.0001)  ploadbar=  1.01091721782991E+05
 cg2d: Sum(rhs),rhsMax =  -4.67020990125338E+01  1.78042159037058E+00
(PID.TID 0000.0001)  ploadbar=  1.01092783629198E+05
 cg2d: Sum(rhs),rhsMax =  -4.66335815005281E+01  1.78343471707694E+00
(PID.TID 0000.0001)  ploadbar=  1.01093845475405E+05
 cg2d: Sum(rhs),rhsMax =  -4.63960222957610E+01  1.79296719224604E+00
(PID.TID 0000.0001)  ploadbar=  1.01095812883927E+05
 cg2d: Sum(rhs),rhsMax =  -4.61299738894430E+01  1.80371359778017E+00
(PID.TID 0000.0001)  ploadbar=  1.01097780292449E+05
 cg2d: Sum(rhs),rhsMax =  -4.58578817067557E+01  1.81483160502285E+00
(PID.TID 0000.0001)  ploadbar=  1.01099747700971E+05
 cg2d: Sum(rhs),rhsMax =  -4.55999937981627E+01  1.82552607549522E+00
(PID.TID 0000.0001)  ploadbar=  1.01101715109494E+05
 cg2d: Sum(rhs),rhsMax =  -4.53707642765559E+01  1.83519779275311E+00
(PID.TID 0000.0001)  ploadbar=  1.01103682518016E+05
 cg2d: Sum(rhs),rhsMax =  -4.51792164511151E+01  1.84344782608376E+00
(PID.TID 0000.0001)  ploadbar=  1.01105649926538E+05
 cg2d: Sum(rhs),rhsMax =  -4.50270893885750E+01  1.85023877294757E+00
(PID.TID 0000.0001)  ploadbar=  1.01107899705279E+05
 cg2d: Sum(rhs),rhsMax =  -4.49341287774673E+01  1.85471958474432E+00
(PID.TID 0000.0001)  ploadbar=  1.01110149484020E+05
 cg2d: Sum(rhs),rhsMax =  -4.49617709697045E+01  1.85433126754101E+00
(PID.TID 0000.0001)  ploadbar=  1.01112399262761E+05
 cg2d: Sum(rhs),rhsMax =  -4.51045486219759E+01  1.84931230484883E+00
(PID.TID 0000.0001)  ploadbar=  1.01114649041502E+05
 cg2d: Sum(rhs),rhsMax =  -4.53504776622084E+01  1.84023587087925E+00
(PID.TID 0000.0001)  ploadbar=  1.01116898820244E+05
 cg2d: Sum(rhs),rhsMax =  -4.56877904500232E+01  1.82769534497790E+00
(PID.TID 0000.0001)  ploadbar=  1.01119148598985E+05
 cg2d: Sum(rhs),rhsMax =  -4.62216597271974E+01  1.80752124030963E+00
(PID.TID 0000.0001)  ploadbar=  1.01120885302175E+05
 cg2d: Sum(rhs),rhsMax =  -4.69057824694704E+01  1.78198138001858E+00
(PID.TID 0000.0001)  ploadbar=  1.01122622005365E+05
 cg2d: Sum(rhs),rhsMax =  -4.66689639301574E+01  1.79175183410107E+00
(PID.TID 0000.0001)  ploadbar=  1.01124358708555E+05
 cg2d: Sum(rhs),rhsMax =  -4.71840658990359E+01  1.77281714335000E+00
(PID.TID 0000.0001)  ploadbar=  1.01126095411746E+05
 cg2d: Sum(rhs),rhsMax =  -4.78895121586269E+01  1.74723093402947E+00
(PID.TID 0000.0001)  ploadbar=  1.01127832114936E+05
 cg2d: Sum(rhs),rhsMax =  -4.87248836335807E+01  1.71770936518245E+00
(PID.TID 0000.0001)  ploadbar=  1.01129568818126E+05
 cg2d: Sum(rhs),rhsMax =  -4.97045755957513E+01  1.68432140295159E+00
(PID.TID 0000.0001)  ploadbar=  1.01130105117164E+05
 cg2d: Sum(rhs),rhsMax =  -5.08803992497609E+01  1.64589554822515E+00
(PID.TID 0000.0001)  ploadbar=  1.01130641416202E+05
 cg2d: Sum(rhs),rhsMax =  -5.22022795597150E+01  1.60474382685057E+00
(PID.TID 0000.0001)  ploadbar=  1.01131177715239E+05
 cg2d: Sum(rhs),rhsMax =  -5.26255482485365E+01  1.59239401385980E+00
(PID.TID 0000.0001)  ploadbar=  1.01131714014277E+05
 cg2d: Sum(rhs),rhsMax =  -5.08510634305619E+01  1.64856676602662E+00
(PID.TID 0000.0001)  ploadbar=  1.01132250313315E+05
 cg2d: Sum(rhs),rhsMax =  -4.74364727310428E+01  1.76790503716919E+00
(PID.TID 0000.0001)  ploadbar=  1.01132786612352E+05
 cg2d: Sum(rhs),rhsMax =  -4.47270243161905E+01  1.87566313626211E+00
(PID.TID 0000.0001)  ploadbar=  1.01133755086817E+05
 cg2d: Sum(rhs),rhsMax =  -4.30628668675061E+01  1.94878445790135E+00
(PID.TID 0000.0001)  ploadbar=  1.01134723561282E+05
 cg2d: Sum(rhs),rhsMax =  -4.17138099683379E+01  2.01242050713140E+00
(PID.TID 0000.0001)  ploadbar=  1.01135692035747E+05
 cg2d: Sum(rhs),rhsMax =  -4.06371580396674E+01  2.06631772479117E+00
(PID.TID 0000.0001)  ploadbar=  1.01136660510212E+05
 cg2d: Sum(rhs),rhsMax =  -3.98126342750338E+01  2.10965447690528E+00
(PID.TID 0000.0001)  ploadbar=  1.01137628984676E+05
 cg2d: Sum(rhs),rhsMax =  -3.92338706595164E+01  2.14127591764138E+00
(PID.TID 0000.0001)  ploadbar=  1.01138597459141E+05
 cg2d: Sum(rhs),rhsMax =  -3.89368420378560E+01  2.15818818346053E+00
(PID.TID 0000.0001)  ploadbar=  1.01139760065705E+05
 cg2d: Sum(rhs),rhsMax =  -3.89610059559201E+01  2.15749585830761E+00
(PID.TID 0000.0001)  ploadbar=  1.01140922672269E+05
 cg2d: Sum(rhs),rhsMax =  -3.90755231010450E+01  2.15188435758370E+00
(PID.TID 0000.0001)  ploadbar=  1.01142085278833E+05
 cg2d: Sum(rhs),rhsMax =  -3.89821020173040E+01  2.15782947048265E+00
(PID.TID 0000.0001)  ploadbar=  1.01143247885397E+05
 cg2d: Sum(rhs),rhsMax =  -3.87237932291734E+01  2.17309237210623E+00
(PID.TID 0000.0001)  ploadbar=  1.01144410491961E+05
 cg2d: Sum(rhs),rhsMax =  -3.88160518109385E+01  2.16887217907224E+00
(PID.TID 0000.0001)  ploadbar=  1.01145573098525E+05
 cg2d: Sum(rhs),rhsMax =  -3.90643932393392E+01  2.15595721794810E+00
(PID.TID 0000.0001)  ploadbar=  1.01146941831443E+05
 cg2d: Sum(rhs),rhsMax =  -3.93588969868300E+01  2.14062054193871E+00
(PID.TID 0000.0001)  ploadbar=  1.01148310564361E+05
 cg2d: Sum(rhs),rhsMax =  -3.96071159188928E+01  2.12792869105949E+00
(PID.TID 0000.0001)  ploadbar=  1.01149679297279E+05
 cg2d: Sum(rhs),rhsMax =  -3.97939993612932E+01  2.11859343544540E+00
(PID.TID 0000.0001)  ploadbar=  1.01151048030197E+05
 cg2d: Sum(rhs),rhsMax =  -4.00114317873172E+01  2.10767685466895E+00
(PID.TID 0000.0001)  ploadbar=  1.01152416763115E+05
 cg2d: Sum(rhs),rhsMax =  -4.01764868538216E+01  2.09954885259919E+00
(PID.TID 0000.0001)  ploadbar=  1.01153785496033E+05
 cg2d: Sum(rhs),rhsMax =  -4.03269940051886E+01  2.09233724051764E+00
(PID.TID 0000.0001)  ploadbar=  1.01154108005937E+05
 cg2d: Sum(rhs),rhsMax =  -4.05006330143537E+01  2.08408338916140E+00
(PID.TID 0000.0001)  ploadbar=  1.01154430515842E+05
 cg2d: Sum(rhs),rhsMax =  -4.07278082029804E+01  2.07326807459744E+00
(PID.TID 0000.0001)  ploadbar=  1.01154753025747E+05
 cg2d: Sum(rhs),rhsMax =  -4.10150053334658E+01  2.05965216748122E+00
(PID.TID 0000.0001)  ploadbar=  1.01155075535652E+05
 cg2d: Sum(rhs),rhsMax =  -4.13452268450694E+01  2.04419541689890E+00
(PID.TID 0000.0001)  ploadbar=  1.01155398045557E+05
 cg2d: Sum(rhs),rhsMax =  -4.16830595758278E+01  2.02871427821584E+00
(PID.TID 0000.0001)  ploadbar=  1.01155720555462E+05
 cg2d: Sum(rhs),rhsMax =  -4.17222519838730E+01  2.02783235893943E+00
(PID.TID 0000.0001)  ploadbar=  1.01155021205440E+05
 cg2d: Sum(rhs),rhsMax =  -4.14642094750071E+01  2.04141816368546E+00
(PID.TID 0000.0001)  ploadbar=  1.01154321855418E+05
 cg2d: Sum(rhs),rhsMax =  -4.09152166650413E+01  2.06973423839281E+00
(PID.TID 0000.0001)  ploadbar=  1.01153622505397E+05
 cg2d: Sum(rhs),rhsMax =  -4.07859693169490E+01  2.07716895104065E+00
(PID.TID 0000.0001)  ploadbar=  1.01152923155375E+05
 cg2d: Sum(rhs),rhsMax =  -4.14691387156943E+01  2.04376941647685E+00
(PID.TID 0000.0001)  ploadbar=  1.01152223805354E+05
 cg2d: Sum(rhs),rhsMax =  -4.19433087957524E+01  2.02143630639603E+00
(PID.TID 0000.0001)  ploadbar=  1.01151524455332E+05
 cg2d: Sum(rhs),rhsMax =  -4.23058583382264E+01  2.00491290715046E+00
(PID.TID 0000.0001)  ploadbar=  1.01151413204330E+05
 cg2d: Sum(rhs),rhsMax =  -4.27098762189830E+01  1.98677626894781E+00
(PID.TID 0000.0001)  ploadbar=  1.01151301953328E+05
 cg2d: Sum(rhs),rhsMax =  -4.30850325490291E+01  1.97034333085105E+00
(PID.TID 0000.0001)  ploadbar=  1.01151190702325E+05
 cg2d: Sum(rhs),rhsMax =  -4.34146496494907E+01  1.95629481928197E+00
(PID.TID 0000.0001)  ploadbar=  1.01151079451323E+05
 cg2d: Sum(rhs),rhsMax =  -4.36961265093294E+01  1.94465031921545E+00
(PID.TID 0000.0001)  ploadbar=  1.01150968200321E+05
 cg2d: Sum(rhs),rhsMax =  -4.39299871882957E+01  1.93530457745178E+00
(PID.TID 0000.0001)  ploadbar=  1.01150856949319E+05
 cg2d: Sum(rhs),rhsMax =  -4.40239867321275E+01  1.93204745478238E+00
(PID.TID 0000.0001)  ploadbar=  1.01150933448049E+05
 cg2d: Sum(rhs),rhsMax =  -4.41256764792309E+01  1.92833743658754E+00
(PID.TID 0000.0001)  ploadbar=  1.01151009946780E+05
 cg2d: Sum(rhs),rhsMax =  -4.42338112241619E+01  1.92423691673152E+00
(PID.TID 0000.0001)  ploadbar=  1.01151086445511E+05
 cg2d: Sum(rhs),rhsMax =  -4.43345462319023E+01  1.92035455453452E+00
(PID.TID 0000.0001)  ploadbar=  1.01151162944242E+05
 cg2d: Sum(rhs),rhsMax =  -4.44260018957866E+01  1.91677500912470E+00
(PID.TID 0000.0001)  ploadbar=  1.01151239442973E+05
 cg2d: Sum(rhs),rhsMax =  -4.44772586713100E+01  1.91483007538989E+00
(PID.TID 0000.0001)  ploadbar=  1.01151315941703E+05
 cg2d: Sum(rhs),rhsMax =  -4.45352148984335E+01  1.91266404710349E+00
(PID.TID 0000.0001)  ploadbar=  1.01151207335566E+05
 cg2d: Sum(rhs),rhsMax =  -4.45605641684821E+01  1.91196158812116E+00
(PID.TID 0000.0001)  ploadbar=  1.01151098729429E+05
 cg2d: Sum(rhs),rhsMax =  -4.45667567752685E+01  1.91214559853059E+00
(PID.TID 0000.0001)  ploadbar=  1.01150990123292E+05
 cg2d: Sum(rhs),rhsMax =  -4.45354624757386E+01  1.91400524158856E+00
(PID.TID 0000.0001)  ploadbar=  1.01150881517155E+05
 cg2d: Sum(rhs),rhsMax =  -4.44962021806455E+01  1.91627627988439E+00
(PID.TID 0000.0001)  ploadbar=  1.01150772911017E+05
 cg2d: Sum(rhs),rhsMax =  -4.45050537672204E+01  1.91654009036396E+00
(PID.TID 0000.0001)  ploadbar=  1.01150664304880E+05
 cg2d: Sum(rhs),rhsMax =  -4.45341287516345E+01  1.91592916465313E+00
(PID.TID 0000.0001)  ploadbar=  1.01150728476681E+05
 cg2d: Sum(rhs),rhsMax =  -4.46168621668680E+01  1.91301285859421E+00
(PID.TID 0000.0001)  ploadbar=  1.01150792648481E+05
 cg2d: Sum(rhs),rhsMax =  -4.47597933166554E+01  1.90754419440958E+00
(PID.TID 0000.0001)  ploadbar=  1.01150856820282E+05
 cg2d: Sum(rhs),rhsMax =  -4.48004106809066E+01  1.90646559108246E+00
(PID.TID 0000.0001)  ploadbar=  1.01150920992082E+05
 cg2d: Sum(rhs),rhsMax =  -4.49310634876096E+01  1.90159019317526E+00
(PID.TID 0000.0001)  ploadbar=  1.01150985163883E+05
 cg2d: Sum(rhs),rhsMax =  -4.51509500241921E+01  1.89301196306106E+00
(PID.TID 0000.0001)  ploadbar=  1.01151049335684E+05
 cg2d: Sum(rhs),rhsMax =  -4.52761524373289E+01  1.88850950665372E+00
(PID.TID 0000.0001)  ploadbar=  1.01151559616822E+05
 cg2d: Sum(rhs),rhsMax =  -4.53403780011674E+01  1.88661376868347E+00
(PID.TID 0000.0001)  ploadbar=  1.01152069897960E+05
 cg2d: Sum(rhs),rhsMax =  -4.55109066979004E+01  1.88037173564855E+00
(PID.TID 0000.0001)  ploadbar=  1.01152580179098E+05
 cg2d: Sum(rhs),rhsMax =  -4.58785649609706E+01  1.86617619269592E+00
(PID.TID 0000.0001)  ploadbar=  1.01153090460236E+05
 cg2d: Sum(rhs),rhsMax =  -4.64140376087596E+01  1.84556283805014E+00
(PID.TID 0000.0001)  ploadbar=  1.01153600741374E+05
 cg2d: Sum(rhs),rhsMax =  -4.71100065505138E+01  1.81925329529386E+00
(PID.TID 0000.0001)  ploadbar=  1.01154111022512E+05
 cg2d: Sum(rhs),rhsMax =  -4.79819203686472E+01  1.78703841447664E+00
(PID.TID 0000.0001)  ploadbar=  1.01153903974593E+05
 cg2d: Sum(rhs),rhsMax =  -4.90248784938852E+01  1.74975481996770E+00
(PID.TID 0000.0001)  ploadbar=  1.01153696926673E+05
 cg2d: Sum(rhs),rhsMax =  -4.98990298861186E+01  1.71973524783855E+00
(PID.TID 0000.0001)  ploadbar=  1.01153489878753E+05
 cg2d: Sum(rhs),rhsMax =  -5.07852001383215E+01  1.69026707499932E+00
(PID.TID 0000.0001)  ploadbar=  1.01153282830834E+05
 cg2d: Sum(rhs),rhsMax =  -5.17342658324574E+01  1.65970741955250E+00
(PID.TID 0000.0001)  ploadbar=  1.01153075782914E+05
 cg2d: Sum(rhs),rhsMax =  -5.24241061522181E+01  1.63822961245877E+00
(PID.TID 0000.0001)  ploadbar=  1.01152868734994E+05
 cg2d: Sum(rhs),rhsMax =  -5.29829644444955E+01  1.62135713453201E+00
(PID.TID 0000.0001)  ploadbar=  1.01152248052039E+05
 cg2d: Sum(rhs),rhsMax =  -5.36062297954181E+01  1.60295903016420E+00
(PID.TID 0000.0001)  ploadbar=  1.01151627369084E+05
 cg2d: Sum(rhs),rhsMax =  -5.43000189860214E+01  1.58297735970452E+00
(PID.TID 0000.0001)  ploadbar=  1.01151006686129E+05
 cg2d: Sum(rhs),rhsMax =  -5.50516733098086E+01  1.56190870751586E+00
(PID.TID 0000.0001)  ploadbar=  1.01150386003174E+05
 cg2d: Sum(rhs),rhsMax =  -5.53283978436935E+01  1.55469158193480E+00
(PID.TID 0000.0001)  ploadbar=  1.01149765320219E+05
 cg2d: Sum(rhs),rhsMax =  -5.48905023952545E+01  1.56774987007501E+00
(PID.TID 0000.0001)  ploadbar=  1.01149144637264E+05
 cg2d: Sum(rhs),rhsMax =  -5.44644109261558E+01  1.58064552703760E+00
(PID.TID 0000.0001)  ploadbar=  1.01149041557133E+05
 cg2d: Sum(rhs),rhsMax =  -5.40684060238085E+01  1.59282776757491E+00
(PID.TID 0000.0001)  ploadbar=  1.01148938477002E+05
 cg2d: Sum(rhs),rhsMax =  -5.37022900557820E+01  1.60427214734686E+00
(PID.TID 0000.0001)  ploadbar=  1.01148835396871E+05
 cg2d: Sum(rhs),rhsMax =  -5.33860502372605E+01  1.61434181368196E+00
(PID.TID 0000.0001)  ploadbar=  1.01148732316740E+05
 cg2d: Sum(rhs),rhsMax =  -5.31524506507889E+01  1.62198501793641E+00
(PID.TID 0000.0001)  ploadbar=  1.01148629236609E+05
 cg2d: Sum(rhs),rhsMax =  -5.30236983693292E+01  1.62645577683950E+00
(PID.TID 0000.0001)  ploadbar=  1.01148526156478E+05
 cg2d: Sum(rhs),rhsMax =  -5.30132502947609E+01  1.62733679618855E+00
(PID.TID 0000.0001)  ploadbar=  1.01148926324936E+05
 cg2d: Sum(rhs),rhsMax =  -5.31112169667182E+01  1.62492217313528E+00
(PID.TID 0000.0001)  ploadbar=  1.01149326493394E+05
 cg2d: Sum(rhs),rhsMax =  -5.33008808694027E+01  1.61975533690297E+00
(PID.TID 0000.0001)  ploadbar=  1.01149726661853E+05
 cg2d: Sum(rhs),rhsMax =  -5.35525100218356E+01  1.61279056726391E+00
(PID.TID 0000.0001)  ploadbar=  1.01150126830311E+05
 cg2d: Sum(rhs),rhsMax =  -5.38545685101569E+01  1.60442613992607E+00
(PID.TID 0000.0001)  ploadbar=  1.01150526998770E+05
 cg2d: Sum(rhs),rhsMax =  -5.41954321655201E+01  1.59504948245700E+00
(PID.TID 0000.0001)  ploadbar=  1.01150927167228E+05
 cg2d: Sum(rhs),rhsMax =  -5.45640471975941E+01  1.58490808671948E+00
(PID.TID 0000.0001)  ploadbar=  1.01150738982613E+05
 cg2d: Sum(rhs),rhsMax =  -5.49818844896544E+01  1.57341765996535E+00
(PID.TID 0000.0001)  ploadbar=  1.01150550797997E+05
 cg2d: Sum(rhs),rhsMax =  -5.54155402943721E+01  1.56158075284052E+00
(PID.TID 0000.0001)  ploadbar=  1.01150362613382E+05
 cg2d: Sum(rhs),rhsMax =  -5.57417077493638E+01  1.55284243096520E+00
(PID.TID 0000.0001)  ploadbar=  1.01150174428767E+05
 cg2d: Sum(rhs),rhsMax =  -5.54770133961154E+01  1.56058055982716E+00
(PID.TID 0000.0001)  ploadbar=  1.01149986244151E+05
 cg2d: Sum(rhs),rhsMax =  -5.58346945780902E+01  1.55084155988998E+00
(PID.TID 0000.0001)  ploadbar=  1.01149798059536E+05
 cg2d: Sum(rhs),rhsMax =  -5.62404148915626E+01  1.53995329080969E+00
(PID.TID 0000.0001)  ploadbar=  1.01149177593360E+05
 cg2d: Sum(rhs),rhsMax =  -5.66611525012569E+01  1.52885814895311E+00
(PID.TID 0000.0001)  ploadbar=  1.01148557127184E+05
 cg2d: Sum(rhs),rhsMax =  -5.71166796443963E+01  1.51704491539369E+00
(PID.TID 0000.0001)  ploadbar=  1.01147936661008E+05
 cg2d: Sum(rhs),rhsMax =  -5.76119174123264E+01  1.50442587207785E+00
(PID.TID 0000.0001)  ploadbar=  1.01147316194832E+05
 cg2d: Sum(rhs),rhsMax =  -5.81186614497437E+01  1.49177347997543E+00
(PID.TID 0000.0001)  ploadbar=  1.01146695728657E+05
 cg2d: Sum(rhs),rhsMax =  -5.86402847251256E+01  1.47900949846354E+00
(PID.TID 0000.0001)  ploadbar=  1.01146075262481E+05
 cg2d: Sum(rhs),rhsMax =  -5.91544194473337E+01  1.46664297150951E+00
(PID.TID 0000.0001)  ploadbar=  1.01146305662406E+05
 cg2d: Sum(rhs),rhsMax =  -5.96749155172416E+01  1.45431918172948E+00
(PID.TID 0000.0001)  ploadbar=  1.01146536062331E+05
 cg2d: Sum(rhs),rhsMax =  -6.02040435580238E+01  1.44198848683022E+00
(PID.TID 0000.0001)  ploadbar=  1.01146766462256E+05
 cg2d: Sum(rhs),rhsMax =  -6.07428905435950E+01  1.42963508095328E+00
(PID.TID 0000.0001)  ploadbar=  1.01146996862181E+05
 cg2d: Sum(rhs),rhsMax =  -6.12905711644691E+01  1.41729096675257E+00
(PID.TID 0000.0001)  ploadbar=  1.01147227262106E+05
 cg2d: Sum(rhs),rhsMax =  -6.18441757412651E+01  1.40503427203002E+00
(PID.TID 0000.0001)  ploadbar=  1.01147457662031E+05
 cg2d: Sum(rhs),rhsMax =  -6.24512423554831E+01  1.39184263253409E+00
(PID.TID 0000.0001)  ploadbar=  1.01148334107387E+05
 cg2d: Sum(rhs),rhsMax =  -6.30904401381736E+01  1.37824128112941E+00
(PID.TID 0000.0001)  ploadbar=  1.01149210552743E+05
 cg2d: Sum(rhs),rhsMax =  -6.37619566983212E+01  1.36425952942035E+00
(PID.TID 0000.0001)  ploadbar=  1.01150086998099E+05
 cg2d: Sum(rhs),rhsMax =  -6.38574744831664E+01  1.36278909862016E+00
(PID.TID 0000.0001)  ploadbar=  1.01150963443455E+05
 cg2d: Sum(rhs),rhsMax =  -6.33891478511754E+01  1.37346955126800E+00
(PID.TID 0000.0001)  ploadbar=  1.01151839888811E+05
 cg2d: Sum(rhs),rhsMax =  -6.29327029366864E+01  1.38408448599640E+00
(PID.TID 0000.0001)  ploadbar=  1.01152716334167E+05
 cg2d: Sum(rhs),rhsMax =  -6.25199675473580E+01  1.39380606132143E+00
(PID.TID 0000.0001)  ploadbar=  1.01153021863281E+05
 cg2d: Sum(rhs),rhsMax =  -6.21448385412399E+01  1.40273417170461E+00
(PID.TID 0000.0001)  ploadbar=  1.01153327392395E+05
 cg2d: Sum(rhs),rhsMax =  -6.18107819261158E+01  1.41075981029792E+00
(PID.TID 0000.0001)  ploadbar=  1.01153632921510E+05
 cg2d: Sum(rhs),rhsMax =  -6.15109460883541E+01  1.41801056161249E+00
(PID.TID 0000.0001)  ploadbar=  1.01153938450624E+05
 cg2d: Sum(rhs),rhsMax =  -6.12274876890038E+01  1.42487805441091E+00
(PID.TID 0000.0001)  ploadbar=  1.01154243979738E+05
 cg2d: Sum(rhs),rhsMax =  -6.09365895266360E+01  1.43191341076372E+00
(PID.TID 0000.0001)  ploadbar=  1.01154549508852E+05
 cg2d: Sum(rhs),rhsMax =  -6.06234051916335E+01  1.43959925259280E+00
(PID.TID 0000.0001)  ploadbar=  1.01155051458018E+05
 cg2d: Sum(rhs),rhsMax =  -6.02946228286371E+01  1.44779445456407E+00
(PID.TID 0000.0001)  ploadbar=  1.01155553407184E+05
 cg2d: Sum(rhs),rhsMax =  -5.99509075213166E+01  1.45649750390456E+00
(PID.TID 0000.0001)  ploadbar=  1.01156055356350E+05
 cg2d: Sum(rhs),rhsMax =  -5.95998704570401E+01  1.46553777082257E+00
(PID.TID 0000.0001)  ploadbar=  1.01156557305516E+05
 cg2d: Sum(rhs),rhsMax =  -5.92548612366472E+01  1.47459126806984E+00
(PID.TID 0000.0001)  ploadbar=  1.01157059254681E+05
 cg2d: Sum(rhs),rhsMax =  -5.89340590473602E+01  1.48319640993177E+00
(PID.TID 0000.0001)  ploadbar=  1.01157561203847E+05
 cg2d: Sum(rhs),rhsMax =  -5.86543077725399E+01  1.49084590456723E+00
(PID.TID 0000.0001)  ploadbar=  1.01156788780250E+05
 cg2d: Sum(rhs),rhsMax =  -5.84347008465244E+01  1.49702014860788E+00
(PID.TID 0000.0001)  ploadbar=  1.01156016356653E+05
 cg2d: Sum(rhs),rhsMax =  -5.82714641193202E+01  1.50178666326100E+00
(PID.TID 0000.0001)  ploadbar=  1.01155243933056E+05
 cg2d: Sum(rhs),rhsMax =  -5.81488251490013E+01  1.50553487937417E+00
(PID.TID 0000.0001)  ploadbar=  1.01154471509459E+05
 cg2d: Sum(rhs),rhsMax =  -5.80431920285497E+01  1.50887148386739E+00
(PID.TID 0000.0001)  ploadbar=  1.01153699085862E+05
 cg2d: Sum(rhs),rhsMax =  -5.79307753981801E+01  1.51241202022841E+00
(PID.TID 0000.0001)  ploadbar=  1.01152926662265E+05
 cg2d: Sum(rhs),rhsMax =  -5.77793511412638E+01  1.51701259901339E+00
(PID.TID 0000.0001)  ploadbar=  1.01153450138075E+05
 cg2d: Sum(rhs),rhsMax =  -5.75971652637991E+01  1.52247364250986E+00
(PID.TID 0000.0001)  ploadbar=  1.01153973613885E+05
 cg2d: Sum(rhs),rhsMax =  -5.73890322646796E+01  1.52868182990665E+00
(PID.TID 0000.0001)  ploadbar=  1.01154497089695E+05
 cg2d: Sum(rhs),rhsMax =  -5.71677320875434E+01  1.53531271714727E+00
(PID.TID 0000.0001)  ploadbar=  1.01155020565505E+05
 cg2d: Sum(rhs),rhsMax =  -5.69501233882647E+01  1.54192429726957E+00
(PID.TID 0000.0001)  ploadbar=  1.01155544041316E+05
 cg2d: Sum(rhs),rhsMax =  -5.67525113118027E+01  1.54806827854548E+00
(PID.TID 0000.0001)  ploadbar=  1.01156067517126E+05
 cg2d: Sum(rhs),rhsMax =  -5.66006560232075E+01  1.55291965431822E+00
(PID.TID 0000.0001)  ploadbar=  1.01156011617603E+05
 cg2d: Sum(rhs),rhsMax =  -5.64924402325316E+01  1.55651612081336E+00
(PID.TID 0000.0001)  ploadbar=  1.01155955718080E+05
 cg2d: Sum(rhs),rhsMax =  -5.64284595901833E+01  1.55882872196321E+00
(PID.TID 0000.0001)  ploadbar=  1.01155899818557E+05
 cg2d: Sum(rhs),rhsMax =  -5.64004621578952E+01  1.56007933181289E+00
(PID.TID 0000.0001)  ploadbar=  1.01155843919034E+05
 cg2d: Sum(rhs),rhsMax =  -5.63930782663744E+01  1.56069480839649E+00
(PID.TID 0000.0001)  ploadbar=  1.01155788019511E+05
 cg2d: Sum(rhs),rhsMax =  -5.63867833130891E+01  1.56121480565294E+00
(PID.TID 0000.0001)  ploadbar=  1.01155732119988E+05
 cg2d: Sum(rhs),rhsMax =  -5.63866531073691E+01  1.56164499735628E+00
(PID.TID 0000.0001)  ploadbar=  1.01154206823760E+05
 cg2d: Sum(rhs),rhsMax =  -5.63958662984436E+01  1.56189675603555E+00
(PID.TID 0000.0001)  ploadbar=  1.01152681527531E+05
 cg2d: Sum(rhs),rhsMax =  -5.64064557014146E+01  1.56219198633853E+00
(PID.TID 0000.0001)  ploadbar=  1.01151156231302E+05
 cg2d: Sum(rhs),rhsMax =  -5.64281459442368E+01  1.56226291500983E+00
(PID.TID 0000.0001)  ploadbar=  1.01149630935073E+05
 cg2d: Sum(rhs),rhsMax =  -5.65136014543156E+01  1.56065338867822E+00
(PID.TID 0000.0001)  ploadbar=  1.01148105638844E+05
 cg2d: Sum(rhs),rhsMax =  -5.66105084102409E+01  1.55881509196893E+00
(PID.TID 0000.0001)  ploadbar=  1.01146580342616E+05
 cg2d: Sum(rhs),rhsMax =  -5.67028593503389E+01  1.55707984670748E+00
(PID.TID 0000.0001)  ploadbar=  1.01146322106598E+05
 cg2d: Sum(rhs),rhsMax =  -5.68394363403521E+01  1.55411175070680E+00
(PID.TID 0000.0001)  ploadbar=  1.01146063870579E+05
 cg2d: Sum(rhs),rhsMax =  -5.70267737126823E+01  1.54975685984191E+00
(PID.TID 0000.0001)  ploadbar=  1.01145805634561E+05
 cg2d: Sum(rhs),rhsMax =  -5.72514522945198E+01  1.54440709728269E+00
(PID.TID 0000.0001)  ploadbar=  1.01145547398543E+05
 cg2d: Sum(rhs),rhsMax =  -5.74962546285532E+01  1.53854229431404E+00
(PID.TID 0000.0001)  ploadbar=  1.01145289162525E+05
 cg2d: Sum(rhs),rhsMax =  -5.77545520226938E+01  1.53235005596507E+00
(PID.TID 0000.0001)  ploadbar=  1.01145030926507E+05
 cg2d: Sum(rhs),rhsMax =  -5.80323397273226E+01  1.52576425042061E+00
(PID.TID 0000.0001)  ploadbar=  1.01145354874309E+05
 cg2d: Sum(rhs),rhsMax =  -5.78581853168262E+01  1.53117328097483E+00
(PID.TID 0000.0001)  ploadbar=  1.01145678822110E+05
 cg2d: Sum(rhs),rhsMax =  -5.76031676656358E+01  1.53883675013666E+00
(PID.TID 0000.0001)  ploadbar=  1.01146002769912E+05
 cg2d: Sum(rhs),rhsMax =  -5.73311535032534E+01  1.54709010666593E+00
(PID.TID 0000.0001)  ploadbar=  1.01146326717713E+05
 cg2d: Sum(rhs),rhsMax =  -5.70617390204363E+01  1.55541701310189E+00
(PID.TID 0000.0001)  ploadbar=  1.01146650665515E+05
 cg2d: Sum(rhs),rhsMax =  -5.68127891547141E+01  1.56332348044169E+00
(PID.TID 0000.0001)  ploadbar=  1.01146974613316E+05
 cg2d: Sum(rhs),rhsMax =  -5.65933220580275E+01  1.57040819113322E+00
(PID.TID 0000.0001)  ploadbar=  1.01147345711542E+05
 cg2d: Sum(rhs),rhsMax =  -5.64138335204900E+01  1.57635630743636E+00
(PID.TID 0000.0001)  ploadbar=  1.01147716809768E+05
 cg2d: Sum(rhs),rhsMax =  -5.62674282943138E+01  1.58134007067605E+00
(PID.TID 0000.0001)  ploadbar=  1.01148087907994E+05
 cg2d: Sum(rhs),rhsMax =  -5.61454507210467E+01  1.58558964313853E+00
(PID.TID 0000.0001)  ploadbar=  1.01148459006220E+05
 cg2d: Sum(rhs),rhsMax =  -5.60381070701710E+01  1.58937618865645E+00
(PID.TID 0000.0001)  ploadbar=  1.01148830104446E+05
 cg2d: Sum(rhs),rhsMax =  -5.59382939462056E+01  1.59289925969232E+00
(PID.TID 0000.0001)  ploadbar=  1.01149201202671E+05
 cg2d: Sum(rhs),rhsMax =  -5.58646640260084E+01  1.59575418887844E+00
(PID.TID 0000.0001)  ploadbar=  1.01150089288684E+05
 cg2d: Sum(rhs),rhsMax =  -5.58154302162004E+01  1.59798791190630E+00
(PID.TID 0000.0001)  ploadbar=  1.01150977374696E+05
 cg2d: Sum(rhs),rhsMax =  -5.57890759507026E+01  1.59964025988737E+00
(PID.TID 0000.0001)  ploadbar=  1.01151865460709E+05
 cg2d: Sum(rhs),rhsMax =  -5.57869733775219E+01  1.60067039409110E+00
(PID.TID 0000.0001)  ploadbar=  1.01152753546721E+05
 cg2d: Sum(rhs),rhsMax =  -5.58067090867363E+01  1.60114443684304E+00
(PID.TID 0000.0001)  ploadbar=  1.01153641632734E+05
 cg2d: Sum(rhs),rhsMax =  -5.58440586950066E+01  1.60117927023994E+00
(PID.TID 0000.0001)  ploadbar=  1.01154529718746E+05
 cg2d: Sum(rhs),rhsMax =  -5.58673924442251E+01  1.60162127816319E+00
(PID.TID 0000.0001)  ploadbar=  1.01155681263170E+05
 cg2d: Sum(rhs),rhsMax =  -5.58765267978539E+01  1.60248083480429E+00
(PID.TID 0000.0001)  ploadbar=  1.01156832807593E+05
 cg2d: Sum(rhs),rhsMax =  -5.58728572492722E+01  1.60372427957021E+00
(PID.TID 0000.0001)  ploadbar=  1.01157984352016E+05
 cg2d: Sum(rhs),rhsMax =  -5.58592762795603E+01  1.60527794311834E+00
(PID.TID 0000.0001)  ploadbar=  1.01159135896440E+05
 cg2d: Sum(rhs),rhsMax =  -5.58421973054122E+01  1.60695796190505E+00
(PID.TID 0000.0001)  ploadbar=  1.01160287440863E+05
 cg2d: Sum(rhs),rhsMax =  -5.58155693067309E+01  1.60893629141368E+00
(PID.TID 0000.0001)  ploadbar=  1.01161438985287E+05
 cg2d: Sum(rhs),rhsMax =  -5.57902270778422E+01  1.61092632918867E+00
(PID.TID 0000.0001)  ploadbar=  1.01161319897862E+05
 cg2d: Sum(rhs),rhsMax =  -5.58076928992699E+01  1.61172848059819E+00
(PID.TID 0000.0001)  ploadbar=  1.01161200810437E+05
 cg2d: Sum(rhs),rhsMax =  -5.59023804396553E+01  1.61035317523795E+00
(PID.TID 0000.0001)  ploadbar=  1.01161081723012E+05
 cg2d: Sum(rhs),rhsMax =  -5.57418219003586E+01  1.61640304641226E+00
(PID.TID 0000.0001)  ploadbar=  1.01160962635587E+05
 cg2d: Sum(rhs),rhsMax =  -5.55261944248092E+01  1.62414998680714E+00
(PID.TID 0000.0001)  ploadbar=  1.01160843548162E+05
 cg2d: Sum(rhs),rhsMax =  -5.53480821092260E+01  1.63090400366800E+00
(PID.TID 0000.0001)  ploadbar=  1.01160724460737E+05
 cg2d: Sum(rhs),rhsMax =  -5.52131493849473E+01  1.63635503892645E+00
(PID.TID 0000.0001)  ploadbar=  1.01161073051044E+05
 cg2d: Sum(rhs),rhsMax =  -5.51317532946271E+01  1.64017113888332E+00
(PID.TID 0000.0001)  ploadbar=  1.01161421641352E+05
 cg2d: Sum(rhs),rhsMax =  -5.51057656623123E+01  1.64227996149808E+00
(PID.TID 0000.0001)  ploadbar=  1.01161770231659E+05
 cg2d: Sum(rhs),rhsMax =  -5.51304981112793E+01  1.64281443571805E+00
(PID.TID 0000.0001)  ploadbar=  1.01162118821966E+05
 cg2d: Sum(rhs),rhsMax =  -5.52015336802594E+01  1.64191211483085E+00
(PID.TID 0000.0001)  ploadbar=  1.01162467412273E+05
 cg2d: Sum(rhs),rhsMax =  -5.53155649107177E+01  1.63967996803784E+00
(PID.TID 0000.0001)  ploadbar=  1.01162816002581E+05
 cg2d: Sum(rhs),rhsMax =  -5.54557002991858E+01  1.63672288105657E+00
(PID.TID 0000.0001)  ploadbar=  1.01163528220219E+05
 cg2d: Sum(rhs),rhsMax =  -5.55992708118166E+01  1.63371743689127E+00
(PID.TID 0000.0001)  ploadbar=  1.01164240437858E+05
 cg2d: Sum(rhs),rhsMax =  -5.57307487129170E+01  1.63112006258809E+00
(PID.TID 0000.0001)  ploadbar=  1.01164952655496E+05
 cg2d: Sum(rhs),rhsMax =  -5.58428307544412E+01  1.62914077155266E+00
(PID.TID 0000.0001)  ploadbar=  1.01165664873135E+05
 cg2d: Sum(rhs),rhsMax =  -5.58937052517850E+01  1.62899311645022E+00
(PID.TID 0000.0001)  ploadbar=  1.01166377090774E+05
 cg2d: Sum(rhs),rhsMax =  -5.58917027602988E+01  1.63043043749912E+00
(PID.TID 0000.0001)  ploadbar=  1.01167089308412E+05
 cg2d: Sum(rhs),rhsMax =  -5.58183977157402E+01  1.63389597913768E+00
(PID.TID 0000.0001)  ploadbar=  1.01166832809566E+05
 cg2d: Sum(rhs),rhsMax =  -5.56851397618725E+01  1.63908412646400E+00
(PID.TID 0000.0001)  ploadbar=  1.01166576310719E+05
 cg2d: Sum(rhs),rhsMax =  -5.55012816148821E+01  1.64575267916434E+00
(PID.TID 0000.0001)  ploadbar=  1.01166319811872E+05
 cg2d: Sum(rhs),rhsMax =  -5.52800339486975E+01  1.65354420673111E+00
(PID.TID 0000.0001)  ploadbar=  1.01166063313026E+05
 cg2d: Sum(rhs),rhsMax =  -5.50338275057844E+01  1.66211736986692E+00
(PID.TID 0000.0001)  ploadbar=  1.01165806814179E+05
 cg2d: Sum(rhs),rhsMax =  -5.47723659206630E+01  1.67119822731285E+00
(PID.TID 0000.0001)  ploadbar=  1.01165550315333E+05
 cg2d: Sum(rhs),rhsMax =  -5.45452092154638E+01  1.67937119533320E+00
(PID.TID 0000.0001)  ploadbar=  1.01165170948991E+05
 cg2d: Sum(rhs),rhsMax =  -5.43685792296982E+01  1.68610751943850E+00
(PID.TID 0000.0001)  ploadbar=  1.01164791582648E+05
 cg2d: Sum(rhs),rhsMax =  -5.42415274844037E+01  1.69140633038198E+00
(PID.TID 0000.0001)  ploadbar=  1.01164412216306E+05
 cg2d: Sum(rhs),rhsMax =  -5.41529438683292E+01  1.69559116429539E+00
(PID.TID 0000.0001)  ploadbar=  1.01164032849964E+05
 cg2d: Sum(rhs),rhsMax =  -5.41260553854081E+01  1.69792066603571E+00
(PID.TID 0000.0001)  ploadbar=  1.01163653483622E+05
 cg2d: Sum(rhs),rhsMax =  -5.41461073981668E+01  1.69885115992692E+00
(PID.TID 0000.0001)  ploadbar=  1.01163274117280E+05
 cg2d: Sum(rhs),rhsMax =  -5.40985386884039E+01  1.70182182144312E+00
(PID.TID 0000.0001)  ploadbar=  1.01162915977276E+05
 cg2d: Sum(rhs),rhsMax =  -5.39898760114653E+01  1.70664062180947E+00
(PID.TID 0000.0001)  ploadbar=  1.01162557837273E+05
 cg2d: Sum(rhs),rhsMax =  -5.38251708610298E+01  1.71317475138929E+00
(PID.TID 0000.0001)  ploadbar=  1.01162199697269E+05
 cg2d: Sum(rhs),rhsMax =  -5.36187800377281E+01  1.72100097459172E+00
(PID.TID 0000.0001)  ploadbar=  1.01161841557265E+05
 cg2d: Sum(rhs),rhsMax =  -5.33904808723314E+01  1.72951373690868E+00
(PID.TID 0000.0001)  ploadbar=  1.01161483417261E+05
 cg2d: Sum(rhs),rhsMax =  -5.30475448763567E+01  1.74177295133328E+00
(PID.TID 0000.0001)  ploadbar=  1.01161125277257E+05
 cg2d: Sum(rhs),rhsMax =  -5.24001642842501E+01  1.76440849432960E+00
(PID.TID 0000.0001)  ploadbar=  1.01160517389184E+05
 cg2d: Sum(rhs),rhsMax =  -5.18323904752435E+01  1.78488937708145E+00
(PID.TID 0000.0001)  ploadbar=  1.01159909501111E+05
 cg2d: Sum(rhs),rhsMax =  -5.13448890936634E+01  1.80302655302846E+00
(PID.TID 0000.0001)  ploadbar=  1.01159301613038E+05
 cg2d: Sum(rhs),rhsMax =  -5.09291454985433E+01  1.81897197354864E+00
(PID.TID 0000.0001)  ploadbar=  1.01158693724965E+05
 cg2d: Sum(rhs),rhsMax =  -5.05699184868504E+01  1.83315487351818E+00
(PID.TID 0000.0001)  ploadbar=  1.01158085836892E+05
 cg2d: Sum(rhs),rhsMax =  -5.02510103690795E+01  1.84608282311177E+00
(PID.TID 0000.0001)  ploadbar=  1.01157477948819E+05
 cg2d: Sum(rhs),rhsMax =  -4.99752760091251E+01  1.85753335606850E+00
(PID.TID 0000.0001)  ploadbar=  1.01157134353646E+05
 cg2d: Sum(rhs),rhsMax =  -4.97229442734433E+01  1.86819510864337E+00
(PID.TID 0000.0001)  ploadbar=  1.01156790758474E+05
 cg2d: Sum(rhs),rhsMax =  -4.94815553106821E+01  1.87851183364028E+00
(PID.TID 0000.0001)  ploadbar=  1.01156447163301E+05
 cg2d: Sum(rhs),rhsMax =  -4.92433606441968E+01  1.88877158931775E+00
(PID.TID 0000.0001)  ploadbar=  1.01156103568128E+05
 cg2d: Sum(rhs),rhsMax =  -4.90062579690710E+01  1.89905140489825E+00
(PID.TID 0000.0001)  ploadbar=  1.01155759972955E+05
 cg2d: Sum(rhs),rhsMax =  -4.87728106624686E+01  1.90925006893999E+00
(PID.TID 0000.0001)  ploadbar=  1.01155416377783E+05
 cg2d: Sum(rhs),rhsMax =  -4.85464296653550E+01  1.91927941257681E+00
(PID.TID 0000.0001)  ploadbar=  1.01155505699089E+05
 cg2d: Sum(rhs),rhsMax =  -4.83331453181336E+01  1.92888972059839E+00
(PID.TID 0000.0001)  ploadbar=  1.01155595020395E+05
 cg2d: Sum(rhs),rhsMax =  -4.81360595810785E+01  1.93794389297797E+00
(PID.TID 0000.0001)  ploadbar=  1.01155684341701E+05
 cg2d: Sum(rhs),rhsMax =  -4.79590032674328E+01  1.94626948116190E+00
(PID.TID 0000.0001)  ploadbar=  1.01155773663007E+05
 cg2d: Sum(rhs),rhsMax =  -4.78028761766733E+01  1.95380923999384E+00
(PID.TID 0000.0001)  ploadbar=  1.01155862984314E+05
 cg2d: Sum(rhs),rhsMax =  -4.76646339280636E+01  1.96066851216414E+00
(PID.TID 0000.0001)  ploadbar=  1.01155952305620E+05
 cg2d: Sum(rhs),rhsMax =  -4.75284753820737E+01  1.96739650297600E+00
(PID.TID 0000.0001)  ploadbar=  1.01155493486280E+05
 cg2d: Sum(rhs),rhsMax =  -4.73935706932167E+01  1.97402426847866E+00
(PID.TID 0000.0001)  ploadbar=  1.01155034666940E+05
 cg2d: Sum(rhs),rhsMax =  -4.72566354084176E+01  1.98068776675198E+00
(PID.TID 0000.0001)  ploadbar=  1.01154575847600E+05
 cg2d: Sum(rhs),rhsMax =  -4.71751548864533E+01  1.98496434956389E+00
(PID.TID 0000.0001)  ploadbar=  1.01154117028260E+05
 cg2d: Sum(rhs),rhsMax =  -4.70820640401341E+01  1.98965894814338E+00
(PID.TID 0000.0001)  ploadbar=  1.01153658208920E+05
 cg2d: Sum(rhs),rhsMax =  -4.69795264696380E+01  1.99469031675818E+00
(PID.TID 0000.0001)  ploadbar=  1.01153199389580E+05
 cg2d: Sum(rhs),rhsMax =  -4.68975857205721E+01  1.99894066373876E+00
(PID.TID 0000.0001)  ploadbar=  1.01153067957224E+05
 cg2d: Sum(rhs),rhsMax =  -4.68319995243332E+01  2.00257747720928E+00
(PID.TID 0000.0001)  ploadbar=  1.01152936524867E+05
 cg2d: Sum(rhs),rhsMax =  -4.67878589472444E+01  2.00537865419568E+00
(PID.TID 0000.0001)  ploadbar=  1.01152805092511E+05
 cg2d: Sum(rhs),rhsMax =  -4.67693404772835E+01  2.00715751285164E+00
(PID.TID 0000.0001)  ploadbar=  1.01152673660154E+05
 cg2d: Sum(rhs),rhsMax =  -4.67775063344889E+01  2.00786115261893E+00
(PID.TID 0000.0001)  ploadbar=  1.01152542227797E+05
 cg2d: Sum(rhs),rhsMax =  -4.68105688911005E+01  2.00756353083111E+00
(PID.TID 0000.0001)  ploadbar=  1.01152410795441E+05
 cg2d: Sum(rhs),rhsMax =  -4.68481236322788E+01  2.00706315612237E+00
(PID.TID 0000.0001)  ploadbar=  1.01152206145133E+05
 cg2d: Sum(rhs),rhsMax =  -4.68894112343263E+01  2.00639448313459E+00
(PID.TID 0000.0001)  ploadbar=  1.01152001494825E+05
 cg2d: Sum(rhs),rhsMax =  -4.69260945644357E+01  2.00591693507921E+00
(PID.TID 0000.0001)  ploadbar=  1.01151796844517E+05
 cg2d: Sum(rhs),rhsMax =  -4.69513384830969E+01  2.00592340626788E+00
(PID.TID 0000.0001)  ploadbar=  1.01151592194209E+05
 cg2d: Sum(rhs),rhsMax =  -4.69628889967835E+01  2.00650781031478E+00
(PID.TID 0000.0001)  ploadbar=  1.01151387543901E+05
 cg2d: Sum(rhs),rhsMax =  -4.69622002876775E+01  2.00760552931570E+00
(PID.TID 0000.0001)  ploadbar=  1.01151182893593E+05
 cg2d: Sum(rhs),rhsMax =  -4.69389463161822E+01  2.00970734877097E+00
(PID.TID 0000.0001)  ploadbar=  1.01151623941555E+05
 cg2d: Sum(rhs),rhsMax =  -4.69115983429726E+01  2.01201996008464E+00
(PID.TID 0000.0001)  ploadbar=  1.01152064989518E+05
 cg2d: Sum(rhs),rhsMax =  -4.68862267080125E+01  2.01428095422655E+00
(PID.TID 0000.0001)  ploadbar=  1.01152506037481E+05
 cg2d: Sum(rhs),rhsMax =  -4.68657921165156E+01  2.01635712028508E+00
(PID.TID 0000.0001)  ploadbar=  1.01152947085444E+05
 cg2d: Sum(rhs),rhsMax =  -4.68541692329917E+01  2.01807603204358E+00
(PID.TID 0000.0001)  ploadbar=  1.01153388133406E+05
 cg2d: Sum(rhs),rhsMax =  -4.68527727982996E+01  2.01936653403703E+00
(PID.TID 0000.0001)  ploadbar=  1.01153829181369E+05
 cg2d: Sum(rhs),rhsMax =  -4.68684249491810E+01  2.01987177695237E+00
(PID.TID 0000.0001)  ploadbar=  1.01154224642776E+05
 cg2d: Sum(rhs),rhsMax =  -4.68926866063793E+01  2.01995216057918E+00
(PID.TID 0000.0001)  ploadbar=  1.01154620104183E+05
 cg2d: Sum(rhs),rhsMax =  -4.69222945438495E+01  2.01974748817306E+00
(PID.TID 0000.0001)  ploadbar=  1.01155015565589E+05
 cg2d: Sum(rhs),rhsMax =  -4.69542414604941E+01  2.01938381828482E+00
(PID.TID 0000.0001)  ploadbar=  1.01155411026996E+05
 cg2d: Sum(rhs),rhsMax =  -4.69860750065656E+01  2.01896633503756E+00
(PID.TID 0000.0001)  ploadbar=  1.01155806488403E+05
 cg2d: Sum(rhs),rhsMax =  -4.70171868258742E+01  2.01851802723749E+00
(PID.TID 0000.0001)  ploadbar=  1.01156201949810E+05
 cg2d: Sum(rhs),rhsMax =  -4.70582032073317E+01  2.01777546392078E+00
(PID.TID 0000.0001)  ploadbar=  1.01156525261894E+05
 cg2d: Sum(rhs),rhsMax =  -4.71031370150237E+01  2.01699581901980E+00
(PID.TID 0000.0001)  ploadbar=  1.01156848573978E+05
 cg2d: Sum(rhs),rhsMax =  -4.71516222976024E+01  2.01619127922503E+00
(PID.TID 0000.0001)  ploadbar=  1.01157171886062E+05
 cg2d: Sum(rhs),rhsMax =  -4.72039026304035E+01  2.01535197237943E+00
(PID.TID 0000.0001)  ploadbar=  1.01157495198146E+05
 cg2d: Sum(rhs),rhsMax =  -4.72590670674336E+01  2.01451490685856E+00
(PID.TID 0000.0001)  ploadbar=  1.01157818510230E+05
 cg2d: Sum(rhs),rhsMax =  -4.73156942429630E+01  2.01373662380576E+00
(PID.TID 0000.0001)  ploadbar=  1.01158141822315E+05
 cg2d: Sum(rhs),rhsMax =  -4.73691169073925E+01  2.01308382456424E+00
(PID.TID 0000.0001)  ploadbar=  1.01157684243126E+05
 cg2d: Sum(rhs),rhsMax =  -4.74144777039580E+01  2.01276406097292E+00
(PID.TID 0000.0001)  ploadbar=  1.01157226663938E+05
 cg2d: Sum(rhs),rhsMax =  -4.74479591230104E+01  2.01294131715218E+00
(PID.TID 0000.0001)  ploadbar=  1.01156769084749E+05
 cg2d: Sum(rhs),rhsMax =  -4.74671406119659E+01  2.01371642305797E+00
(PID.TID 0000.0001)  ploadbar=  1.01156311505561E+05
 cg2d: Sum(rhs),rhsMax =  -4.74709517173359E+01  2.01513631296625E+00
(PID.TID 0000.0001)  ploadbar=  1.01155853926372E+05
 cg2d: Sum(rhs),rhsMax =  -4.74598576897778E+01  2.01718239825154E+00
(PID.TID 0000.0001)  ploadbar=  1.01155396347184E+05
 cg2d: Sum(rhs),rhsMax =  -4.74180622043959E+01  2.02054600531508E+00
(PID.TID 0000.0001)  ploadbar=  1.01155025421505E+05
 cg2d: Sum(rhs),rhsMax =  -4.73490870682702E+01  2.02508272216439E+00
(PID.TID 0000.0001)  ploadbar=  1.01154654495827E+05
 cg2d: Sum(rhs),rhsMax =  -4.72547405626539E+01  2.03072950881317E+00
(PID.TID 0000.0001)  ploadbar=  1.01154283570148E+05
 cg2d: Sum(rhs),rhsMax =  -4.71371755693852E+01  2.03740890641945E+00
(PID.TID 0000.0001)  ploadbar=  1.01153912644470E+05
 cg2d: Sum(rhs),rhsMax =  -4.69992686012112E+01  2.04501241026651E+00
(PID.TID 0000.0001)  ploadbar=  1.01153541718791E+05
 cg2d: Sum(rhs),rhsMax =  -4.68416958797317E+01  2.05352657114914E+00
(PID.TID 0000.0001)  ploadbar=  1.01153170793113E+05
 cg2d: Sum(rhs),rhsMax =  -4.66683621708547E+01  2.06270697411864E+00
(PID.TID 0000.0001)  ploadbar=  1.01152644360425E+05
 cg2d: Sum(rhs),rhsMax =  -4.64774177069809E+01  2.07264935359256E+00
(PID.TID 0000.0001)  ploadbar=  1.01152117927737E+05
 cg2d: Sum(rhs),rhsMax =  -4.62727585310160E+01  2.08319881791748E+00
(PID.TID 0000.0001)  ploadbar=  1.01151591495049E+05
 cg2d: Sum(rhs),rhsMax =  -4.60634951954501E+01  2.09395898313105E+00
(PID.TID 0000.0001)  ploadbar=  1.01151065062361E+05
 cg2d: Sum(rhs),rhsMax =  -4.58564376353533E+01  2.10462460616863E+00
(PID.TID 0000.0001)  ploadbar=  1.01150538629673E+05
 cg2d: Sum(rhs),rhsMax =  -4.56527208785999E+01  2.11513874299565E+00
(PID.TID 0000.0001)  ploadbar=  1.01150012196985E+05
 cg2d: Sum(rhs),rhsMax =  -4.54676554261887E+01  2.12494323057944E+00
(PID.TID 0000.0001)  ploadbar=  1.01149367935828E+05
 cg2d: Sum(rhs),rhsMax =  -4.53232170042991E+01  2.13298228813999E+00
(PID.TID 0000.0001)  ploadbar=  1.01148723674672E+05
 cg2d: Sum(rhs),rhsMax =  -4.52270560947578E+01  2.13885520157352E+00
(PID.TID 0000.0001)  ploadbar=  1.01148079413515E+05
 cg2d: Sum(rhs),rhsMax =  -4.51817990122785E+01  2.14240601516210E+00
(PID.TID 0000.0001)  ploadbar=  1.01147435152358E+05
 cg2d: Sum(rhs),rhsMax =  -4.51951863586270E+01  2.14324489622947E+00
(PID.TID 0000.0001)  ploadbar=  1.01146790891202E+05
 cg2d: Sum(rhs),rhsMax =  -4.52675506538924E+01  2.14135489388023E+00
(PID.TID 0000.0001)  ploadbar=  1.01146146630045E+05
 cg2d: Sum(rhs),rhsMax =  -4.53862155647854E+01  2.13725666861367E+00
(PID.TID 0000.0001)  ploadbar=  1.01145156327789E+05
 cg2d: Sum(rhs),rhsMax =  -4.55411440599047E+01  2.13145154712133E+00
(PID.TID 0000.0001)  ploadbar=  1.01144166025532E+05
 cg2d: Sum(rhs),rhsMax =  -4.57256934734328E+01  2.12428069752606E+00
(PID.TID 0000.0001)  ploadbar=  1.01143175723275E+05
 cg2d: Sum(rhs),rhsMax =  -4.59405712369143E+01  2.11574451544317E+00
(PID.TID 0000.0001)  ploadbar=  1.01142185421018E+05
 cg2d: Sum(rhs),rhsMax =  -4.61813865532867E+01  2.10607988632151E+00
(PID.TID 0000.0001)  ploadbar=  1.01141195118762E+05
 cg2d: Sum(rhs),rhsMax =  -4.64420856709805E+01  2.09558975739762E+00
(PID.TID 0000.0001)  ploadbar=  1.01140204816505E+05
 cg2d: Sum(rhs),rhsMax =  -4.67135739453917E+01  2.08472678808632E+00
(PID.TID 0000.0001)  ploadbar=  1.01138781391385E+05
 cg2d: Sum(rhs),rhsMax =  -4.69831355036766E+01  2.07406626932068E+00
(PID.TID 0000.0001)  ploadbar=  1.01137357966265E+05
 cg2d: Sum(rhs),rhsMax =  -4.72327582225920E+01  2.06439434346278E+00
(PID.TID 0000.0001)  ploadbar=  1.01135934541145E+05
 cg2d: Sum(rhs),rhsMax =  -4.74452299545050E+01  2.05643374545510E+00
(PID.TID 0000.0001)  ploadbar=  1.01134511116024E+05
 cg2d: Sum(rhs),rhsMax =  -4.76116984131063E+01  2.05052001445100E+00
(PID.TID 0000.0001)  ploadbar=  1.01133087690904E+05
 cg2d: Sum(rhs),rhsMax =  -4.77422539856733E+01  2.04618166410590E+00
(PID.TID 0000.0001)  ploadbar=  1.01131664265784E+05
 cg2d: Sum(rhs),rhsMax =  -4.78553925759900E+01  2.04252692431379E+00
(PID.TID 0000.0001)  ploadbar=  1.01131563453135E+05
 cg2d: Sum(rhs),rhsMax =  -4.79531113249933E+01  2.03945714279319E+00
(PID.TID 0000.0001)  ploadbar=  1.01131462640486E+05
 cg2d: Sum(rhs),rhsMax =  -4.80395964542276E+01  2.03679171079954E+00
(PID.TID 0000.0001)  ploadbar=  1.01131361827837E+05
 cg2d: Sum(rhs),rhsMax =  -4.81164207018380E+01  2.03445901674492E+00
(PID.TID 0000.0001)  ploadbar=  1.01131261015188E+05
 cg2d: Sum(rhs),rhsMax =  -4.81811641290185E+01  2.03256169137878E+00
(PID.TID 0000.0001)  ploadbar=  1.01131160202539E+05
 cg2d: Sum(rhs),rhsMax =  -4.82283935413817E+01  2.03131957408739E+00
(PID.TID 0000.0001)  ploadbar=  1.01131059389890E+05
 cg2d: Sum(rhs),rhsMax =  -4.82676824651067E+01  2.03046658596456E+00
(PID.TID 0000.0001)  ploadbar=  1.01132372049832E+05
 cg2d: Sum(rhs),rhsMax =  -4.82964237704809E+01  2.03010911595822E+00
(PID.TID 0000.0001)  ploadbar=  1.01133684709774E+05
 cg2d: Sum(rhs),rhsMax =  -4.83084706642059E+01  2.03050519106984E+00
(PID.TID 0000.0001)  ploadbar=  1.01134997369716E+05
 cg2d: Sum(rhs),rhsMax =  -4.82999515209727E+01  2.03181642352252E+00
(PID.TID 0000.0001)  ploadbar=  1.01136310029658E+05
 cg2d: Sum(rhs),rhsMax =  -4.82685292958053E+01  2.03413815444618E+00
(PID.TID 0000.0001)  ploadbar=  1.01137622689599E+05
 cg2d: Sum(rhs),rhsMax =  -4.82187651413746E+01  2.03727567562917E+00
(PID.TID 0000.0001)  ploadbar=  1.01138935349541E+05
 cg2d: Sum(rhs),rhsMax =  -4.81589720869577E+01  2.04084550451333E+00
(PID.TID 0000.0001)  ploadbar=  1.01140649454817E+05
 cg2d: Sum(rhs),rhsMax =  -4.81015098203046E+01  2.04432967161963E+00
(PID.TID 0000.0001)  ploadbar=  1.01142363560092E+05
 cg2d: Sum(rhs),rhsMax =  -4.80521777284267E+01  2.04748339717486E+00
(PID.TID 0000.0001)  ploadbar=  1.01144077665367E+05
 cg2d: Sum(rhs),rhsMax =  -4.80112133050209E+01  2.05029573756391E+00
(PID.TID 0000.0001)  ploadbar=  1.01145791770643E+05
 cg2d: Sum(rhs),rhsMax =  -4.79703933472116E+01  2.05311924843246E+00
(PID.TID 0000.0001)  ploadbar=  1.01147505875918E+05
 cg2d: Sum(rhs),rhsMax =  -4.79134869870699E+01  2.05664299139957E+00
(PID.TID 0000.0001)  ploadbar=  1.01149219981193E+05
 cg2d: Sum(rhs),rhsMax =  -4.78311618924266E+01  2.06127255511422E+00
(PID.TID 0000.0001)  ploadbar=  1.01150577622345E+05
 cg2d: Sum(rhs),rhsMax =  -4.77170285392552E+01  2.06730135925273E+00
(PID.TID 0000.0001)  ploadbar=  1.01151935263497E+05
 cg2d: Sum(rhs),rhsMax =  -4.75801715110619E+01  2.07435367712582E+00
(PID.TID 0000.0001)  ploadbar=  1.01153292904649E+05
 cg2d: Sum(rhs),rhsMax =  -4.74038777611880E+01  2.08317516918169E+00
(PID.TID 0000.0001)  ploadbar=  1.01154650545800E+05
 cg2d: Sum(rhs),rhsMax =  -4.71933180861982E+01  2.09357166419659E+00
(PID.TID 0000.0001)  ploadbar=  1.01156008186952E+05
 cg2d: Sum(rhs),rhsMax =  -4.69608523981617E+01  2.10502970762235E+00
(PID.TID 0000.0001)  ploadbar=  1.01157365828104E+05
 cg2d: Sum(rhs),rhsMax =  -4.67167717594708E+01  2.11708385255693E+00
(PID.TID 0000.0001)  ploadbar=  1.01158150129743E+05
 cg2d: Sum(rhs),rhsMax =  -4.64694047452659E+01  2.12936793572547E+00
(PID.TID 0000.0001)  ploadbar=  1.01158934431382E+05
 cg2d: Sum(rhs),rhsMax =  -4.62250604050330E+01  2.14159618341341E+00
(PID.TID 0000.0001)  ploadbar=  1.01159718733021E+05
 cg2d: Sum(rhs),rhsMax =  -4.59867412251093E+01  2.15362539216021E+00
(PID.TID 0000.0001)  ploadbar=  1.01160503034660E+05
 cg2d: Sum(rhs),rhsMax =  -4.57532586736346E+01  2.16550553174062E+00
(PID.TID 0000.0001)  ploadbar=  1.01161287336299E+05
 cg2d: Sum(rhs),rhsMax =  -4.55196727192008E+01  2.17746544768688E+00
(PID.TID 0000.0001)  ploadbar=  1.01162071637938E+05
 cg2d: Sum(rhs),rhsMax =  -4.52885029104462E+01  2.18948517789547E+00
(PID.TID 0000.0001)  ploadbar=  1.01162962201324E+05
 cg2d: Sum(rhs),rhsMax =  -4.50567660248586E+01  2.20170325301103E+00
(PID.TID 0000.0001)  ploadbar=  1.01163852764709E+05
 cg2d: Sum(rhs),rhsMax =  -4.48236156574240E+01  2.21416948290462E+00
(PID.TID 0000.0001)  ploadbar=  1.01164743328094E+05
 cg2d: Sum(rhs),rhsMax =  -4.45902048311779E+01  2.22683332618664E+00
(PID.TID 0000.0001)  ploadbar=  1.01165633891479E+05
 cg2d: Sum(rhs),rhsMax =  -4.43598160338368E+01  2.23953143323608E+00
(PID.TID 0000.0001)  ploadbar=  1.01166524454865E+05
 cg2d: Sum(rhs),rhsMax =  -4.41363183013521E+01  2.25205589588030E+00
(PID.TID 0000.0001)  ploadbar=  1.01167415018250E+05
 cg2d: Sum(rhs),rhsMax =  -4.39181435892897E+01  2.26435605448332E+00
(PID.TID 0000.0001)  ploadbar=  1.01168559540231E+05
 cg2d: Sum(rhs),rhsMax =  -4.37059791221652E+01  2.27639561069580E+00
(PID.TID 0000.0001)  ploadbar=  1.01169704062213E+05
 cg2d: Sum(rhs),rhsMax =  -4.35014054997576E+01  2.28807933654879E+00
(PID.TID 0000.0001)  ploadbar=  1.01170848584195E+05
 cg2d: Sum(rhs),rhsMax =  -4.33053861539919E+01  2.29934485201759E+00
(PID.TID 0000.0001)  ploadbar=  1.01171993106176E+05
 cg2d: Sum(rhs),rhsMax =  -4.31180380440319E+01  2.31017971236158E+00
(PID.TID 0000.0001)  ploadbar=  1.01173137628158E+05
 cg2d: Sum(rhs),rhsMax =  -4.29392956016803E+01  2.32058034692045E+00
(PID.TID 0000.0001)  ploadbar=  1.01174282150139E+05
 cg2d: Sum(rhs),rhsMax =  -4.27796194502128E+01  2.33001650928472E+00
(PID.TID 0000.0001)  ploadbar=  1.01175562373623E+05
 cg2d: Sum(rhs),rhsMax =  -4.26468061891132E+01  2.33803928342326E+00
(PID.TID 0000.0001)  ploadbar=  1.01176842597107E+05
 cg2d: Sum(rhs),rhsMax =  -4.25460967052927E+01  2.34433472763722E+00
(PID.TID 0000.0001)  ploadbar=  1.01178122820591E+05
 cg2d: Sum(rhs),rhsMax =  -4.24801678843163E+01  2.34872796989911E+00
(PID.TID 0000.0001)  ploadbar=  1.01179403044075E+05
 cg2d: Sum(rhs),rhsMax =  -4.24493783724011E+01  2.35117937719047E+00
(PID.TID 0000.0001)  ploadbar=  1.01180683267559E+05
 cg2d: Sum(rhs),rhsMax =  -4.24531437406571E+01  2.35171413916689E+00
(PID.TID 0000.0001)  ploadbar=  1.01181963491043E+05
 cg2d: Sum(rhs),rhsMax =  -4.24734671962629E+01  2.35126295902470E+00
(PID.TID 0000.0001)  ploadbar=  1.01183880665940E+05
 cg2d: Sum(rhs),rhsMax =  -4.24998855541862E+01  2.35040025083584E+00
(PID.TID 0000.0001)  ploadbar=  1.01185797840837E+05
 cg2d: Sum(rhs),rhsMax =  -4.25246280674525E+01  2.34955646425667E+00
(PID.TID 0000.0001)  ploadbar=  1.01187715015734E+05
 cg2d: Sum(rhs),rhsMax =  -4.25432691514792E+01  2.34897734020404E+00
(PID.TID 0000.0001)  ploadbar=  1.01189632190632E+05
 cg2d: Sum(rhs),rhsMax =  -4.25552363848527E+01  2.34869342036073E+00
(PID.TID 0000.0001)  ploadbar=  1.01191549365529E+05
 cg2d: Sum(rhs),rhsMax =  -4.25645644697609E+01  2.34848126627572E+00
(PID.TID 0000.0001)  ploadbar=  1.01193466540426E+05
 cg2d: Sum(rhs),rhsMax =  -4.25667057452755E+01  2.34872001561994E+00
(PID.TID 0000.0001)  ploadbar=  1.01195279226862E+05
 cg2d: Sum(rhs),rhsMax =  -4.25667113408747E+01  2.34912651048927E+00
(PID.TID 0000.0001)  ploadbar=  1.01197091913298E+05
 cg2d: Sum(rhs),rhsMax =  -4.25725509383724E+01  2.34926440204859E+00
(PID.TID 0000.0001)  ploadbar=  1.01198904599734E+05
 cg2d: Sum(rhs),rhsMax =  -4.25802704196872E+01  2.34934721227685E+00
(PID.TID 0000.0001)  ploadbar=  1.01200717286170E+05
 cg2d: Sum(rhs),rhsMax =  -4.25879100724904E+01  2.34948801214681E+00
(PID.TID 0000.0001)  ploadbar=  1.01202529972606E+05
 cg2d: Sum(rhs),rhsMax =  -4.25898045709885E+01  2.34999797953819E+00
(PID.TID 0000.0001)  ploadbar=  1.01204342659042E+05
 cg2d: Sum(rhs),rhsMax =  -4.26007328681903E+01  2.35005783586232E+00
(PID.TID 0000.0001)  ploadbar=  1.01203660867392E+05
 cg2d: Sum(rhs),rhsMax =  -4.26173128355799E+01  2.34985620990769E+00
(PID.TID 0000.0001)  ploadbar=  1.01202979075743E+05
 cg2d: Sum(rhs),rhsMax =  -4.26455231600214E+01  2.34906730698640E+00
(PID.TID 0000.0001)  ploadbar=  1.01202297284093E+05
 cg2d: Sum(rhs),rhsMax =  -4.26926272943389E+01  2.34729847906181E+00
(PID.TID 0000.0001)  ploadbar=  1.01201615492444E+05
 cg2d: Sum(rhs),rhsMax =  -4.26558302455541E+01  2.35020480096294E+00
(PID.TID 0000.0001)  ploadbar=  1.01200933700794E+05
 cg2d: Sum(rhs),rhsMax =  -4.25182807022415E+01  2.35874470985207E+00
(PID.TID 0000.0001)  ploadbar=  1.01200251909145E+05
 cg2d: Sum(rhs),rhsMax =  -4.23612151127516E+01  2.36844621639977E+00
(PID.TID 0000.0001)  ploadbar=  1.01199957611292E+05
 cg2d: Sum(rhs),rhsMax =  -4.22019312583744E+01  2.37836058268985E+00
(PID.TID 0000.0001)  ploadbar=  1.01199663313438E+05
 cg2d: Sum(rhs),rhsMax =  -4.20453930030223E+01  2.38821371257942E+00
(PID.TID 0000.0001)  ploadbar=  1.01199369015585E+05
 cg2d: Sum(rhs),rhsMax =  -4.18943117630472E+01  2.39784727058234E+00
(PID.TID 0000.0001)  ploadbar=  1.01199074717732E+05
 cg2d: Sum(rhs),rhsMax =  -4.17669907599861E+01  2.40620257741033E+00
(PID.TID 0000.0001)  ploadbar=  1.01198780419878E+05
 cg2d: Sum(rhs),rhsMax =  -4.17423573584320E+01  2.40868601381963E+00
(PID.TID 0000.0001)  ploadbar=  1.01198486122025E+05
 cg2d: Sum(rhs),rhsMax =  -4.17450352661220E+01  2.40951708340036E+00
(PID.TID 0000.0001)  ploadbar=  1.01197763806159E+05
 cg2d: Sum(rhs),rhsMax =  -4.17565050232651E+01  2.40976016374472E+00
(PID.TID 0000.0001)  ploadbar=  1.01197041490294E+05
 cg2d: Sum(rhs),rhsMax =  -4.17607434937988E+01  2.41033674115404E+00
(PID.TID 0000.0001)  ploadbar=  1.01196319174428E+05
 cg2d: Sum(rhs),rhsMax =  -4.17486798034123E+01  2.41177039025239E+00
(PID.TID 0000.0001)  ploadbar=  1.01195596858562E+05
 cg2d: Sum(rhs),rhsMax =  -4.17191877974177E+01  2.41412297825961E+00
(PID.TID 0000.0001)  ploadbar=  1.01194874542697E+05
 cg2d: Sum(rhs),rhsMax =  -4.16783006561798E+01  2.41704565777852E+00
(PID.TID 0000.0001)  ploadbar=  1.01194152226831E+05
 cg2d: Sum(rhs),rhsMax =  -4.16428245885149E+01  2.41974553105719E+00
(PID.TID 0000.0001)  ploadbar=  1.01193669507568E+05
 cg2d: Sum(rhs),rhsMax =  -4.16239333990324E+01  2.42156726170893E+00
(PID.TID 0000.0001)  ploadbar=  1.01193186788304E+05
 cg2d: Sum(rhs),rhsMax =  -4.16328062176021E+01  2.42185360404281E+00
(PID.TID 0000.0001)  ploadbar=  1.01192704069041E+05
 cg2d: Sum(rhs),rhsMax =  -4.16765647305809E+01  2.42018451845754E+00
(PID.TID 0000.0001)  ploadbar=  1.01192221349778E+05
 cg2d: Sum(rhs),rhsMax =  -4.17615909152074E+01  2.41619551577558E+00
(PID.TID 0000.0001)  ploadbar=  1.01191738630514E+05
 cg2d: Sum(rhs),rhsMax =  -4.18902589463657E+01  2.40976811181438E+00
(PID.TID 0000.0001)  ploadbar=  1.01191255911251E+05
 cg2d: Sum(rhs),rhsMax =  -4.20506064894387E+01  2.40158822103018E+00
(PID.TID 0000.0001)  ploadbar=  1.01190480163476E+05
 cg2d: Sum(rhs),rhsMax =  -4.22288291412551E+01  2.39247540614151E+00
(PID.TID 0000.0001)  ploadbar=  1.01189704415700E+05
 cg2d: Sum(rhs),rhsMax =  -4.24114153647647E+01  2.38321050992130E+00
(PID.TID 0000.0001)  ploadbar=  1.01188928667925E+05
 cg2d: Sum(rhs),rhsMax =  -4.25901274596088E+01  2.37425733957337E+00
(PID.TID 0000.0001)  ploadbar=  1.01188152920150E+05
 cg2d: Sum(rhs),rhsMax =  -4.27628432781452E+01  2.36572270672406E+00
(PID.TID 0000.0001)  ploadbar=  1.01187377172374E+05
 cg2d: Sum(rhs),rhsMax =  -4.29335316557092E+01  2.35737466115863E+00
(PID.TID 0000.0001)  ploadbar=  1.01186601424599E+05
 cg2d: Sum(rhs),rhsMax =  -4.31204677905775E+01  2.34825271164004E+00
(PID.TID 0000.0001)  ploadbar=  1.01185233255254E+05
 cg2d: Sum(rhs),rhsMax =  -4.33385579983130E+01  2.33757021778889E+00
(PID.TID 0000.0001)  ploadbar=  1.01183865085909E+05
 cg2d: Sum(rhs),rhsMax =  -4.36023139947155E+01  2.32459618863429E+00
(PID.TID 0000.0001)  ploadbar=  1.01182496916564E+05
 cg2d: Sum(rhs),rhsMax =  -4.39208592103430E+01  2.30892790420656E+00
(PID.TID 0000.0001)  ploadbar=  1.01181128747219E+05
 cg2d: Sum(rhs),rhsMax =  -4.43001562715938E+01  2.29036687478959E+00
(PID.TID 0000.0001)  ploadbar=  1.01179760577875E+05
 cg2d: Sum(rhs),rhsMax =  -4.42960041577880E+01  2.29181639781105E+00
(PID.TID 0000.0001)  ploadbar=  1.01178392408530E+05
 cg2d: Sum(rhs),rhsMax =  -4.42685571186066E+01  2.29440903380302E+00
(PID.TID 0000.0001)  ploadbar=  1.01177662541266E+05
 cg2d: Sum(rhs),rhsMax =  -4.42464711771416E+01  2.29665268973418E+00
(PID.TID 0000.0001)  ploadbar=  1.01176932674002E+05
 cg2d: Sum(rhs),rhsMax =  -4.42305125025930E+01  2.29850448665525E+00
(PID.TID 0000.0001)  ploadbar=  1.01176202806738E+05
 cg2d: Sum(rhs),rhsMax =  -4.42215062084856E+01  2.29991997715917E+00
(PID.TID 0000.0001)  ploadbar=  1.01175472939474E+05
 cg2d: Sum(rhs),rhsMax =  -4.42195314046180E+01  2.30088702614886E+00
(PID.TID 0000.0001)  ploadbar=  1.01174743072210E+05
 cg2d: Sum(rhs),rhsMax =  -4.42246781193043E+01  2.30139519181375E+00
(PID.TID 0000.0001)  ploadbar=  1.01174013204946E+05
 cg2d: Sum(rhs),rhsMax =  -4.42224236606353E+01  2.30231976433687E+00
(PID.TID 0000.0001)  ploadbar=  1.01173094553671E+05
 cg2d: Sum(rhs),rhsMax =  -4.42076474010415E+01  2.30392571419686E+00
(PID.TID 0000.0001)  ploadbar=  1.01172175902395E+05
 cg2d: Sum(rhs),rhsMax =  -4.41748002673363E+01  2.30650230600490E+00
(PID.TID 0000.0001)  ploadbar=  1.01171257251120E+05
 cg2d: Sum(rhs),rhsMax =  -4.41192981669964E+01  2.31029172256930E+00
(PID.TID 0000.0001)  ploadbar=  1.01170338599844E+05
 cg2d: Sum(rhs),rhsMax =  -4.40344139071694E+01  2.31565209554064E+00
(PID.TID 0000.0001)  ploadbar=  1.01169419948569E+05
 cg2d: Sum(rhs),rhsMax =  -4.39147449187916E+01  2.32288322874658E+00
(PID.TID 0000.0001)  ploadbar=  1.01168501297293E+05
 cg2d: Sum(rhs),rhsMax =  -4.37750967723332E+01  2.33121537279276E+00
(PID.TID 0000.0001)  ploadbar=  1.01167879865933E+05
 cg2d: Sum(rhs),rhsMax =  -4.36251031053282E+01  2.34015174665143E+00
(PID.TID 0000.0001)  ploadbar=  1.01167258434573E+05
 cg2d: Sum(rhs),rhsMax =  -4.34738973948467E+01  2.34921789633149E+00
(PID.TID 0000.0001)  ploadbar=  1.01166637003213E+05
 cg2d: Sum(rhs),rhsMax =  -4.33290485214944E+01  2.35800656819113E+00
(PID.TID 0000.0001)  ploadbar=  1.01166015571853E+05
 cg2d: Sum(rhs),rhsMax =  -4.31968050039724E+01  2.36616187384535E+00
(PID.TID 0000.0001)  ploadbar=  1.01165394140493E+05
 cg2d: Sum(rhs),rhsMax =  -4.30813688033071E+01  2.37343238999239E+00
(PID.TID 0000.0001)  ploadbar=  1.01164772709133E+05
 cg2d: Sum(rhs),rhsMax =  -4.29920064475174E+01  2.37938617901893E+00
(PID.TID 0000.0001)  ploadbar=  1.01163701663136E+05
 cg2d: Sum(rhs),rhsMax =  -4.29337367734102E+01  2.38372847986407E+00
(PID.TID 0000.0001)  ploadbar=  1.01162630617138E+05
 cg2d: Sum(rhs),rhsMax =  -4.29025211072166E+01  2.38666660622890E+00
(PID.TID 0000.0001)  ploadbar=  1.01161559571141E+05
 cg2d: Sum(rhs),rhsMax =  -4.28918199775898E+01  2.38855389228941E+00
(PID.TID 0000.0001)  ploadbar=  1.01160488525144E+05
 cg2d: Sum(rhs),rhsMax =  -4.29085523969704E+01  2.38900208227781E+00
(PID.TID 0000.0001)  ploadbar=  1.01159417479147E+05
 cg2d: Sum(rhs),rhsMax =  -4.29616409174995E+01  2.38751207561801E+00
(PID.TID 0000.0001)  ploadbar=  1.01158346433150E+05
 cg2d: Sum(rhs),rhsMax =  -4.30321063735122E+01  2.38497127091162E+00
(PID.TID 0000.0001)  ploadbar=  1.01157941499399E+05
 cg2d: Sum(rhs),rhsMax =  -4.31115329536687E+01  2.38185503513444E+00
(PID.TID 0000.0001)  ploadbar=  1.01157536565649E+05
 cg2d: Sum(rhs),rhsMax =  -4.31970158394707E+01  2.37832835281238E+00
(PID.TID 0000.0001)  ploadbar=  1.01157131631899E+05
 cg2d: Sum(rhs),rhsMax =  -4.32850806853890E+01  2.37457987862252E+00
(PID.TID 0000.0001)  ploadbar=  1.01156726698148E+05
 cg2d: Sum(rhs),rhsMax =  -4.33739803817895E+01  2.37069934354342E+00
(PID.TID 0000.0001)  ploadbar=  1.01156321764398E+05
 cg2d: Sum(rhs),rhsMax =  -4.34616762157532E+01  2.36679262922359E+00
(PID.TID 0000.0001)  ploadbar=  1.01155916830647E+05
 cg2d: Sum(rhs),rhsMax =  -4.35535682939715E+01  2.36273246751226E+00
(PID.TID 0000.0001)  ploadbar=  1.01155231917955E+05
 cg2d: Sum(rhs),rhsMax =  -4.36550315283925E+01  2.35823088401556E+00
(PID.TID 0000.0001)  ploadbar=  1.01154547005262E+05
 cg2d: Sum(rhs),rhsMax =  -4.37697902154151E+01  2.35309457011262E+00
(PID.TID 0000.0001)  ploadbar=  1.01153862092569E+05
 cg2d: Sum(rhs),rhsMax =  -4.38996936695802E+01  2.34723513104601E+00
(PID.TID 0000.0001)  ploadbar=  1.01153177179877E+05
 cg2d: Sum(rhs),rhsMax =  -4.40442242509533E+01  2.34069254729417E+00
(PID.TID 0000.0001)  ploadbar=  1.01152492267184E+05
 cg2d: Sum(rhs),rhsMax =  -4.42011066752677E+01  2.33359947585802E+00
(PID.TID 0000.0001)  ploadbar=  1.01151807354491E+05
 cg2d: Sum(rhs),rhsMax =  -4.48974736760958E+01  2.29858252746000E+00
(PID.TID 0000.0001)  ploadbar=  1.01151430280071E+05
 cg2d: Sum(rhs),rhsMax =  -4.56685006222416E+01  2.26091868431291E+00
(PID.TID 0000.0001)  ploadbar=  1.01151053205651E+05
 cg2d: Sum(rhs),rhsMax =  -4.62824943574368E+01  2.23203391933105E+00
(PID.TID 0000.0001)  ploadbar=  1.01150676131231E+05
 cg2d: Sum(rhs),rhsMax =  -4.61819395104313E+01  2.23798296226093E+00
(PID.TID 0000.0001)  ploadbar=  1.01150299056811E+05
 cg2d: Sum(rhs),rhsMax =  -4.60922181518205E+01  2.24340239497977E+00
(PID.TID 0000.0001)  ploadbar=  1.01149921982391E+05
 cg2d: Sum(rhs),rhsMax =  -4.60203355293067E+01  2.24793411619091E+00
(PID.TID 0000.0001)  ploadbar=  1.01149544907971E+05
 cg2d: Sum(rhs),rhsMax =  -4.59676799142334E+01  2.25157375918609E+00
(PID.TID 0000.0001)  ploadbar=  1.01150737770120E+05
 cg2d: Sum(rhs),rhsMax =  -4.59418186498463E+01  2.25394398991262E+00
(PID.TID 0000.0001)  ploadbar=  1.01151930632268E+05
 cg2d: Sum(rhs),rhsMax =  -4.59431656332248E+01  2.25501709699781E+00
(PID.TID 0000.0001)  ploadbar=  1.01153123494416E+05
(PID.TID 0000.0001) %CHECKPOINT     13111 ckptA
(PID.TID 0000.0001) 
(PID.TID 0000.0001) == cost_profiles: begin ==
(PID.TID 0000.0001) == cost_profiles: end   ==
(PID.TID 0000.0001) 
(PID.TID 0000.0001) gmsl          13     0.81180E-03    -0.15315E-03
(PID.TID 0000.0001) gmsl          14    -0.22353E-02    -0.10591E-02
(PID.TID 0000.0001) gmsl          15    -0.89193E-03     0.34667E-03
(PID.TID 0000.0001) gmsl          16     0.53759E-03     0.41801E-03
(PID.TID 0000.0001) gmsl          17     0.64356E-03     0.19030E-03
(PID.TID 0000.0001) gmsl          18     0.11343E-02     0.25727E-03
(PID.TID 0000.0001)  sshv4: use global mean of eta useEtaMean= F
(PID.TID 0000.0001)  sshv4:re-reference MDT= T
(PID.TID 0000.0001) mdt[start,end]date(1): 19930101,20171231
(PID.TID 0000.0001)   TP MDT yrrange:          1993,2017
(PID.TID 0000.0001)  --> f_gencost = 0.144977618658169E+08 1
(PID.TID 0000.0001)  --> f_gencost = 0.307014476510707E+06 2
(PID.TID 0000.0001)  --> f_gencost = 0.165893004718577E+07 3
(PID.TID 0000.0001)  --> f_gencost = 0.149964216300479E+05 4
(PID.TID 0000.0001)  --> f_gencost = 0.980757705884603E+05 5
(PID.TID 0000.0001)  --> f_gencost = 0.590486280777666E+06 7
(PID.TID 0000.0001)  --> f_gencost = 0.560603176938006E+06 8
(PID.TID 0000.0001)  --> f_gencost =                   NaN11
(PID.TID 0000.0001)  --> f_gencost = 0.450422746956323E+0612
(PID.TID 0000.0001)  --> f_gencost = 0.803459191587380E+0613
(PID.TID 0000.0001)  --> f_gencost = 0.115930746724315E+0715
(PID.TID 0000.0001)  --> f_gencost = 0.207552396906326E+0717
(PID.TID 0000.0001)  --> f_gencost = 0.248032056569832E+0718
(PID.TID 0000.0001)  --> f_gencost = 0.331517559888331E+0022
(PID.TID 0000.0001)  --> f_gencost = 0.125506333095315E+1127
(PID.TID 0000.0001)  --> f_genarr2d = 0.112316272108573E+00 1
(PID.TID 0000.0001)  --> f_genarr3d = 0.603915502546035E+04 1
(PID.TID 0000.0001)  --> f_genarr3d = 0.271902630686721E+04 2
(PID.TID 0000.0001)  --> f_genarr3d = 0.168301931515201E+05 3
(PID.TID 0000.0001)  --> f_genarr3d = 0.519422256503459E+04 4
(PID.TID 0000.0001)  --> f_genarr3d = 0.101631908524040E+05 5
(PID.TID 0000.0001)  --> f_genarr3d = 0.247466853841387E+01 6
(PID.TID 0000.0001)  --> f_genarr3d = 0.279378863819902E+02 7
(PID.TID 0000.0001)  --> fc               =                   NaN
(PID.TID 0000.0001)   early fc =  0.000000000000000E+00
(PID.TID 0000.0001)   local fc =  0.310649169886416E+04
(PID.TID 0000.0001)  global fc =                    NaN
(PID.TID 0000.0001)   Seconds in section "ALL                    [THE_MODEL_MAIN]":
(PID.TID 0000.0001)           User time: 1119.1100000000001
(PID.TID 0000.0001)         System time: 427.09000000000003
(PID.TID 0000.0001)     Wall clock time: 1969.735356092453
(PID.TID 0000.0001)          No. starts: 1
(PID.TID 0000.0001)           No. stops: 1
(PID.TID 0000.0001)   Seconds in section "INITIALISE_FIXED       [THE_MODEL_MAIN]":
(PID.TID 0000.0001)           User time: 43.789999999999999
(PID.TID 0000.0001)         System time: 314.35000000000002
(PID.TID 0000.0001)     Wall clock time: 361.40450811386108
(PID.TID 0000.0001)          No. starts: 1
(PID.TID 0000.0001)           No. stops: 1
(PID.TID 0000.0001)   Seconds in section "THE_MAIN_LOOP          [THE_MODEL_MAIN]":
(PID.TID 0000.0001)           User time: 1075.3199999999999
(PID.TID 0000.0001)         System time: 112.74000000000001
(PID.TID 0000.0001)     Wall clock time: 1608.330757856369
(PID.TID 0000.0001)          No. starts: 1
(PID.TID 0000.0001)           No. stops: 1
(PID.TID 0000.0001)   Seconds in section "INITIALISE_VARIA    [THE_MAIN_LOOP]":
(PID.TID 0000.0001)           User time: 9.3999999999999986
(PID.TID 0000.0001)         System time: 1.1100000000000136
(PID.TID 0000.0001)     Wall clock time: 12.192862033843994
(PID.TID 0000.0001)          No. starts: 1
(PID.TID 0000.0001)           No. stops: 1
(PID.TID 0000.0001)   Seconds in section "MAIN LOOP           [THE_MAIN_LOOP]":
(PID.TID 0000.0001)           User time: 1065.9200000000001
(PID.TID 0000.0001)         System time: 111.63
(PID.TID 0000.0001)     Wall clock time: 1596.1378788948059
(PID.TID 0000.0001)          No. starts: 1
(PID.TID 0000.0001)           No. stops: 1
(PID.TID 0000.0001)   Seconds in section "COST_AVERAGESFIELDS [MAIN_DO_LOOP]":
(PID.TID 0000.0001)           User time: 28.599999999992633
(PID.TID 0000.0001)         System time: 6.5100000000006162
(PID.TID 0000.0001)     Wall clock time: 37.766155004501343
(PID.TID 0000.0001)          No. starts: 13110
(PID.TID 0000.0001)           No. stops: 13110
(PID.TID 0000.0001)   Seconds in section "PROFILES_INLOOP    [MAIN_DO_LOOP]":
(PID.TID 0000.0001)           User time: 84.199999999975262
(PID.TID 0000.0001)         System time: 0.8900000000000432
(PID.TID 0000.0001)     Wall clock time: 85.761137008666992
(PID.TID 0000.0001)          No. starts: 13110
(PID.TID 0000.0001)           No. stops: 13110
(PID.TID 0000.0001)   Seconds in section "MAIN_DO_LOOP        [THE_MAIN_LOOP]":
(PID.TID 0000.0001)           User time: 819.89000000015085
(PID.TID 0000.0001)         System time: 24.509999999999366
(PID.TID 0000.0001)     Wall clock time: 1040.8444802761078
(PID.TID 0000.0001)          No. starts: 13110
(PID.TID 0000.0001)           No. stops: 13110
(PID.TID 0000.0001)   Seconds in section "FORWARD_STEP        [MAIN_DO_LOOP]":
(PID.TID 0000.0001)           User time: 819.80000000014979
(PID.TID 0000.0001)         System time: 24.489999999999384
(PID.TID 0000.0001)     Wall clock time: 1040.7195193767548
(PID.TID 0000.0001)          No. starts: 13110
(PID.TID 0000.0001)           No. stops: 13110
(PID.TID 0000.0001)   Seconds in section "UPDATE_R_STAR       [FORWARD_STEP]":
(PID.TID 0000.0001)           User time: 10.47999999999513
(PID.TID 0000.0001)         System time: 0.4799999999999045
(PID.TID 0000.0001)     Wall clock time: 10.257575035095215
(PID.TID 0000.0001)          No. starts: 26220
(PID.TID 0000.0001)           No. stops: 26220
(PID.TID 0000.0001)   Seconds in section "LOAD_FIELDS_DRIVER  [FORWARD_STEP]":
(PID.TID 0000.0001)           User time: 23.879999999995789
(PID.TID 0000.0001)         System time: 7.4399999999990314
(PID.TID 0000.0001)     Wall clock time: 152.98538541793823
(PID.TID 0000.0001)          No. starts: 13110
(PID.TID 0000.0001)           No. stops: 13110
(PID.TID 0000.0001)   Seconds in section "EXF_GETFORCING     [LOAD_FLDS_DRIVER]":
(PID.TID 0000.0001)           User time: 23.659999999995989
(PID.TID 0000.0001)         System time: 7.38999999999902
(PID.TID 0000.0001)     Wall clock time: 152.61375308036804
(PID.TID 0000.0001)          No. starts: 13110
(PID.TID 0000.0001)           No. stops: 13110
(PID.TID 0000.0001)   Seconds in section "EXTERNAL_FLDS_LOAD [LOAD_FLDS_DRIVER]":
(PID.TID 0000.0001)           User time: 4.99999999999545253E-2
(PID.TID 0000.0001)         System time: 9.99999999999090505E-3
(PID.TID 0000.0001)     Wall clock time: 5.98199367523193359E-2
(PID.TID 0000.0001)          No. starts: 13110
(PID.TID 0000.0001)           No. stops: 13110
(PID.TID 0000.0001)   Seconds in section "CTRL_MAP_FORCING  [FORWARD_STEP]":
(PID.TID 0000.0001)           User time: 2.6599999999986039
(PID.TID 0000.0001)         System time: 0.26000000000010459
(PID.TID 0000.0001)     Wall clock time: 2.662494421005249
(PID.TID 0000.0001)          No. starts: 13110
(PID.TID 0000.0001)           No. stops: 13110
(PID.TID 0000.0001)   Seconds in section "DO_ATMOSPHERIC_PHYS [FORWARD_STEP]":
(PID.TID 0000.0001)           User time: 1.0000000000001137
(PID.TID 0000.0001)         System time: 4.99999999999545253E-2
(PID.TID 0000.0001)     Wall clock time: 1.0390076637268066
(PID.TID 0000.0001)          No. starts: 13110
(PID.TID 0000.0001)           No. stops: 13110
(PID.TID 0000.0001)   Seconds in section "DO_OCEANIC_PHYS     [FORWARD_STEP]":
(PID.TID 0000.0001)           User time: 203.48999999996704
(PID.TID 0000.0001)         System time: 2.3800000000004502
(PID.TID 0000.0001)     Wall clock time: 204.92369890213013
(PID.TID 0000.0001)          No. starts: 13110
(PID.TID 0000.0001)           No. stops: 13110
(PID.TID 0000.0001)   Seconds in section "SEAICE_MODEL    [DO_OCEANIC_PHYS]":
(PID.TID 0000.0001)           User time: 63.879999999977599
(PID.TID 0000.0001)         System time: 1.2199999999999136
(PID.TID 0000.0001)     Wall clock time: 64.079346179962158
(PID.TID 0000.0001)          No. starts: 13110
(PID.TID 0000.0001)           No. stops: 13110
(PID.TID 0000.0001)   Seconds in section "SEAICE_DYNSOLVER   [SEAICE_MODEL]":
(PID.TID 0000.0001)           User time: 60.569999999978563
(PID.TID 0000.0001)         System time: 0.89999999999986358
(PID.TID 0000.0001)     Wall clock time: 60.448650121688843
(PID.TID 0000.0001)          No. starts: 13110
(PID.TID 0000.0001)           No. stops: 13110
(PID.TID 0000.0001)   Seconds in section "GGL90_CALC [DO_OCEANIC_PHYS]":
(PID.TID 0000.0001)           User time: 44.929999999990741
(PID.TID 0000.0001)         System time: 0.54000000000030468
(PID.TID 0000.0001)     Wall clock time: 43.838541507720947
(PID.TID 0000.0001)          No. starts: 13110
(PID.TID 0000.0001)           No. stops: 13110
(PID.TID 0000.0001)   Seconds in section "DYNAMICS            [FORWARD_STEP]":
(PID.TID 0000.0001)           User time: 67.039999999982456
(PID.TID 0000.0001)         System time: 9.99999999999090505E-2
(PID.TID 0000.0001)     Wall clock time: 67.598185062408447
(PID.TID 0000.0001)          No. starts: 13110
(PID.TID 0000.0001)           No. stops: 13110
(PID.TID 0000.0001)   Seconds in section "UPDATE_CG2D         [FORWARD_STEP]":
(PID.TID 0000.0001)           User time: 5.4099999999979218
(PID.TID 0000.0001)         System time: 0.44999999999998863
(PID.TID 0000.0001)     Wall clock time: 5.5920925140380859
(PID.TID 0000.0001)          No. starts: 13110
(PID.TID 0000.0001)           No. stops: 13110
(PID.TID 0000.0001)   Seconds in section "SOLVE_FOR_PRESSURE  [FORWARD_STEP]":
(PID.TID 0000.0001)           User time: 294.71000000000231
(PID.TID 0000.0001)         System time: 9.00000000000886757E-2
(PID.TID 0000.0001)     Wall clock time: 295.66430187225342
(PID.TID 0000.0001)          No. starts: 13110
(PID.TID 0000.0001)           No. stops: 13110
(PID.TID 0000.0001)   Seconds in section "MOM_CORRECTION_STEP [FORWARD_STEP]":
(PID.TID 0000.0001)           User time: 4.5999999999996817
(PID.TID 0000.0001)         System time: 4.00000000000204636E-2
(PID.TID 0000.0001)     Wall clock time: 4.5057239532470703
(PID.TID 0000.0001)          No. starts: 13110
(PID.TID 0000.0001)           No. stops: 13110
(PID.TID 0000.0001)   Seconds in section "INTEGR_CONTINUITY   [FORWARD_STEP]":
(PID.TID 0000.0001)           User time: 3.909999999998945
(PID.TID 0000.0001)         System time: 3.99999999999636202E-2
(PID.TID 0000.0001)     Wall clock time: 4.031083345413208
(PID.TID 0000.0001)          No. starts: 13110
(PID.TID 0000.0001)           No. stops: 13110
(PID.TID 0000.0001)   Seconds in section "CALC_R_STAR         [FORWARD_STEP]":
(PID.TID 0000.0001)           User time: 1.1199999999995498
(PID.TID 0000.0001)         System time: 1.99999999999818101E-2
(PID.TID 0000.0001)     Wall clock time: 1.0835349559783936
(PID.TID 0000.0001)          No. starts: 13110
(PID.TID 0000.0001)           No. stops: 13110
(PID.TID 0000.0001)   Seconds in section "BLOCKING_EXCHANGES  [FORWARD_STEP]":
(PID.TID 0000.0001)           User time: 25.98999999998955
(PID.TID 0000.0001)         System time: 0.51999999999986812
(PID.TID 0000.0001)     Wall clock time: 26.473496437072754
(PID.TID 0000.0001)          No. starts: 26220
(PID.TID 0000.0001)           No. stops: 26220
(PID.TID 0000.0001)   Seconds in section "THERMODYNAMICS      [FORWARD_STEP]":
(PID.TID 0000.0001)           User time: 100.14999999996883
(PID.TID 0000.0001)         System time: 0.10000000000007958
(PID.TID 0000.0001)     Wall clock time: 100.57176756858826
(PID.TID 0000.0001)          No. starts: 13110
(PID.TID 0000.0001)           No. stops: 13110
(PID.TID 0000.0001)   Seconds in section "TRC_CORRECTION_STEP [FORWARD_STEP]":
(PID.TID 0000.0001)           User time: 5.00000000000682121E-2
(PID.TID 0000.0001)         System time: 0.
(PID.TID 0000.0001)     Wall clock time: 6.16741180419921875E-2
(PID.TID 0000.0001)          No. starts: 13110
(PID.TID 0000.0001)           No. stops: 13110
(PID.TID 0000.0001)   Seconds in section "DO_STATEVARS_TAVE   [FORWARD_STEP]":
(PID.TID 0000.0001)           User time: 9.99999999999090505E-2
(PID.TID 0000.0001)         System time: 0.
(PID.TID 0000.0001)     Wall clock time: 6.28969669342041016E-2
(PID.TID 0000.0001)          No. starts: 13110
(PID.TID 0000.0001)           No. stops: 13110
(PID.TID 0000.0001)   Seconds in section "MONITOR             [FORWARD_STEP]":
(PID.TID 0000.0001)           User time: 0.13000000000010914
(PID.TID 0000.0001)         System time: 1.99999999999818101E-2
(PID.TID 0000.0001)     Wall clock time: 0.12165069580078125
(PID.TID 0000.0001)          No. starts: 13110
(PID.TID 0000.0001)           No. stops: 13110
(PID.TID 0000.0001)   Seconds in section "COST_TILE           [FORWARD_STEP]":
(PID.TID 0000.0001)           User time: 5.99999999999454303E-2
(PID.TID 0000.0001)         System time: 2.00000000000954969E-2
(PID.TID 0000.0001)     Wall clock time: 6.38895034790039062E-2
(PID.TID 0000.0001)          No. starts: 13110
(PID.TID 0000.0001)           No. stops: 13110
(PID.TID 0000.0001)   Seconds in section "DO_THE_MODEL_IO     [FORWARD_STEP]":
(PID.TID 0000.0001)           User time: 40.219999999994457
(PID.TID 0000.0001)         System time: 11.860000000000014
(PID.TID 0000.0001)     Wall clock time: 126.82821679115295
(PID.TID 0000.0001)          No. starts: 13110
(PID.TID 0000.0001)           No. stops: 13110
(PID.TID 0000.0001)   Seconds in section "DO_WRITE_PICKUP     [FORWARD_STEP]":
(PID.TID 0000.0001)           User time: 2.8099999999998317
(PID.TID 0000.0001)         System time: 0.43999999999994088
(PID.TID 0000.0001)     Wall clock time: 3.2627501487731934
(PID.TID 0000.0001)          No. starts: 13110
(PID.TID 0000.0001)           No. stops: 13110
(PID.TID 0000.0001)   Seconds in section "COST_AVERAGESFIELDS [THE_MAIN_LOOP]":
(PID.TID 0000.0001)           User time: 0.26999999999998181
(PID.TID 0000.0001)         System time: 3.00000000000295586E-2
(PID.TID 0000.0001)     Wall clock time: 0.31185412406921387
(PID.TID 0000.0001)          No. starts: 1
(PID.TID 0000.0001)           No. stops: 1
(PID.TID 0000.0001)   Seconds in section "PROFILES_INLOOP    [THE_MAIN_LOOP]":
(PID.TID 0000.0001)           User time: 0.
(PID.TID 0000.0001)         System time: 0.
(PID.TID 0000.0001)     Wall clock time: 6.62398338317871094E-3
(PID.TID 0000.0001)          No. starts: 1
(PID.TID 0000.0001)           No. stops: 1
(PID.TID 0000.0001)   Seconds in section "ECCO_COST_DRIVER   [THE_MAIN_LOOP]":
(PID.TID 0000.0001)           User time: 132.40999999999997
(PID.TID 0000.0001)         System time: 79.100000000000023
(PID.TID 0000.0001)     Wall clock time: 430.32750797271729
(PID.TID 0000.0001)          No. starts: 1
(PID.TID 0000.0001)           No. stops: 1
(PID.TID 0000.0001)   Seconds in section "COST_GENCOST_ALL    [ECCO SPIN-DOWN]":
(PID.TID 0000.0001)           User time: 132.17999999999995
(PID.TID 0000.0001)         System time: 78.920000000000016
(PID.TID 0000.0001)     Wall clock time: 429.37039494514465
(PID.TID 0000.0001)          No. starts: 1
(PID.TID 0000.0001)           No. stops: 1
(PID.TID 0000.0001)   Seconds in section "CTRL_COST_DRIVER [ECCO SPIN-DOWN]":
(PID.TID 0000.0001)           User time: 0.23000000000001819
(PID.TID 0000.0001)         System time: 0.18000000000000682
(PID.TID 0000.0001)     Wall clock time: 0.95708608627319336
(PID.TID 0000.0001)          No. starts: 1
(PID.TID 0000.0001)           No. stops: 1
(PID.TID 0000.0001)   Seconds in section "COST_FINAL         [ADJOINT SPIN-DOWN]":
(PID.TID 0000.0001)           User time: 9.99999999999090505E-3
(PID.TID 0000.0001)         System time: 0.
(PID.TID 0000.0001)     Wall clock time: 2.76739597320556641E-2
(PID.TID 0000.0001)          No. starts: 1
(PID.TID 0000.0001)           No. stops: 1
(PID.TID 0000.0001) // ======================================================
(PID.TID 0000.0001) // Tile <-> Tile communication statistics
(PID.TID 0000.0001) // ======================================================
(PID.TID 0000.0001) // o Tile number: 000001
(PID.TID 0000.0001) //         No. X exchanges =              0
(PID.TID 0000.0001) //            Max. X spins =              0
(PID.TID 0000.0001) //            Min. X spins =     1000000000
(PID.TID 0000.0001) //          Total. X spins =              0
(PID.TID 0000.0001) //            Avg. X spins =       0.00E+00
(PID.TID 0000.0001) //         No. Y exchanges =              0
(PID.TID 0000.0001) //            Max. Y spins =              0
(PID.TID 0000.0001) //            Min. Y spins =     1000000000
(PID.TID 0000.0001) //          Total. Y spins =              0
(PID.TID 0000.0001) //            Avg. Y spins =       0.00E+00
(PID.TID 0000.0001) // o Thread number: 000001
(PID.TID 0000.0001) //            No. barriers =       45773618
(PID.TID 0000.0001) //      Max. barrier spins =              1
(PID.TID 0000.0001) //      Min. barrier spins =              1
(PID.TID 0000.0001) //     Total barrier spins =       45773618
(PID.TID 0000.0001) //      Avg. barrier spins =       1.00E+00
PROGRAM MAIN: Execution ended Normally
