(PID.TID 0000.0001) 
(PID.TID 0000.0001) // ======================================================
(PID.TID 0000.0001) //                      MITgcm UV
(PID.TID 0000.0001) //                      =========
(PID.TID 0000.0001) // ======================================================
(PID.TID 0000.0001) // execution environment starting up...
(PID.TID 0000.0001) 
(PID.TID 0000.0001) // MITgcmUV version:  checkpoint66g
(PID.TID 0000.0001) // Build user:        mjmn02
(PID.TID 0000.0001) // Build host:        ln04
(PID.TID 0000.0001) // Build date:        Mon Apr 25 11:38:53 BST 2022
(PID.TID 0000.0001) 
(PID.TID 0000.0001) // =======================================================
(PID.TID 0000.0001) // Execution Environment parameter file "eedata"
(PID.TID 0000.0001) // =======================================================
(PID.TID 0000.0001) ># Example "eedata" file
(PID.TID 0000.0001) ># Lines beginning "#" are comments
(PID.TID 0000.0001) ># nTx - No. threads per process in X
(PID.TID 0000.0001) ># nTy - No. threads per process in Y
(PID.TID 0000.0001) > &EEPARMS
(PID.TID 0000.0001) > useCubedSphereExchange=.TRUE.,
(PID.TID 0000.0001) > nTx=1,
(PID.TID 0000.0001) > nTy=1,
(PID.TID 0000.0001) > debugMode=.FALSE.,
(PID.TID 0000.0001) > /
(PID.TID 0000.0001) ># Note: Some systems use & as the
(PID.TID 0000.0001) ># namelist terminator. Other systems
(PID.TID 0000.0001) ># use a / character (as shown here).
(PID.TID 0000.0001) 
(PID.TID 0000.0001) // =======================================================
(PID.TID 0000.0001) // Computational Grid Specification ( see files "SIZE.h" )
(PID.TID 0000.0001) //                                  ( and "eedata"       )
(PID.TID 0000.0001) // =======================================================
(PID.TID 0000.0001)      nPx =   96 ; /* No. processes in X */
(PID.TID 0000.0001)      nPy =    1 ; /* No. processes in Y */
(PID.TID 0000.0001)      nSx =    1 ; /* No. tiles in X per process */
(PID.TID 0000.0001)      nSy =    1 ; /* No. tiles in Y per process */
(PID.TID 0000.0001)      sNx =   30 ; /* Tile size in X */
(PID.TID 0000.0001)      sNy =   30 ; /* Tile size in Y */
(PID.TID 0000.0001)      OLx =    4 ; /* Tile overlap distance in X */
(PID.TID 0000.0001)      OLy =    4 ; /* Tile overlap distance in Y */
(PID.TID 0000.0001)      nTx =    1 ; /* No. threads in X per process */
(PID.TID 0000.0001)      nTy =    1 ; /* No. threads in Y per process */
(PID.TID 0000.0001)       Nr =   50 ; /* No. levels in the vertical   */
(PID.TID 0000.0001)       Nx = 2880 ; /* Total domain size in X ( = nPx*nSx*sNx ) */
(PID.TID 0000.0001)       Ny =   30 ; /* Total domain size in Y ( = nPy*nSy*sNy ) */
(PID.TID 0000.0001)   nTiles =    1 ; /* Total no. tiles per process ( = nSx*nSy ) */
(PID.TID 0000.0001)   nProcs =   96 ; /* Total no. processes ( = nPx*nPy ) */
(PID.TID 0000.0001) nThreads =    1 ; /* Total no. threads per process ( = nTx*nTy ) */
(PID.TID 0000.0001) usingMPI =    T ; /* Flag used to control whether MPI is in use */
(PID.TID 0000.0001)                   /*  note: To execute a program with MPI calls */
(PID.TID 0000.0001)                   /*  it must be launched appropriately e.g     */
(PID.TID 0000.0001)                   /*  "mpirun -np 64 ......"                    */
(PID.TID 0000.0001) useCoupler=    F ;/* Flag used to control communications with   */
(PID.TID 0000.0001)                   /*  other model components, through a coupler */
(PID.TID 0000.0001) debugMode =    F ; /* print debug msg. (sequence of S/R calls)  */
(PID.TID 0000.0001) printMapIncludesZeros=    F ; /* print zeros in Std.Output maps */
(PID.TID 0000.0001) maxLengthPrt1D=   65 /* maxLength of 1D array printed to StdOut */
(PID.TID 0000.0001) 
(PID.TID 0000.0001) ======= Starting MPI parallel Run =========
(PID.TID 0000.0001)  My Processor Name (len:  9 ) = nid004829
(PID.TID 0000.0001)  Located at (  0,  0) on processor grid (0: 95,0:  0)
(PID.TID 0000.0001)  Origin at  (     1,     1) on global grid (1:  2880,1:    30)
(PID.TID 0000.0001)  North neighbor = processor 0000
(PID.TID 0000.0001)  South neighbor = processor 0000
(PID.TID 0000.0001)   East neighbor = processor 0001
(PID.TID 0000.0001)   West neighbor = processor 0095
(PID.TID 0000.0001) // ======================================================
(PID.TID 0000.0001) // Mapping of tiles to threads
(PID.TID 0000.0001) // ======================================================
(PID.TID 0000.0001) // -o- Thread   1, tiles (   1:   1,   1:   1)
(PID.TID 0000.0001) 
(PID.TID 0000.0001) W2_READPARMS: opening data.exch2
(PID.TID 0000.0001)  OPEN_COPY_DATA_FILE: opening file data.exch2
(PID.TID 0000.0001) // =======================================================
(PID.TID 0000.0001) // Parameter file "data.exch2"
(PID.TID 0000.0001) // =======================================================
(PID.TID 0000.0001) ># EXCH2 Package: Wrapper-2 User Choice
(PID.TID 0000.0001) >#--------------------
(PID.TID 0000.0001) >#  preDefTopol   :: pre-defined Topology selector:
(PID.TID 0000.0001) >#                :: = 0 : topology defined from processing "data.exch2";
(PID.TID 0000.0001) >#                :: = 1 : simple, single facet topology;
(PID.TID 0000.0001) >#                :: = 2 : customized topology (w2_set_myown_facets)
(PID.TID 0000.0001) >#                :: = 3 : 6-facet Cube (3 face-dims: nRed, nGreen, nBlue).
(PID.TID 0000.0001) >#  dimsFacets    :: facet pair of dimensions (n1x,n1y, n2x,n2y ...)
(PID.TID 0000.0001) >#  facetEdgeLink :: Face-Edge connectivity map:
(PID.TID 0000.0001) >#    facetEdgeLink(i,j)=XX.1 : face(j)-edge(i) (i=1,2,3,4 <==> N,S,E,W)
(PID.TID 0000.0001) >#    is connected to Northern edge of face "XX" ; similarly,
(PID.TID 0000.0001) >#    = XX.2 : to Southern.E, XX.3 = Eastern.E, XX.4 = Western.E of face "XX"
(PID.TID 0000.0001) >#  blankList     :: List of "blank" tiles
(PID.TID 0000.0001) >#  W2_mapIO      :: global map IO selector (-1 = old type ; 0 = 1 long line in X
(PID.TID 0000.0001) >#                :: 1 = compact, mostly in Y dir)
(PID.TID 0000.0001) >#  W2_printMsg   :: option for information messages printing
(PID.TID 0000.0001) >#                :: <0 : write to log file ; =0 : minimum print ;
(PID.TID 0000.0001) >#                :: =1 : no duplicated print ; =2 : all processes do print
(PID.TID 0000.0001) >#--------------------
(PID.TID 0000.0001) > &W2_EXCH2_PARM01
(PID.TID 0000.0001) >  W2_printMsg= 0,
(PID.TID 0000.0001) >  W2_mapIO   = 1,
(PID.TID 0000.0001) >#
(PID.TID 0000.0001) >  preDefTopol=0,
(PID.TID 0000.0001) >#-- 5 facets llc_120 topology (drop facet 6 and its connection):
(PID.TID 0000.0001) >  dimsFacets(1:10) = 90, 270, 90, 270, 90, 90, 270, 90, 270, 90,
(PID.TID 0000.0001) >  facetEdgeLink(1:4,1)= 3.4, 0. , 2.4, 5.1,
(PID.TID 0000.0001) >  facetEdgeLink(1:4,2)= 3.2, 0. , 4.2, 1.3,
(PID.TID 0000.0001) >  facetEdgeLink(1:4,3)= 5.4, 2.1, 4.4, 1.1,
(PID.TID 0000.0001) >  facetEdgeLink(1:4,4)= 5.2, 2.3, 0. , 3.3,
(PID.TID 0000.0001) >  facetEdgeLink(1:4,5)= 1.4, 4.1, 0. , 3.1,
(PID.TID 0000.0001) >#-- full 6 facets llc_120 topology (equivalent to default preDefTopol=3):
(PID.TID 0000.0001) ># dimsFacets(1:12) = 120, 360, 120, 360, 120, 120, 360, 120, 360, 120, 120, 120,
(PID.TID 0000.0001) ># facetEdgeLink(1:4,1)= 3.4, 6.1, 2.4, 5.1,
(PID.TID 0000.0001) ># facetEdgeLink(1:4,2)= 3.2, 6.3, 4.2, 1.3,
(PID.TID 0000.0001) ># facetEdgeLink(1:4,3)= 5.4, 2.1, 4.4, 1.1,
(PID.TID 0000.0001) ># facetEdgeLink(1:4,4)= 5.2, 2.3, 6.2, 3.3,
(PID.TID 0000.0001) ># facetEdgeLink(1:4,5)= 1.4, 4.1, 6.4, 3.1,
(PID.TID 0000.0001) ># facetEdgeLink(1:4,6)= 1.2, 4.3, 2.2, 5.3,
(PID.TID 0000.0001) >#
(PID.TID 0000.0001) >#90x30   nprocs = 36
(PID.TID 0000.0001) >#  blankList(1:3)=1,10,11,
(PID.TID 0000.0001) >#30x90
(PID.TID 0000.0001) >#
(PID.TID 0000.0001) >#45x30   nprocs = 72
(PID.TID 0000.0001) >#  blankList(1:6)=1,2,19,20,21,22
(PID.TID 0000.0001) >#old:  blankList(1:8)=1,2,19,20,21,22,33,72
(PID.TID 0000.0001) >#30x45   nprocs = 68
(PID.TID 0000.0001) >#  blankList(1:10)=2,3,19,20,21,35,51,60,69,78
(PID.TID 0000.0001) >#45x45   nprocs = 48
(PID.TID 0000.0001) >#  blankList(1:4)=2,13,14,23
(PID.TID 0000.0001) >#old:  blankList(1:3)=2,13,14
(PID.TID 0000.0001) >#30x30   nprocs = 96
(PID.TID 0000.0001) >  blankList(1:21)=1,2,3,5,6,28,29,30,31,32,33,49,50,52,53,72,81,90,99,108,117
(PID.TID 0000.0001) >#old:   blankList(1:18)=1,2,3,28,29,30,31,32,33,49,50,53,72,81,90,99,108,117
(PID.TID 0000.0001) >#15x30   nprocs = 192
(PID.TID 0000.0001) >#  blankList(1:42)=1,2,3,4,5,6,9,10,11,12,55,56,57,58,59,60,61,62,63,64,65,66,
(PID.TID 0000.0001) >#            97,98,99,100,103,104,105,106,143,144,
(PID.TID 0000.0001) >#            161,162,179,180,197,198,215,216,233,234
(PID.TID 0000.0001) >#15x15   nprocs = 360
(PID.TID 0000.0001) >#  blankList(1:108)=1,2,3,4,5,6,7,8,9,10,11,12,14,15,16,17,18,21,22,23,24,
(PID.TID 0000.0001) >#  65,71,75,76,90,95,96,101,102,109,110,111,112,113,114,115,116,117,118,119,
(PID.TID 0000.0001) >#  120,121,122,123,124,125,126,127,128,129,130,131,132,
(PID.TID 0000.0001) >#  188,189,190,193,194,195,196,199,
(PID.TID 0000.0001) >#  200,201,202,203,205,206,207,208,209,211,212,213,214,215,216,242,247,253,
(PID.TID 0000.0001) >#  267,268,269,270,287,288,305,306,323,324,341,342,359,360,362,376,377,378,
(PID.TID 0000.0001) >#  380,381,382,395,396,400,412,413,414,430,
(PID.TID 0000.0001) >#
(PID.TID 0000.0001) > /
(PID.TID 0000.0001) 
(PID.TID 0000.0001) W2_READPARMS: finished reading data.exch2
(PID.TID 0000.0001) W2_useE2ioLayOut=    T ;/* T: use Exch2 glob IO map; F: use model default */
(PID.TID 0000.0001) W2_mapIO        =   1 ; /* select option for Exch2 global-IO map */
(PID.TID 0000.0001) W2_printMsg     =   0 ; /* select option for printing information */
(PID.TID 0000.0001) ===== Start setting W2 TOPOLOGY:
(PID.TID 0000.0001) W2_E2SETUP: number of Active Tiles =      96
(PID.TID 0000.0001) W2_E2SETUP: number of Blank Tiles  =      21
(PID.TID 0000.0001) W2_E2SETUP: Total number of Tiles  =     117
(PID.TID 0000.0001) W2_SET_GEN_FACETS: preDefTopol=  0 selected
(PID.TID 0000.0001) W2_SET_GEN_FACETS: Number of facets =  5 (inferred from "dimsFacets")
(PID.TID 0000.0001) W2_E2SETUP: Total number of Facets =       5
(PID.TID 0000.0001) W2_SET_F2F_INDEX: index matrix for connected Facet-Edges:
(PID.TID 0000.0001) ** WARNING ** S.Edge of facet #  1 disconnected (facet_link=  0.00)
(PID.TID 0000.0001) ** WARNING ** S.Edge of facet #  2 disconnected (facet_link=  0.00)
(PID.TID 0000.0001) ** WARNING ** E.Edge of facet #  4 disconnected (facet_link=  0.00)
(PID.TID 0000.0001) ** WARNING ** E.Edge of facet #  5 disconnected (facet_link=  0.00)
(PID.TID 0000.0001) W2_SET_MAP_TILES: tile mapping within facet and global Map:
(PID.TID 0000.0001)  W2_mapIO =   90 (=    3*sNx)
(PID.TID 0000.0001)  Global Map (IO): X-size=      90 , Y-size=    1170
(PID.TID 0000.0001) W2_SET_MAP_TILES: tile offset within facet and global Map:
- facet  1 : X-size=    90 , Y-size=   270 ;   27 tiles (Tx,Ty=   3,   9)
- facet  2 : X-size=    90 , Y-size=   270 ;   27 tiles (Tx,Ty=   3,   9)
- facet  3 : X-size=    90 , Y-size=    90 ;    9 tiles (Tx,Ty=   3,   3)
- facet  4 : X-size=   270 , Y-size=    90 ;   27 tiles (Tx,Ty=   9,   3)
- facet  5 : X-size=   270 , Y-size=    90 ;   27 tiles (Tx,Ty=   9,   3)
(PID.TID 0000.0001) W2_SET_MAP_CUMSUM: setting Facet Matrix for CUMUL-SUM
(PID.TID 0000.0001) W2_SET_MAP_CUMSUM: set    4 /   5 active facets (pass,type=   1, 1)
 Facet Matrix for CUMUL-SUM (nFacets=   5, nActive=   5 ):
- facet  1 :  0  0 ,  0  0 ,  0  0 ,  0  0 ,  0  0 ,
- facet  2 :  1  0 ,  0  0 ,  0  0 ,  0  0 ,  0  0 ,
- facet  3 :  1  0 ,  0  1 ,  0  0 ,  0  0 ,  0  0 ,
- facet  4 :  1  0 ,  0  1 ,  1  0 ,  0  0 ,  0  0 ,
- facet  5 :  1  0 ,  0  1 ,  1  0 ,  0  1 ,  0  0 ,
 missing-corner Tile for CUMUL-SUM (nTiles=   117 ): W2_tMC1=    25 , W2_tMC2=     0
(PID.TID 0000.0001) W2_SET_MAP_CUMSUM: done (skip Tile Matrix setting)
(PID.TID 0000.0001) W2_SET_TILE2TILES: tile neighbours and index connection:
(PID.TID 0000.0001) current Max.Nb.Neighbours (e.g., on tile    7 ) =  4
(PID.TID 0000.0001) ===== W2 TILE TOPOLOGY =====
(PID.TID 0000.0001)  TILE:     4 (bi,bj=   1   1 ), Nb of Neighbours =  2
(PID.TID 0000.0001)     NEIGHBOUR  1 = TILE    7 (n=  2) Comm = MSG (PROC=    2)
(PID.TID 0000.0001)     NEIGHBOUR  2 = TILE  116 (n=  1) Comm = MSG (PROC=   96)
(PID.TID 0000.0001) =====       setting W2 TOPOLOGY: Done
(PID.TID 0000.0001) 
(PID.TID 0000.0001)  INI_PARMS: opening model parameter file "data"
(PID.TID 0000.0001)  OPEN_COPY_DATA_FILE: opening file data
(PID.TID 0000.0001) // =======================================================
(PID.TID 0000.0001) // Parameter file "data"
(PID.TID 0000.0001) // =======================================================
(PID.TID 0000.0001) ># ====================
(PID.TID 0000.0001) ># | Model parameters |
(PID.TID 0000.0001) ># ====================
(PID.TID 0000.0001) >#
(PID.TID 0000.0001) ># Continuous equation parameters
(PID.TID 0000.0001) > &PARM01
(PID.TID 0000.0001) > tRef               = 3*23.,3*22.,21.,2*20.,19.,2*18.,17.,2*16.,15.,14.,13.,
(PID.TID 0000.0001) >                      12.,11.,2*9.,8.,7.,2*6.,2*5.,3*4.,3*3.,4*2.,12*1.,
(PID.TID 0000.0001) > sRef               = 50*34.5,
(PID.TID 0000.0001) > no_slip_sides  = .TRUE.,
(PID.TID 0000.0001) > no_slip_bottom = .TRUE.,
(PID.TID 0000.0001) >#
(PID.TID 0000.0001) > viscAr=0.5E-4,
(PID.TID 0000.0001) >#
(PID.TID 0000.0001) > viscAh=1.E0,
(PID.TID 0000.0001) > viscAhGrid=2.E-2,
(PID.TID 0000.0001) ># viscAh=2.0e4,
(PID.TID 0000.0001) >#
(PID.TID 0000.0001) > diffKhT=1.E1,
(PID.TID 0000.0001) > diffKrT=1.E-5,
(PID.TID 0000.0001) > diffKhS=1.E1,
(PID.TID 0000.0001) > diffKrS=1.E-5,
(PID.TID 0000.0001) >#
(PID.TID 0000.0001) >### diffKrBL79surf=0.1E-4,
(PID.TID 0000.0001) >### diffKrBL79deep=1.0E-4,
(PID.TID 0000.0001) > bottomDragQuadratic = 0.001,
(PID.TID 0000.0001) >#when using ggl90
(PID.TID 0000.0001) > ivdc_kappa=10.,
(PID.TID 0000.0001) > implicitDiffusion=.TRUE.,
(PID.TID 0000.0001) > implicitViscosity=.TRUE.,
(PID.TID 0000.0001) > useRealFreshWaterFlux=.TRUE.,
(PID.TID 0000.0001) ># balanceThetaClimRelax=.TRUE.,
(PID.TID 0000.0001) > balanceSaltClimRelax=.TRUE.,
(PID.TID 0000.0001) ># balanceEmPmR=.TRUE.,
(PID.TID 0000.0001) ># balanceQnet=.TRUE.,
(PID.TID 0000.0001) > allowFreezing=.FALSE.,
(PID.TID 0000.0001) >### hFacInf=0.2,
(PID.TID 0000.0001) >### hFacSup=2.0,
(PID.TID 0000.0001) > hFacMin=.2,
(PID.TID 0000.0001) > hFacMinDr=5.,
(PID.TID 0000.0001) > select_rStar=2,
(PID.TID 0000.0001) > nonlinFreeSurf=4,
(PID.TID 0000.0001) > gravity=9.81,
(PID.TID 0000.0001) > rhonil=1029.,
(PID.TID 0000.0001) > rhoConst=1029.,
(PID.TID 0000.0001) > rhoConstFresh=1000.,
(PID.TID 0000.0001) > convertFW2Salt=-1.,
(PID.TID 0000.0001) > eosType='JMD95Z',
(PID.TID 0000.0001) > implicitFreeSurface=.TRUE.,
(PID.TID 0000.0001) > exactConserv=.TRUE.,
(PID.TID 0000.0001) > useSingleCpuIO=.TRUE.,
(PID.TID 0000.0001) > tempAdvScheme=30,
(PID.TID 0000.0001) > saltAdvScheme=30,
(PID.TID 0000.0001) > tempVertAdvScheme=3,
(PID.TID 0000.0001) > saltVertAdvScheme=3,
(PID.TID 0000.0001) > tempImplVertAdv=.TRUE.,
(PID.TID 0000.0001) > saltImplVertAdv=.TRUE.,
(PID.TID 0000.0001) > staggerTimeStep=.TRUE.,
(PID.TID 0000.0001) > vectorInvariantMomentum=.TRUE.,
(PID.TID 0000.0001) >#when using the cd scheme:
(PID.TID 0000.0001) ># useCDscheme=.TRUE.,
(PID.TID 0000.0001) > useJamartWetPoints=.TRUE.,
(PID.TID 0000.0001) > readBinaryPrec=32,
(PID.TID 0000.0001) > writeBinaryPrec=32,
(PID.TID 0000.0001) > debugLevel=1,
(PID.TID 0000.0001) > /
(PID.TID 0000.0001) >
(PID.TID 0000.0001) ># Elliptic solver parameters
(PID.TID 0000.0001) > &PARM02
(PID.TID 0000.0001) > cg2dMaxIters=300,
(PID.TID 0000.0001) >#cg2dTargetResWunit=1.E-12,
(PID.TID 0000.0001) > /
(PID.TID 0000.0001) >
(PID.TID 0000.0001) ># Time stepping parameters
(PID.TID 0000.0001) > &PARM03
(PID.TID 0000.0001) > nIter0=1,
(PID.TID 0000.0001) >#2 lev2 for testing:
(PID.TID 0000.0001) >#nTimeSteps=8,
(PID.TID 0000.0001) >#3month
(PID.TID 0000.0001) >#nTimeSteps=2160,
(PID.TID 0000.0001) >#18month
(PID.TID 0000.0001) > nTimeSteps=13110,
(PID.TID 0000.0001) >#2yr
(PID.TID 0000.0001) >#nTimeSteps=17520,
(PID.TID 0000.0001) >#4-yr from 2014 to 2017, inclusive
(PID.TID 0000.0001) >#nTimeSteps=35051,
(PID.TID 0000.0001) >#20y:
(PID.TID 0000.0001) >#nTimeSteps=175295,
(PID.TID 0000.0001) >#22y:
(PID.TID 0000.0001) >#nTimeSteps=192839,
(PID.TID 0000.0001) >#24y:
(PID.TID 0000.0001) >#nTimeSteps=210359,
(PID.TID 0000.0001) >#26yr
(PID.TID 0000.0001) >#nTimeSteps=227903,
(PID.TID 0000.0001) >#60 years
(PID.TID 0000.0001) >#nTimeSteps=525985,
(PID.TID 0000.0001) >#
(PID.TID 0000.0001) > forcing_In_AB=.FALSE.,
(PID.TID 0000.0001) > momDissip_In_AB=.FALSE.,
(PID.TID 0000.0001) >#when using the cd scheme:
(PID.TID 0000.0001) ># epsAB_CD = 0.25,
(PID.TID 0000.0001) ># tauCD=172800.0,
(PID.TID 0000.0001) > deltaTmom   =3600.,
(PID.TID 0000.0001) > deltaTtracer=3600.,
(PID.TID 0000.0001) > deltaTfreesurf=3600.,
(PID.TID 0000.0001) > deltaTClock =3600.,
(PID.TID 0000.0001) >#when using ab2:
(PID.TID 0000.0001) ># abEps = 0.1,
(PID.TID 0000.0001) >#when using ab3:
(PID.TID 0000.0001) > doAB_onGtGs=.FALSE.,
(PID.TID 0000.0001) > alph_AB=0.5,
(PID.TID 0000.0001) > beta_AB=0.281105,
(PID.TID 0000.0001) >#
(PID.TID 0000.0001) > pChkptFreq  =31536000.0,
(PID.TID 0000.0001) > chkptFreq   =31536000.0,
(PID.TID 0000.0001) ># taveFreq    =31536000.0,
(PID.TID 0000.0001) ># dumpFreq    =31536000.0,
(PID.TID 0000.0001) ># monitorFreq = 7200.0,
(PID.TID 0000.0001) > monitorFreq = 6307200.0,
(PID.TID 0000.0001) > dumpInitAndLast = .TRUE.,
(PID.TID 0000.0001) > adjDumpFreq = 31536000.0,
(PID.TID 0000.0001) >#adjDumpFreq = 604800.0,
(PID.TID 0000.0001) > adjMonitorFreq = 864000.0,
(PID.TID 0000.0001) > pickupStrictlyMatch=.FALSE.,
(PID.TID 0000.0001) > /
(PID.TID 0000.0001) >
(PID.TID 0000.0001) ># Gridding parameters
(PID.TID 0000.0001) > &PARM04
(PID.TID 0000.0001) > usingCurvilinearGrid=.TRUE.,
(PID.TID 0000.0001) > delR =
(PID.TID 0000.0001) >     10.00, 10.00, 10.00, 10.00, 10.00, 10.00, 10.00, 10.01,
(PID.TID 0000.0001) >     10.03, 10.11, 10.32, 10.80, 11.76, 13.42, 16.04, 19.82, 24.85,
(PID.TID 0000.0001) >     31.10, 38.42, 46.50, 55.00, 63.50, 71.58, 78.90, 85.15, 90.18,
(PID.TID 0000.0001) >     93.96, 96.58, 98.25, 99.25,100.01,101.33,104.56,111.33,122.83,
(PID.TID 0000.0001) >     139.09,158.94,180.83,203.55,226.50,249.50,272.50,295.50,318.50,
(PID.TID 0000.0001) >     341.50,364.50,387.50,410.50,433.50,456.50,
(PID.TID 0000.0001) > /
(PID.TID 0000.0001) >
(PID.TID 0000.0001) ># Input datasets
(PID.TID 0000.0001) > &PARM05
(PID.TID 0000.0001) > diffKrFile='total_diffkr_r009bit11.bin',
(PID.TID 0000.0001) > adTapeDir='tapes',
(PID.TID 0000.0001) >#bathyFile      ='bathy_eccollc_90x50.bin',
(PID.TID 0000.0001) > bathyFile      ='bathy_eccollc_90x50_min2pts.bin',
(PID.TID 0000.0001) > hydrogThetaFile='T_OWPv1_M_eccollc_90x50.bin',
(PID.TID 0000.0001) > hydrogSaltFile ='S_OWPv1_M_eccollc_90x50.bin',
(PID.TID 0000.0001) > viscA4Dfile    ='fenty_biharmonic_visc_v11.bin',
(PID.TID 0000.0001) > viscA4Zfile    ='fenty_biharmonic_visc_v11.bin',
(PID.TID 0000.0001) > geothermalFile='geothermalFlux.bin',
(PID.TID 0000.0001) >#
(PID.TID 0000.0001) > /
(PID.TID 0000.0001) 
(PID.TID 0000.0001)  INI_PARMS ; starts to read PARM01
(PID.TID 0000.0001)  INI_PARMS ; read PARM01 : OK
(PID.TID 0000.0001)  INI_PARMS ; starts to read PARM02
(PID.TID 0000.0001)  INI_PARMS ; read PARM02 : OK
(PID.TID 0000.0001)  INI_PARMS ; starts to read PARM03
(PID.TID 0000.0001)  INI_PARMS ; read PARM03 : OK
(PID.TID 0000.0001)  INI_PARMS ; starts to read PARM04
(PID.TID 0000.0001)  INI_PARMS ; read PARM04 : OK
(PID.TID 0000.0001)  INI_PARMS ; starts to read PARM05
(PID.TID 0000.0001)  INI_PARMS ; read PARM05 : OK
(PID.TID 0000.0001)  INI_PARMS: finished reading file "data"
(PID.TID 0000.0001)  PACKAGES_BOOT: opening data.pkg
(PID.TID 0000.0001)  OPEN_COPY_DATA_FILE: opening file data.pkg
(PID.TID 0000.0001) // =======================================================
(PID.TID 0000.0001) // Parameter file "data.pkg"
(PID.TID 0000.0001) // =======================================================
(PID.TID 0000.0001) ># Packages
(PID.TID 0000.0001) > &PACKAGES
(PID.TID 0000.0001) > useEXF   = .TRUE.,
(PID.TID 0000.0001) >#useRBCS  = .TRUE.,
(PID.TID 0000.0001) > useGMRedi= .TRUE.,
(PID.TID 0000.0001) ># useKPP   = .TRUE.,
(PID.TID 0000.0001) > useSBO   = .TRUE.,
(PID.TID 0000.0001) >#useMNC   = .TRUE.,
(PID.TID 0000.0001) > useSeaice= .TRUE.,
(PID.TID 0000.0001) > useGGL90=.TRUE.,
(PID.TID 0000.0001) > useSALT_PlUME=.TRUE.,
(PID.TID 0000.0001) ># useDOWN_SLOPE=.TRUE.,
(PID.TID 0000.0001) > useDiagnostics=.FALSE.,
(PID.TID 0000.0001) > useECCO=.TRUE.,
(PID.TID 0000.0001) > useCTRL=.TRUE.,
(PID.TID 0000.0001) > useProfiles=.TRUE.,
(PID.TID 0000.0001) > useSMOOTH=.TRUE.,
(PID.TID 0000.0001) >#useGrdchk=.TRUE.,
(PID.TID 0000.0001) >#useLayers=.TRUE.,
(PID.TID 0000.0001) >#
(PID.TID 0000.0001) >#usePtracers=.TRUE.,
(PID.TID 0000.0001) >#useBBL=.TRUE.,
(PID.TID 0000.0001) > /
(PID.TID 0000.0001) 
(PID.TID 0000.0001)  PACKAGES_BOOT: finished reading data.pkg
(PID.TID 0000.0001)  PACKAGES_BOOT: On/Off package Summary
 --------  pkgs with a standard "usePKG" On/Off switch in "data.pkg":  --------
 pkg/ggl90                compiled   and   used ( useGGL90                 = T )
 pkg/gmredi               compiled   and   used ( useGMRedi                = T )
 pkg/cal                  compiled   and   used ( useCAL                   = T )
 pkg/exf                  compiled   and   used ( useEXF                   = T )
 pkg/autodiff             compiled   and   used ( useAUTODIFF              = T )
 pkg/grdchk               compiled but not used ( useGrdchk                = F )
 pkg/smooth               compiled   and   used ( useSMOOTH                = T )
 pkg/profiles             compiled   and   used ( usePROFILES              = T )
 pkg/ecco                 compiled   and   used ( useECCO                  = T )
 pkg/ctrl                 compiled   and   used ( useCTRL                  = T )
 pkg/sbo                  compiled   and   used ( useSBO                   = T )
 pkg/seaice               compiled   and   used ( useSEAICE                = T )
 pkg/salt_plume           compiled   and   used ( useSALT_PLUME            = T )
 pkg/diagnostics          compiled but not used ( useDiagnostics           = F )
 -------- pkgs without standard "usePKG" On/Off switch in "data.pkg":  --------
 pkg/generic_advdiff      compiled   and   used ( useGAD                   = T )
 pkg/mom_common           compiled   and   used ( momStepping              = T )
 pkg/mom_vecinv           compiled   and   used ( +vectorInvariantMomentum = T )
 pkg/monitor              compiled   and   used ( monitorFreq > 0.         = T )
 pkg/timeave              compiled but not used ( taveFreq > 0.            = F )
 pkg/debug                compiled but not used ( debugMode                = F )
 pkg/exch2                compiled   and   used
 pkg/rw                   compiled   and   used
 pkg/mdsio                compiled   and   used
 pkg/autodiff             compiled   and   used
 pkg/cost                 compiled   and   used
(PID.TID 0000.0001)  PACKAGES_BOOT: End of package Summary
(PID.TID 0000.0001) 
(PID.TID 0000.0001) CAL_READPARMS: opening data.cal
(PID.TID 0000.0001)  OPEN_COPY_DATA_FILE: opening file data.cal
(PID.TID 0000.0001) // =======================================================
(PID.TID 0000.0001) // Parameter file "data.cal"
(PID.TID 0000.0001) // =======================================================
(PID.TID 0000.0001) >#
(PID.TID 0000.0001) ># *******************
(PID.TID 0000.0001) ># Calendar Parameters
(PID.TID 0000.0001) ># *******************
(PID.TID 0000.0001) > &CAL_NML
(PID.TID 0000.0001) > TheCalendar='gregorian',
(PID.TID 0000.0001) > calendarDumps=.TRUE.,
(PID.TID 0000.0001) ># TheCalendar='model',
(PID.TID 0000.0001) > startDate_1=19920101,
(PID.TID 0000.0001) > startDate_2=120000,
(PID.TID 0000.0001) > /
(PID.TID 0000.0001) 
(PID.TID 0000.0001) CAL_READPARMS: finished reading data.cal
(PID.TID 0000.0001) EXF_READPARMS: opening data.exf
(PID.TID 0000.0001)  OPEN_COPY_DATA_FILE: opening file data.exf
(PID.TID 0000.0001) // =======================================================
(PID.TID 0000.0001) // Parameter file "data.exf"
(PID.TID 0000.0001) // =======================================================
(PID.TID 0000.0001) ># *********************
(PID.TID 0000.0001) ># External Forcing Data
(PID.TID 0000.0001) ># *********************
(PID.TID 0000.0001) >#
(PID.TID 0000.0001) > &EXF_NML_01
(PID.TID 0000.0001) >#
(PID.TID 0000.0001) > useAtmWind        = .FALSE.,
(PID.TID 0000.0001) >#NCEP VALUES:
(PID.TID 0000.0001) ># exf_albedo        = 0.15,
(PID.TID 0000.0001) ># exf_scal_BulkCdn  = 1.015,
(PID.TID 0000.0001) >#
(PID.TID 0000.0001) >#TO COMBINE WITH ALLOW_ZENITH_ANGLE:
(PID.TID 0000.0001) > exf_albedo        = 0.1,
(PID.TID 0000.0001) > useExfZenIncoming = .TRUE.,
(PID.TID 0000.0001) > select_ZenAlbedo  = 1,
(PID.TID 0000.0001) >#
(PID.TID 0000.0001) > ocean_emissivity = 0.97,
(PID.TID 0000.0001) > ice_emissivity = 0.95,
(PID.TID 0000.0001) > snow_emissivity = 0.95,
(PID.TID 0000.0001) >#
(PID.TID 0000.0001) > exf_iprec         = 32,
(PID.TID 0000.0001) > exf_yftype        = 'RL',
(PID.TID 0000.0001) > useExfYearlyFields= .TRUE.,
(PID.TID 0000.0001) > useExfCheckRange  = .FALSE.,
(PID.TID 0000.0001) > readStressOnAgrid = .TRUE.,
(PID.TID 0000.0001) > rotateStressOnAgrid = .TRUE.,
(PID.TID 0000.0001) > /
(PID.TID 0000.0001) >#
(PID.TID 0000.0001) > &EXF_NML_02
(PID.TID 0000.0001) > ustressfile       = 'eccov4r4_ustr',
(PID.TID 0000.0001) > vstressfile       = 'eccov4r4_vstr',
(PID.TID 0000.0001) > atempfile         = 'eccov4r4_tmp2m_degC',
(PID.TID 0000.0001) > aqhfile           = 'eccov4r4_spfh2m',
(PID.TID 0000.0001) > precipfile        = 'eccov4r4_rain',
(PID.TID 0000.0001) ># uwindfile         = 'EIG_u10m',
(PID.TID 0000.0001) ># vwindfile         = 'EIG_v10m',
(PID.TID 0000.0001) > wspeedfile        = 'eccov4r4_wspeed',
(PID.TID 0000.0001) > swdownfile        = 'eccov4r4_dsw',
(PID.TID 0000.0001) > lwdownfile        = 'eccov4r4_dlw',
(PID.TID 0000.0001) > apressurefile     = 'eccov4r4_pres',
(PID.TID 0000.0001) >#
(PID.TID 0000.0001) > ustressstartdate1   = 19920101,
(PID.TID 0000.0001) > ustressstartdate2   = 030000,
(PID.TID 0000.0001) > ustressperiod       = 21600.0,
(PID.TID 0000.0001) >#
(PID.TID 0000.0001) > vstressstartdate1   = 19920101,
(PID.TID 0000.0001) > vstressstartdate2   = 030000,
(PID.TID 0000.0001) > vstressperiod       = 21600.0,
(PID.TID 0000.0001) >#
(PID.TID 0000.0001) > atempstartdate1   = 19920101,
(PID.TID 0000.0001) > atempstartdate2   = 030000,
(PID.TID 0000.0001) > atempperiod       = 21600.0,
(PID.TID 0000.0001) >#
(PID.TID 0000.0001) > aqhstartdate1     = 19920101,
(PID.TID 0000.0001) > aqhstartdate2     = 030000,
(PID.TID 0000.0001) > aqhperiod         = 21600.0,
(PID.TID 0000.0001) >#
(PID.TID 0000.0001) > precipstartdate1  = 19920101,
(PID.TID 0000.0001) > precipstartdate2  = 030000,
(PID.TID 0000.0001) > precipperiod      = 21600.0,
(PID.TID 0000.0001) >#
(PID.TID 0000.0001) > runofffile        = 'runoff-2d-Fekete-1deg-mon-V4-SMOOTH.bin',
(PID.TID 0000.0001) > runoffperiod      = -12,
(PID.TID 0000.0001) >#
(PID.TID 0000.0001) > uwindstartdate1   = 19920101,
(PID.TID 0000.0001) > uwindstartdate2   = 030000,
(PID.TID 0000.0001) > uwindperiod       = 21600.0,
(PID.TID 0000.0001) >#
(PID.TID 0000.0001) > vwindstartdate1   = 19920101,
(PID.TID 0000.0001) > vwindstartdate2   = 030000,
(PID.TID 0000.0001) > vwindperiod       = 21600.0,
(PID.TID 0000.0001) >#
(PID.TID 0000.0001) > wspeedstartdate1   = 19920101,
(PID.TID 0000.0001) > wspeedstartdate2   = 030000,
(PID.TID 0000.0001) > wspeedperiod       = 21600.0,
(PID.TID 0000.0001) >#
(PID.TID 0000.0001) > swdownstartdate1  = 19920101,
(PID.TID 0000.0001) > swdownstartdate2  = 030000,
(PID.TID 0000.0001) > swdownperiod      = 21600.0,
(PID.TID 0000.0001) >#
(PID.TID 0000.0001) > lwdownstartdate1  = 19920101,
(PID.TID 0000.0001) > lwdownstartdate2  = 030000,
(PID.TID 0000.0001) > lwdownperiod      = 21600.0,
(PID.TID 0000.0001) >#
(PID.TID 0000.0001) > apressurestartdate1   = 19920101,
(PID.TID 0000.0001) > apressurestartdate2   = 030000,
(PID.TID 0000.0001) > apressureperiod       = 21600.0,
(PID.TID 0000.0001) >#
(PID.TID 0000.0001) > climsstperiod     = -12.,
(PID.TID 0000.0001) >#climsssfile       = 'SSS_WPv1_M_eccollc_90x50.bin',
(PID.TID 0000.0001) > climsssperiod     = -12.,
(PID.TID 0000.0001) >#climsssTauRelax   = 15768000.,
(PID.TID 0000.0001) > /
(PID.TID 0000.0001) >#
(PID.TID 0000.0001) > &EXF_NML_03
(PID.TID 0000.0001) >#NOT FOR EIG exf_offset_atemp  = 273.3971,
(PID.TID 0000.0001) > exf_offset_atemp  = 273.15,
(PID.TID 0000.0001) >#NOT FOR NEW RUNOFF FIELD exf_inscal_runoff = 3.1710e-08,
(PID.TID 0000.0001) > exf_inscal_swdown = -1.0,
(PID.TID 0000.0001) > exf_inscal_lwdown = -1.0,
(PID.TID 0000.0001) > exf_inscal_ustress = -1.0,
(PID.TID 0000.0001) > exf_inscal_vstress = -1.0,
(PID.TID 0000.0001) ># to compensate for sea level rise for nlfs/realFWF
(PID.TID 0000.0001) >#precip_exfremo_intercept = 1.073E-9,
(PID.TID 0000.0001) >#precip_exfremo_slope = -3.340E-18,
(PID.TID 0000.0001) > /
(PID.TID 0000.0001) >#
(PID.TID 0000.0001) > &EXF_NML_04
(PID.TID 0000.0001) > runoff_interpMethod = 0,
(PID.TID 0000.0001) > climsss_interpMethod = 0,
(PID.TID 0000.0001) > ustress_interpMethod = 0,
(PID.TID 0000.0001) > vstress_interpMethod = 0,
(PID.TID 0000.0001) > atemp_interpMethod = 0,
(PID.TID 0000.0001) > aqh_interpMethod = 0,
(PID.TID 0000.0001) > precip_interpMethod = 0,
(PID.TID 0000.0001) > wspeed_interpMethod = 0,
(PID.TID 0000.0001) > swdown_interpMethod = 0,
(PID.TID 0000.0001) > lwdown_interpMethod = 0,
(PID.TID 0000.0001) > apressure_interpMethod = 0,
(PID.TID 0000.0001) >#
(PID.TID 0000.0001) > /
(PID.TID 0000.0001) 
(PID.TID 0000.0001) EXF_READPARMS: reading EXF_NML_01
(PID.TID 0000.0001) EXF_READPARMS: reading EXF_NML_02
(PID.TID 0000.0001) EXF_READPARMS: reading EXF_NML_03
(PID.TID 0000.0001) EXF_READPARMS: reading EXF_NML_04
(PID.TID 0000.0001) EXF_READPARMS: finished reading data.exf
(PID.TID 0000.0001)  GGL90_READPARMS: opening data.ggl90
(PID.TID 0000.0001)  OPEN_COPY_DATA_FILE: opening file data.ggl90
(PID.TID 0000.0001) // =======================================================
(PID.TID 0000.0001) // Parameter file "data.ggl90"
(PID.TID 0000.0001) // =======================================================
(PID.TID 0000.0001) ># =====================================================================
(PID.TID 0000.0001) ># | Parameters for Gaspar et al. (1990)'s TKE vertical mixing scheme  |
(PID.TID 0000.0001) ># =====================================================================
(PID.TID 0000.0001) > &GGL90_PARM01
(PID.TID 0000.0001) ># GGL90taveFreq = 345600000.,
(PID.TID 0000.0001) ># GGL90dumpFreq = 86400.,
(PID.TID 0000.0001) ># GGL90writeState=.FALSE.,
(PID.TID 0000.0001) ># GGL90diffTKEh=3.e3,
(PID.TID 0000.0001) > GGL90alpha=30.,
(PID.TID 0000.0001) ># GGL90TKEFile = 'TKE_init.bin',
(PID.TID 0000.0001) > GGL90TKEmin  = 1.e-7,
(PID.TID 0000.0001) > GGL90TKEbottom = 1.e-6,
(PID.TID 0000.0001) > mxlMaxFlag =2,
(PID.TID 0000.0001) > mxlSurfFlag=.TRUE.,
(PID.TID 0000.0001) > /
(PID.TID 0000.0001) 
(PID.TID 0000.0001)  GGL90_READPARMS: finished reading data.ggl90
(PID.TID 0000.0001) // =======================================================
(PID.TID 0000.0001) // GGL90 configuration
(PID.TID 0000.0001) // =======================================================
(PID.TID 0000.0001) GGL90dumpFreq =   /* GGL90 state write out interval ( s ). */
(PID.TID 0000.0001)                 0.000000000000000E+00
(PID.TID 0000.0001)     ;
(PID.TID 0000.0001) GGL90taveFreq =   /* GGL90 averaging interval ( s ). */
(PID.TID 0000.0001)                 0.000000000000000E+00
(PID.TID 0000.0001)     ;
(PID.TID 0000.0001) GGL90mixingMAPS =   /* GGL90 IO flag. */
(PID.TID 0000.0001)                   F
(PID.TID 0000.0001)     ;
(PID.TID 0000.0001) GGL90writeState =   /* GGL90 IO flag. */
(PID.TID 0000.0001)                   F
(PID.TID 0000.0001)     ;
(PID.TID 0000.0001) GGL90ck =   /* GGL90 viscosity parameter. */
(PID.TID 0000.0001)                 1.000000000000000E-01
(PID.TID 0000.0001)     ;
(PID.TID 0000.0001) GGL90ceps =   /* GGL90 dissipation parameter. */
(PID.TID 0000.0001)                 7.000000000000000E-01
(PID.TID 0000.0001)     ;
(PID.TID 0000.0001) GGL90alpha =   /* GGL90 TKE diffusivity parameter. */
(PID.TID 0000.0001)                 3.000000000000000E+01
(PID.TID 0000.0001)     ;
(PID.TID 0000.0001) GGL90m2 =   /* GGL90 wind stress to vertical stress ratio. */
(PID.TID 0000.0001)                 3.750000000000000E+00
(PID.TID 0000.0001)     ;
(PID.TID 0000.0001) GGL90TKEmin =   /* GGL90 minimum kinetic energy ( m^2/s^2 ). */
(PID.TID 0000.0001)                 1.000000000000000E-07
(PID.TID 0000.0001)     ;
(PID.TID 0000.0001) GGL90TKEsurfMin =   /* GGL90 minimum surface kinetic energy ( m^2/s^2 ). */
(PID.TID 0000.0001)                 1.000000000000000E-04
(PID.TID 0000.0001)     ;
(PID.TID 0000.0001) GGL90TKEbottom =   /* GGL90 bottom kinetic energy ( m^2/s^2 ). */
(PID.TID 0000.0001)                 1.000000000000000E-06
(PID.TID 0000.0001)     ;
(PID.TID 0000.0001) GGL90viscMax =   /* GGL90 upper limit for viscosity ( m^2/s ). */
(PID.TID 0000.0001)                 1.000000000000000E+02
(PID.TID 0000.0001)     ;
(PID.TID 0000.0001) GGL90diffMax =   /* GGL90 upper limit for diffusivity ( m^2/s ). */
(PID.TID 0000.0001)                 1.000000000000000E+02
(PID.TID 0000.0001)     ;
(PID.TID 0000.0001) GGL90diffTKEh =   /* GGL90 horizontal diffusivity for TKE ( m^2/s ). */
(PID.TID 0000.0001)                 0.000000000000000E+00
(PID.TID 0000.0001)     ;
(PID.TID 0000.0001) GGL90mixingLengthMin =   /* GGL90 minimum mixing length ( m ). */
(PID.TID 0000.0001)                 1.000000000000000E-08
(PID.TID 0000.0001)     ;
(PID.TID 0000.0001) mxlMaxFlag =   /* Flag for limiting mixing-length method */
(PID.TID 0000.0001)                       2
(PID.TID 0000.0001)     ;
(PID.TID 0000.0001) mxlSurfFlag =   /* GGL90 flag for near surface mixing. */
(PID.TID 0000.0001)                   T
(PID.TID 0000.0001)     ;
(PID.TID 0000.0001) calcMeanVertShear = /* calc Mean of Vert.Shear (vs shear of Mean flow) */
(PID.TID 0000.0001)                   F
(PID.TID 0000.0001)     ;
(PID.TID 0000.0001) GGL90: GGL90TKEFile =
(PID.TID 0000.0001) GGL90writeState =   /* GGL90 Boundary condition flag. */
(PID.TID 0000.0001)                   T
(PID.TID 0000.0001)     ;
(PID.TID 0000.0001) // =======================================================
(PID.TID 0000.0001) // End of GGL90 config. summary
(PID.TID 0000.0001) // =======================================================
(PID.TID 0000.0001) 
(PID.TID 0000.0001)  GM_READPARMS: opening data.gmredi
(PID.TID 0000.0001)  OPEN_COPY_DATA_FILE: opening file data.gmredi
(PID.TID 0000.0001) // =======================================================
(PID.TID 0000.0001) // Parameter file "data.gmredi"
(PID.TID 0000.0001) // =======================================================
(PID.TID 0000.0001) ># GM+Redi package parameters:
(PID.TID 0000.0001) >#     GM_Small_Number  :: epsilon used in computing the slope
(PID.TID 0000.0001) >#     GM_slopeSqCutoff :: slope^2 cut-off value
(PID.TID 0000.0001) >
(PID.TID 0000.0001) >#-from MOM :
(PID.TID 0000.0001) ># GM_background_K: 	G & Mc.W  diffusion coefficient
(PID.TID 0000.0001) ># GM_maxSlope    :	max slope of isopycnals
(PID.TID 0000.0001) ># GM_Scrit       :	transition for scaling diffusion coefficient
(PID.TID 0000.0001) ># GM_Sd          :	half width scaling for diffusion coefficient
(PID.TID 0000.0001) ># GM_taper_scheme:	slope clipping or one of the tapering schemes
(PID.TID 0000.0001) ># GM_Kmin_horiz  :	horizontal diffusion minimum value
(PID.TID 0000.0001) >
(PID.TID 0000.0001) >#-Option parameters (needs to "define" options in GMREDI_OPTIONS.h")
(PID.TID 0000.0001) ># GM_isopycK     :	isopycnal diffusion coefficient (default=GM_background_K)
(PID.TID 0000.0001) ># GM_AdvForm     :	turn on GM Advective form       (default=Skew flux form)
(PID.TID 0000.0001) >
(PID.TID 0000.0001) > &GM_PARM01
(PID.TID 0000.0001) >  GM_Small_Number  = 1.D-20,
(PID.TID 0000.0001) >  GM_slopeSqCutoff = 1.D+08,
(PID.TID 0000.0001) >  GM_AdvForm         = .TRUE.,
(PID.TID 0000.0001) >  GM_isopycK         = 1.D+3,
(PID.TID 0000.0001) >  GM_background_K    = 1.D+3,
(PID.TID 0000.0001) >  GM_maxSlope        = 4.D-3,
(PID.TID 0000.0001) >  GM_taper_scheme    = 'stableGmAdjTap',
(PID.TID 0000.0001) >  GM_Kmin_horiz      = 100.,
(PID.TID 0000.0001) >  GM_Scrit           = 4.D-3,
(PID.TID 0000.0001) >  GM_Sd              = 1.D-3,
(PID.TID 0000.0001) >  GM_background_K3dFile='total_kapgm_r009bit11.bin'
(PID.TID 0000.0001) >  GM_isopycK3dFile='total_kapredi_r009bit11.bin'
(PID.TID 0000.0001) >
(PID.TID 0000.0001) >#
(PID.TID 0000.0001) >###  GM_Visbeck_alpha   = 1.5D-2,
(PID.TID 0000.0001) >###  GM_Visbeck_alpha   = 0.D0,
(PID.TID 0000.0001) >###  GM_Visbeck_length  = 2.D+5,
(PID.TID 0000.0001) >###  GM_Visbeck_depth   = 1.D+3,
(PID.TID 0000.0001) >###  GM_Visbeck_maxval_K= 2.5D+3,
(PID.TID 0000.0001) > /
(PID.TID 0000.0001) >
(PID.TID 0000.0001) >
(PID.TID 0000.0001) 
(PID.TID 0000.0001)  GM_READPARMS: finished reading data.gmredi
(PID.TID 0000.0001) 
(PID.TID 0000.0001)  SEAICE_READPARMS: opening data.seaice
(PID.TID 0000.0001)  OPEN_COPY_DATA_FILE: opening file data.seaice
(PID.TID 0000.0001) // =======================================================
(PID.TID 0000.0001) // Parameter file "data.seaice"
(PID.TID 0000.0001) // =======================================================
(PID.TID 0000.0001) ># SEAICE parameters
(PID.TID 0000.0001) > &SEAICE_PARM01
(PID.TID 0000.0001) >
(PID.TID 0000.0001) >      SEAICEpresH0=2.,
(PID.TID 0000.0001) >      SEAICEpresPow0=1,
(PID.TID 0000.0001) >      SEAICEpresPow1=1,
(PID.TID 0000.0001) >
(PID.TID 0000.0001) >      SEAICE_strength = 2.25e4,
(PID.TID 0000.0001) >      SEAICE_area_max = 0.97,
(PID.TID 0000.0001) >
(PID.TID 0000.0001) >      SEAICE_no_slip     = .TRUE.,
(PID.TID 0000.0001) >
(PID.TID 0000.0001) >      SEAICE_drag=0.001,
(PID.TID 0000.0001) >      OCEAN_drag=0.001,
(PID.TID 0000.0001) >
(PID.TID 0000.0001) >#####
(PID.TID 0000.0001) >      SEAICEuseTILT=.FALSE.,
(PID.TID 0000.0001) >      SEAICE_multDim=1,
(PID.TID 0000.0001) >      SEAICErestoreUnderIce=.TRUE.,
(PID.TID 0000.0001) >
(PID.TID 0000.0001) >      SEAICE_salt0=4.,
(PID.TID 0000.0001) >
(PID.TID 0000.0001) >      LSR_ERROR          = 2.e-4,
(PID.TID 0000.0001) >      SEAICEuseDYNAMICS  = .TRUE.,
(PID.TID 0000.0001) >      MIN_ATEMP          = -40.,
(PID.TID 0000.0001) >      MIN_TICE           = -40.,
(PID.TID 0000.0001) >      SEAICEadvScheme    = 33,
(PID.TID 0000.0001) >      SEAICEuseFluxForm = .TRUE.,
(PID.TID 0000.0001) >      SEAICEadvSnow      = .TRUE.,
(PID.TID 0000.0001) >      SEAICEdiffKhHeff   = 400.,
(PID.TID 0000.0001) >      SEAICEdiffKhArea   = 400.,
(PID.TID 0000.0001) >      SEAICEdiffKhSnow   = 400.,
(PID.TID 0000.0001) >      SEAICEuseFlooding  = .TRUE.,
(PID.TID 0000.0001) >      SEAICE_mcPheePiston= 3.858024691358025E-05,
(PID.TID 0000.0001) >      SEAICE_frazilFrac  = 1.,
(PID.TID 0000.0001) >      SEAICE_mcPheeTaper = 0.,
(PID.TID 0000.0001) >      SEAICE_areaLossFormula=2,
(PID.TID 0000.0001) >      SEAICEheatConsFix  = .TRUE.,
(PID.TID 0000.0001) >      SEAICE_tempFrz0    = -1.96,
(PID.TID 0000.0001) >      SEAICE_dTempFrz_dS = 0.,
(PID.TID 0000.0001) >      SEAICEuseMetricTerms = .TRUE.,
(PID.TID 0000.0001) >      SEAICE_clipVelocities = .TRUE.,
(PID.TID 0000.0001) >
(PID.TID 0000.0001) >#take 33% out of (1-albedo)
(PID.TID 0000.0001) >      SEAICE_dryIceAlb   = 0.84,
(PID.TID 0000.0001) >      SEAICE_wetIceAlb   = 0.78,
(PID.TID 0000.0001) >      SEAICE_drySnowAlb  = 0.90,
(PID.TID 0000.0001) >      SEAICE_wetSnowAlb  = 0.8 ,
(PID.TID 0000.0001) >#default albedos
(PID.TID 0000.0001) >      SEAICE_dryIceAlb_south   = 0.75
(PID.TID 0000.0001) >      SEAICE_wetIceAlb_south   = 0.66
(PID.TID 0000.0001) >      SEAICE_drySnowAlb_south  = 0.84
(PID.TID 0000.0001) >      SEAICE_wetSnowAlb_south  = 0.7
(PID.TID 0000.0001) > /
(PID.TID 0000.0001) >#
(PID.TID 0000.0001) > &SEAICE_PARM02
(PID.TID 0000.0001) > /
(PID.TID 0000.0001) >
(PID.TID 0000.0001) 
(PID.TID 0000.0001)  SEAICE_READPARMS: finished reading data.seaice
(PID.TID 0000.0001) SALT_PLUME_READPARMS: opening data.salt_plume
(PID.TID 0000.0001)  OPEN_COPY_DATA_FILE: opening file data.salt_plume
(PID.TID 0000.0001) // =======================================================
(PID.TID 0000.0001) // Parameter file "data.salt_plume"
(PID.TID 0000.0001) // =======================================================
(PID.TID 0000.0001) > &SALT_PLUME_PARM01
(PID.TID 0000.0001) ># SaltPlumeCriterion = 0.4D0,
(PID.TID 0000.0001) > SPsalFRAC= 0.5D0,
(PID.TID 0000.0001) >#SPsalFRAC= 0.25D0,
(PID.TID 0000.0001) >#SPsalFRAC= 0.0D0,
(PID.TID 0000.0001) > /
(PID.TID 0000.0001) 
(PID.TID 0000.0001) SALT_PLUME_READPARMS: finished reading data.salt_plume
(PID.TID 0000.0001) AUTODIFF_READPARMS: opening data.autodiff
(PID.TID 0000.0001)  OPEN_COPY_DATA_FILE: opening file data.autodiff
(PID.TID 0000.0001) // =======================================================
(PID.TID 0000.0001) // Parameter file "data.autodiff"
(PID.TID 0000.0001) // =======================================================
(PID.TID 0000.0001) ># =========================
(PID.TID 0000.0001) ># pkg AUTODIFF parameters :
(PID.TID 0000.0001) ># =========================
(PID.TID 0000.0001) >#  inAdExact :: get an exact adjoint (no approximation) (def=.True.)
(PID.TID 0000.0001) >#
(PID.TID 0000.0001) > &AUTODIFF_PARM01
(PID.TID 0000.0001) ># inAdExact = .FALSE.,
(PID.TID 0000.0001) > useSEAICEinAdMode = .FALSE.,
(PID.TID 0000.0001) ># useKPPinAdMode = .FALSE.,
(PID.TID 0000.0001) ># useGMRediInAdMode = .FALSE.,
(PID.TID 0000.0001) > useGGL90inAdMode = .FALSE.,
(PID.TID 0000.0001) > useSALT_PLUMEinAdMode = .FALSE.,
(PID.TID 0000.0001) > /
(PID.TID 0000.0001) 
(PID.TID 0000.0001) AUTODIFF_READPARMS: finished reading data.autodiff
(PID.TID 0000.0001) // ===================================
(PID.TID 0000.0001) // AUTODIFF parameters :
(PID.TID 0000.0001) // ===================================
(PID.TID 0000.0001) inAdExact = /* get an exact adjoint (no approximation) */
(PID.TID 0000.0001)                   T
(PID.TID 0000.0001)     ;
(PID.TID 0000.0001) useKPPinAdMode = /* use KPP in adjoint mode */
(PID.TID 0000.0001)                   F
(PID.TID 0000.0001)     ;
(PID.TID 0000.0001) useGMRediInAdMode = /* use GMRedi in adjoint mode */
(PID.TID 0000.0001)                   T
(PID.TID 0000.0001)     ;
(PID.TID 0000.0001) useSEAICEinAdMode = /* use SEAICE in adjoint mode */
(PID.TID 0000.0001)                   F
(PID.TID 0000.0001)     ;
(PID.TID 0000.0001) useGGL90inAdMode = /* use GGL90 in adjoint mode */
(PID.TID 0000.0001)                   F
(PID.TID 0000.0001)     ;
(PID.TID 0000.0001) useSALT_PLUMEinAdMode = /* use SALT_PLUME in adjoint mode */
(PID.TID 0000.0001)                   F
(PID.TID 0000.0001)     ;
(PID.TID 0000.0001) SEAICEuseDYNAMICSswitchInAd = /* switch On/Off SEAICE Dyn in AD mode */
(PID.TID 0000.0001)                   F
(PID.TID 0000.0001)     ;
(PID.TID 0000.0001) SEAICEuseFREEDRIFTswitchInAd= /* switch On/Off Free-Drift in AD mode */
(PID.TID 0000.0001)                   F
(PID.TID 0000.0001)     ;
(PID.TID 0000.0001) SEAICEapproxLevInAd = /* -1:SEAICE_FAKE, >0:other adjoint approximation */
(PID.TID 0000.0001)                       0
(PID.TID 0000.0001)     ;
(PID.TID 0000.0001) dumpAdVarExch = /* control adexch before dumpinp */
(PID.TID 0000.0001)                       2
(PID.TID 0000.0001)     ;
(PID.TID 0000.0001) mon_AdVarExch = /* control adexch before monitor */
(PID.TID 0000.0001)                       2
(PID.TID 0000.0001)     ;
(PID.TID 0000.0001) viscFacInAd = /* viscosity factor for adjoint */
(PID.TID 0000.0001)                 1.000000000000000E+00
(PID.TID 0000.0001)     ;
(PID.TID 0000.0001) 
(PID.TID 0000.0001) OPTIM_READPARMS: opening data.optim
(PID.TID 0000.0001)  OPEN_COPY_DATA_FILE: opening file data.optim
(PID.TID 0000.0001) // =======================================================
(PID.TID 0000.0001) // Parameter file "data.optim"
(PID.TID 0000.0001) // =======================================================
(PID.TID 0000.0001) > &OPTIM
(PID.TID 0000.0001) > optimcycle=129,
(PID.TID 0000.0001) > /
(PID.TID 0000.0001) 
(PID.TID 0000.0001) OPTIM_READPARMS: finished reading data.optim
(PID.TID 0000.0001) CTRL_READPARMS: opening data.ctrl
(PID.TID 0000.0001)  OPEN_COPY_DATA_FILE: opening file data.ctrl
(PID.TID 0000.0001) // =======================================================
(PID.TID 0000.0001) // Parameter file "data.ctrl"
(PID.TID 0000.0001) // =======================================================
(PID.TID 0000.0001) ># *********************
(PID.TID 0000.0001) ># ECCO controlvariables
(PID.TID 0000.0001) ># *********************
(PID.TID 0000.0001) > &ctrl_nml
(PID.TID 0000.0001) >#
(PID.TID 0000.0001) > doSinglePrecTapelev=.TRUE.,
(PID.TID 0000.0001) > ctrlSmoothCorrel2D=.TRUE.,
(PID.TID 0000.0001) > ctrlSmoothCorrel3D=.TRUE.,
(PID.TID 0000.0001) >  ctrlUseGen=.TRUE.,
(PID.TID 0000.0001) >#to start from given xx*00.data files
(PID.TID 0000.0001) >  doinitxx = .FALSE.,
(PID.TID 0000.0001) >  doMainUnpack = .FALSE.,
(PID.TID 0000.0001) >#to start from given ecco_ctrl... files
(PID.TID 0000.0001) ># doinitxx = .FALSE.,
(PID.TID 0000.0001) >#
(PID.TID 0000.0001) >#doPackDiag = .TRUE.,
(PID.TID 0000.0001) > forcingPrecond=1.,
(PID.TID 0000.0001) >/
(PID.TID 0000.0001) >
(PID.TID 0000.0001) >#
(PID.TID 0000.0001) ># *********************
(PID.TID 0000.0001) ># names for ctrl_pack/unpack
(PID.TID 0000.0001) ># *********************
(PID.TID 0000.0001) > &ctrl_packnames
(PID.TID 0000.0001) > /
(PID.TID 0000.0001) >#
(PID.TID 0000.0001) ># *********************
(PID.TID 0000.0001) ># names for CTRL_GENARR, CTRL_GENTIM
(PID.TID 0000.0001) ># *********************
(PID.TID 0000.0001) > &CTRL_NML_GENARR
(PID.TID 0000.0001) >#
(PID.TID 0000.0001) > xx_genarr2d_weight(1) = 'SSH_weights_nonseasonal_rms_areascaled.bin',
(PID.TID 0000.0001) > xx_genarr2d_file(1)='xx_etan',
(PID.TID 0000.0001) > xx_genarr2d_bounds(1:5,1)=-9.0,-8.9,8.9,9.0,0.,
(PID.TID 0000.0001) > xx_genarr2d_preproc(1,1)='WC01',
(PID.TID 0000.0001) > xx_genarr2d_preproc_i(1,1)=1,
(PID.TID 0000.0001) > mult_genarr2d(1) = 1.,
(PID.TID 0000.0001) >#
(PID.TID 0000.0001) > xx_genarr3d_weight(1) = 'Theta_weights_nonseasonal_rmsv2_areascaled.bin',
(PID.TID 0000.0001) > xx_genarr3d_file(1)='xx_theta',
(PID.TID 0000.0001) > xx_genarr3d_bounds(1:5,1)=-2.0,-1.9,39.,40.,0.,
(PID.TID 0000.0001) > xx_genarr3d_preproc(1,1)='WC01',
(PID.TID 0000.0001) > xx_genarr3d_preproc_i(1,1)=1,
(PID.TID 0000.0001) > mult_genarr3d(1) = 1.,
(PID.TID 0000.0001) >#
(PID.TID 0000.0001) > xx_genarr3d_weight(2) = 'Salt_weights_nonseasonal_rmsv2_areascaled.bin',
(PID.TID 0000.0001) > xx_genarr3d_file(2)='xx_salt',
(PID.TID 0000.0001) > xx_genarr3d_bounds(1:5,2)=20.,20.5,40.5,41.,0.,
(PID.TID 0000.0001) > xx_genarr3d_preproc(1,2)='WC01',
(PID.TID 0000.0001) > xx_genarr3d_preproc_i(1,2)=1,
(PID.TID 0000.0001) > mult_genarr3d(2) = 1.,
(PID.TID 0000.0001) >#
(PID.TID 0000.0001) > xx_genarr3d_weight(3) = 'r2.wkapgmFldv2.data',
(PID.TID 0000.0001) > xx_genarr3d_file(3)='xx_kapgm',
(PID.TID 0000.0001) > xx_genarr3d_bounds(1:5,3)=1.E2,2.E2,0.9E4,1.E4,0.,
(PID.TID 0000.0001) > xx_genarr3d_preproc(1,3)='WC01',
(PID.TID 0000.0001) > xx_genarr3d_preproc_i(1,3)=1,
(PID.TID 0000.0001) > mult_genarr3d(3) = 1.,
(PID.TID 0000.0001) >#
(PID.TID 0000.0001) > xx_genarr3d_weight(4) = 'r2.wkaprediFldv2.data',
(PID.TID 0000.0001) > xx_genarr3d_file(4)='xx_kapredi',
(PID.TID 0000.0001) > xx_genarr3d_bounds(1:5,4)=1.E2,2.E2,0.9E4,1.E4,0.,
(PID.TID 0000.0001) > xx_genarr3d_preproc(1,4)='WC01',
(PID.TID 0000.0001) > xx_genarr3d_preproc_i(1,4)=1,
(PID.TID 0000.0001) > mult_genarr3d(4) = 1.,
(PID.TID 0000.0001) >#
(PID.TID 0000.0001) > xx_genarr3d_weight(5) = 'r2.wdiffkrFldv2.data',
(PID.TID 0000.0001) > xx_genarr3d_file(5)='xx_diffkr',
(PID.TID 0000.0001) > xx_genarr3d_bounds(1:5,5)=1.E-6,2.E-6,4.E-4,5.E-4,0.,
(PID.TID 0000.0001) > xx_genarr3d_preproc(1,5)='WC01',
(PID.TID 0000.0001) > xx_genarr3d_preproc_i(1,5)=1,
(PID.TID 0000.0001) > mult_genarr3d(5) = 1.,
(PID.TID 0000.0001) >#
(PID.TID 0000.0001) > xx_genarr3d_weight(6) = 'Uvel_weights_nonseasonal_rmsv2_areascaled.bin',
(PID.TID 0000.0001) > xx_genarr3d_file(6)='xx_uvel',
(PID.TID 0000.0001) > xx_genarr3d_bounds(1:5,6)=-3.,-2.9, 2.9,3.,0.,
(PID.TID 0000.0001) > xx_genarr3d_preproc(1,6)='WC01',
(PID.TID 0000.0001) > xx_genarr3d_preproc_i(1,6)=1,
(PID.TID 0000.0001) > mult_genarr3d(6) = 1.,
(PID.TID 0000.0001) >#
(PID.TID 0000.0001) > xx_genarr3d_weight(7) = 'Vvel_weights_nonseasonal_rmsv2_areascaled.bin',
(PID.TID 0000.0001) > xx_genarr3d_file(7)='xx_vvel',
(PID.TID 0000.0001) > xx_genarr3d_bounds(1:5,7)=-3.,-2.9, 2.9,3.,0.,
(PID.TID 0000.0001) > xx_genarr3d_preproc(1,7)='WC01',
(PID.TID 0000.0001) > xx_genarr3d_preproc_i(1,7)=1,
(PID.TID 0000.0001) > mult_genarr3d(7) = 1.,
(PID.TID 0000.0001) >
(PID.TID 0000.0001) > /
(PID.TID 0000.0001) 
(PID.TID 0000.0001) CTRL_READPARMS: finished reading data.ctrl
(PID.TID 0000.0001) COST_READPARMS: opening data.cost
(PID.TID 0000.0001)  OPEN_COPY_DATA_FILE: opening file data.cost
(PID.TID 0000.0001) // =======================================================
(PID.TID 0000.0001) // Parameter file "data.cost"
(PID.TID 0000.0001) // =======================================================
(PID.TID 0000.0001) >#
(PID.TID 0000.0001) >#
(PID.TID 0000.0001) ># ******************
(PID.TID 0000.0001) ># cost function
(PID.TID 0000.0001) ># ******************
(PID.TID 0000.0001) > &COST_NML
(PID.TID 0000.0001) > /
(PID.TID 0000.0001) 
(PID.TID 0000.0001) COST_READPARMS: finished reading data.cost
(PID.TID 0000.0001) SMOOTH_READPARMS: opening data.smooth
(PID.TID 0000.0001)  OPEN_COPY_DATA_FILE: opening file data.smooth
(PID.TID 0000.0001) // =======================================================
(PID.TID 0000.0001) // Parameter file "data.smooth"
(PID.TID 0000.0001) // =======================================================
(PID.TID 0000.0001) > &SMOOTH_NML
(PID.TID 0000.0001) > smooth2Dnbt(1)=300
(PID.TID 0000.0001) > smooth2Dtype(1)=1
(PID.TID 0000.0001) > smooth2Dsize(1)=2
(PID.TID 0000.0001) > smooth2Dfilter(1)=0
(PID.TID 0000.0001) > smooth3Dnbt(1)=300
(PID.TID 0000.0001) > smooth3DtypeH(1)=1
(PID.TID 0000.0001) > smooth3DsizeH(1)=3
(PID.TID 0000.0001) > smooth3DtypeZ(1)=1
(PID.TID 0000.0001) > smooth3DsizeZ(1)=3
(PID.TID 0000.0001) > smooth3Dfilter(1)=0
(PID.TID 0000.0001) > /
(PID.TID 0000.0001) 
(PID.TID 0000.0001) SMOOTH_READPARMS: finished reading data.smooth
(PID.TID 0000.0001) // =======================================================
(PID.TID 0000.0001) // pkg/smooth configuration
(PID.TID 0000.0001) // =======================================================
(PID.TID 0000.0001) smooth 2D parameters:  1   300    0.    0.
(PID.TID 0000.0001) smooth 3D parameters:  1   300    0.    0.    0.
(PID.TID 0000.0001) // =======================================================
(PID.TID 0000.0001) // End of pkg/smooth config. summary
(PID.TID 0000.0001) // =======================================================
(PID.TID 0000.0001) 
(PID.TID 0000.0001) ECCO_READPARMS: opening data.ecco
(PID.TID 0000.0001)  OPEN_COPY_DATA_FILE: opening file data.ecco
(PID.TID 0000.0001) // =======================================================
(PID.TID 0000.0001) // Parameter file "data.ecco"
(PID.TID 0000.0001) // =======================================================
(PID.TID 0000.0001) >#
(PID.TID 0000.0001) >#
(PID.TID 0000.0001) ># ******************
(PID.TID 0000.0001) ># ECCO cost function
(PID.TID 0000.0001) ># ******************
(PID.TID 0000.0001) >#
(PID.TID 0000.0001) > &ECCO_COST_NML
(PID.TID 0000.0001) >#
(PID.TID 0000.0001) > data_errfile    = 'data.err',
(PID.TID 0000.0001) > temp0errfile     = 'Theta_sigma_smoothed_method_02_masked_merged_capped_areascaled.bin',
(PID.TID 0000.0001) > salt0errfile     = 'Salt_sigma_smoothed_method_02_masked_merged_capped_areascaled.bin',
(PID.TID 0000.0001) > cost_iprec  = 32,
(PID.TID 0000.0001) > cost_yftype = 'RL',
(PID.TID 0000.0001) >#
(PID.TID 0000.0001) > /
(PID.TID 0000.0001) >#
(PID.TID 0000.0001) > &ECCO_GENCOST_NML
(PID.TID 0000.0001) >#
(PID.TID 0000.0001) >  gencost_avgperiod(1)  = 'day',
(PID.TID 0000.0001) >  gencost_barfile(1) = 'gbar_area',
(PID.TID 0000.0001) >  gencost_datafile(1) = 'NOAA_NSIDC_DAILY_v3b_MAPPED_TO_LLC90',
(PID.TID 0000.0001) >  gencost_errfile(1) = 'sigma_iceconc_eccollc_coastalmask_areascaled.bin',
(PID.TID 0000.0001) >  gencost_name(1) = 'siv4-conc',
(PID.TID 0000.0001) >  gencost_spmin(1) = -999.,
(PID.TID 0000.0001) >  gencost_spmax(1) = 999.,
(PID.TID 0000.0001) >  gencost_spzero(1) = -9999.,
(PID.TID 0000.0001) >  gencost_outputlevel(1)=1,
(PID.TID 0000.0001) >  mult_gencost(1) = 0.,
(PID.TID 0000.0001) >#
(PID.TID 0000.0001) >  gencost_avgperiod(2)  = 'day',
(PID.TID 0000.0001) >  gencost_barfile(2) = 'gbar_deconc',
(PID.TID 0000.0001) >  gencost_name(2) = 'siv4-deconc',
(PID.TID 0000.0001) >  gencost_datafile(2) = 'NOAA_NSIDC_DAILY_v3b_MAPPED_TO_LLC90',
(PID.TID 0000.0001) >  gencost_errfile(2) = 'seaiceproxy_sigma_coastalmask_areascaled.bin',
(PID.TID 0000.0001) >  gencost_spmin(2) = -999.,
(PID.TID 0000.0001) >  gencost_spmax(2) = 999.,
(PID.TID 0000.0001) >  gencost_spzero(2) = -9999.,
(PID.TID 0000.0001) >  gencost_outputlevel(2)=1,
(PID.TID 0000.0001) >  mult_gencost(2) = 0.071,
(PID.TID 0000.0001) >#
(PID.TID 0000.0001) >  gencost_avgperiod(3)  = 'day',
(PID.TID 0000.0001) >  gencost_barfile(3) = 'gbar_exconc',
(PID.TID 0000.0001) >  gencost_name(3) = 'siv4-exconc',
(PID.TID 0000.0001) >  gencost_datafile(3) = 'NOAA_NSIDC_DAILY_v3b_MAPPED_TO_LLC90',
(PID.TID 0000.0001) >  gencost_errfile(3) = 'seaiceproxy_sigma_coastalmask_areascaled.bin',
(PID.TID 0000.0001) >  gencost_spmin(3) = -999.,
(PID.TID 0000.0001) >  gencost_spmax(3) = 999.,
(PID.TID 0000.0001) >  gencost_spzero(3) = -9999.,
(PID.TID 0000.0001) >  gencost_outputlevel(3)=1,
(PID.TID 0000.0001) >  mult_gencost(3) = 0.,
(PID.TID 0000.0001) >#
(PID.TID 0000.0001) >  gencost_avgperiod(4)  = 'month',
(PID.TID 0000.0001) >  gencost_barfile(4) = 'm_sstmon',
(PID.TID 0000.0001) >  gencost_datafile(4) = 'reynolds_oiv2_r1_mar2018_simasked',
(PID.TID 0000.0001) >  gencost_errfile(4) = 'sigma_half_areascaled.bin',
(PID.TID 0000.0001) >  gencost_name(4) = 'sst-reynoldsmean',
(PID.TID 0000.0001) >  gencost_spmin(4) = -1.8,
(PID.TID 0000.0001) >  gencost_spmax(4) = 40.,
(PID.TID 0000.0001) >  gencost_spzero(4) = 0.,
(PID.TID 0000.0001) >  gencost_preproc(1,4)='mean',
(PID.TID 0000.0001) >  gencost_outputlevel(4)=1,
(PID.TID 0000.0001) >  mult_gencost(4) = 1.,
(PID.TID 0000.0001) >#
(PID.TID 0000.0001) >  gencost_avgperiod(5)  = 'month',
(PID.TID 0000.0001) >  gencost_barfile(5) = 'm_sstmon',
(PID.TID 0000.0001) >  gencost_datafile(5) = 'reynolds_oiv2_r1_mar2018_simasked',
(PID.TID 0000.0001) >  gencost_errfile(5) = 'sigma_half_areascaled.bin',
(PID.TID 0000.0001) >  gencost_name(5) = 'sst-reynoldsanom',
(PID.TID 0000.0001) >  gencost_spmin(5) = -1.8,
(PID.TID 0000.0001) >  gencost_spmax(5) = 40.,
(PID.TID 0000.0001) >  gencost_spzero(5) = 0.,
(PID.TID 0000.0001) >  gencost_preproc(1,5)='anom',
(PID.TID 0000.0001) >  gencost_outputlevel(5)=1,
(PID.TID 0000.0001) >  mult_gencost(5) = 1.,
(PID.TID 0000.0001) >
(PID.TID 0000.0001) >#
(PID.TID 0000.0001) ># gencost_avgperiod(5)  = 'month',
(PID.TID 0000.0001) ># gencost_barfile(5) = 'sstmon',
(PID.TID 0000.0001) ># gencost_datafile(5) = 'tmi_amsre_oisst_r1',
(PID.TID 0000.0001) ># gencost_errfile(5) = 'sigma_half_areascaled.bin',
(PID.TID 0000.0001) ># gencost_name(5) = 'sst-tmi-amsre',
(PID.TID 0000.0001) ># gencost_startdate1(5) = 19980101,
(PID.TID 0000.0001) ># gencost_startdate2(5)= 00000,
(PID.TID 0000.0001) ># gencost_spmin(5) = -1.8,
(PID.TID 0000.0001) ># gencost_spmax(5) = 40.,
(PID.TID 0000.0001) ># gencost_spzero(5) = 0.,
(PID.TID 0000.0001) ># gencost_outputlevel(5)=1,
(PID.TID 0000.0001) ># mult_gencost(5) = 0.,
(PID.TID 0000.0001) >#
(PID.TID 0000.0001) >  gencost_avgperiod(6)  = 'month',
(PID.TID 0000.0001) >  gencost_barfile(6) = 'm_bp_nopabarmon',
(PID.TID 0000.0001) >  gencost_datafile(6) = 'GRACE_jpl_rl05m_20180122',
(PID.TID 0000.0001) >  gencost_errfile(6) = 'GRACE_jpl_rl05m_20180122_err_areascaled',
(PID.TID 0000.0001) >  gencost_name(6) = 'bpv4-grace',
(PID.TID 0000.0001) >  gencost_outputlevel(6)=1,
(PID.TID 0000.0001) >  mult_gencost(6) = 1.,
(PID.TID 0000.0001) >#
(PID.TID 0000.0001) >  gencost_avgperiod(7)  = 'month',
(PID.TID 0000.0001) >  gencost_barfile(7) = 'm_thetamon',
(PID.TID 0000.0001) >  gencost_datafile(7) = 'T_monthly_woa09_highlatnearsurface_masked',
(PID.TID 0000.0001) >  gencost_errfile(7) = 'Theta_sigma_smoothed_method_02_masked_merged_capped_areascaled.bin',
(PID.TID 0000.0001) >#  gencost_name(7) = 'thetaclim',
(PID.TID 0000.0001) >  gencost_name(7) = 'thetamean',
(PID.TID 0000.0001) >  gencost_spmin(7) = -1.8,
(PID.TID 0000.0001) >  gencost_spmax(7) = 40.,
(PID.TID 0000.0001) >  gencost_spzero(7) = 0.,
(PID.TID 0000.0001) >  gencost_is3d(7)=.TRUE.,
(PID.TID 0000.0001) >  gencost_preproc(1,7)='mean',
(PID.TID 0000.0001) >  gencost_outputlevel(7)=1,
(PID.TID 0000.0001) >  mult_gencost(7) = 1.,
(PID.TID 0000.0001) >#
(PID.TID 0000.0001) >  gencost_avgperiod(8)  = 'month',
(PID.TID 0000.0001) >  gencost_barfile(8) = 'm_saltmon',
(PID.TID 0000.0001) >  gencost_datafile(8) = 'S_monthly_woa09_highlatnearsurface_masked',
(PID.TID 0000.0001) >  gencost_errfile(8) = 'Salt_sigma_smoothed_method_02_masked_merged_capped_areascaled.bin',
(PID.TID 0000.0001) >#  gencost_name(8) = 'saltclim',
(PID.TID 0000.0001) >  gencost_name(8) = 'saltmean',
(PID.TID 0000.0001) >  gencost_spmin(8) = 25.,
(PID.TID 0000.0001) >  gencost_spmax(8) = 40.,
(PID.TID 0000.0001) >  gencost_spzero(8) = 0.,
(PID.TID 0000.0001) >  gencost_is3d(8)=.TRUE.,
(PID.TID 0000.0001) >  gencost_preproc(1,8)='mean',
(PID.TID 0000.0001) >  gencost_outputlevel(8)=1,
(PID.TID 0000.0001) >  mult_gencost(8) = 1.,
(PID.TID 0000.0001) >#
(PID.TID 0000.0001) > gencost_datafile(11) = 'mdt2_dtu17.bin',
(PID.TID 0000.0001) > gencost_startdate1(11) = 19930101,
(PID.TID 0000.0001) > gencost_startdate2(11) = 00000,
(PID.TID 0000.0001) > gencost_enddate1(11) = 20171231,
(PID.TID 0000.0001) > gencost_enddate2(11) = 00000,
(PID.TID 0000.0001) > gencost_errfile(11) = 'mdt_dtu13_error_m_areascaled.bin',
(PID.TID 0000.0001) > gencost_name(11) = 'sshv4-mdt',
(PID.TID 0000.0001) > gencost_posproc(1,11)='smooth',
(PID.TID 0000.0001) > gencost_posproc_c(1,11)='sshv4_scale_1p5points.bin',
(PID.TID 0000.0001) > gencost_posproc_i(1,11)=300,
(PID.TID 0000.0001) ># gencost_scalefile(11) = 'sshv4_scale_1p5points.bin',
(PID.TID 0000.0001) > gencost_outputlevel(11)=1,
(PID.TID 0000.0001) > mult_gencost(11) = 1.,
(PID.TID 0000.0001) >#
(PID.TID 0000.0001) > gencost_barfile(12) = 'm_eta_dynday',
(PID.TID 0000.0001) > gencost_datafile(12) = 'RADS_TJ_mar2018',
(PID.TID 0000.0001) > gencost_startdate1(12) = 19920101,
(PID.TID 0000.0001) > gencost_startdate2(12) = 00000,
(PID.TID 0000.0001) > gencost_avgperiod(12)  = 'day',
(PID.TID 0000.0001) > gencost_errfile(12) = 'slaerr_gridscale_r5_areascaled.err',
(PID.TID 0000.0001) > gencost_name(12) = 'sshv4-tp',
(PID.TID 0000.0001) > gencost_outputlevel(12)=1,
(PID.TID 0000.0001) > mult_gencost(12) = 0.,
(PID.TID 0000.0001) >#
(PID.TID 0000.0001) > gencost_datafile(13) = 'RADS_ERS_ENV_SA_mar2018',
(PID.TID 0000.0001) > gencost_startdate1(13) = 19920101,
(PID.TID 0000.0001) > gencost_startdate2(13) = 00000,
(PID.TID 0000.0001) > gencost_avgperiod(13)  = 'day',
(PID.TID 0000.0001) > gencost_errfile(13) = 'slaerr_gridscale_r5_areascaled.err',
(PID.TID 0000.0001) > gencost_name(13) = 'sshv4-ers',
(PID.TID 0000.0001) > gencost_outputlevel(13)=1,
(PID.TID 0000.0001) > mult_gencost(13) = 0.,
(PID.TID 0000.0001) >#
(PID.TID 0000.0001) > gencost_datafile(14) = 'RADS_GFO_C2_mar2018',
(PID.TID 0000.0001) > gencost_startdate1(14) = 19920101,
(PID.TID 0000.0001) > gencost_startdate2(14) = 00000,
(PID.TID 0000.0001) > gencost_avgperiod(14)  = 'day',
(PID.TID 0000.0001) > gencost_errfile(14) = 'slaerr_gridscale_r5_areascaled.err',
(PID.TID 0000.0001) > gencost_name(14) = 'sshv4-gfo',
(PID.TID 0000.0001) > gencost_outputlevel(14)=1,
(PID.TID 0000.0001) > mult_gencost(14) = 0.,
(PID.TID 0000.0001) >#
(PID.TID 0000.0001) > gencost_errfile(15) = 'slaerr_largescale_r5_areascaled.err',
(PID.TID 0000.0001) > gencost_name(15) = 'sshv4-lsc',
(PID.TID 0000.0001) >#gencost_scalefile(15) = 'sshv4_scale_3points.bin',
(PID.TID 0000.0001) > gencost_posproc(1,15)='smooth',
(PID.TID 0000.0001) > gencost_posproc_c(1,15)='sshv4_scale_3points.bin',
(PID.TID 0000.0001) > gencost_posproc_i(1,15)=300,
(PID.TID 0000.0001) > gencost_outputlevel(15)=1,
(PID.TID 0000.0001) > mult_gencost(15) = 0.001,
(PID.TID 0000.0001) >#
(PID.TID 0000.0001) >#gencost_name(16) = 'sshv4-gmsl',
(PID.TID 0000.0001) >#gencost_outputlevel(16)=1,
(PID.TID 0000.0001) >#mult_gencost(16) = 0.,
(PID.TID 0000.0001) >#
(PID.TID 0000.0001) >  gencost_avgperiod(17)  = 'month',
(PID.TID 0000.0001) >  gencost_barfile(17) = 'm_thetamon',
(PID.TID 0000.0001) >  gencost_datafile(17) = 'T_monthly_woa09_highlatnearsurface_masked',
(PID.TID 0000.0001) >  gencost_errfile(17) = 'Theta_sigma_smoothed_method_02_masked_merged_capped_areascaled.bin',
(PID.TID 0000.0001) >#  gencost_name(17) = 'thetaclim',
(PID.TID 0000.0001) >  gencost_name(17) = 'thetaanom',
(PID.TID 0000.0001) >  gencost_spmin(17) = -1.8,
(PID.TID 0000.0001) >  gencost_spmax(17) = 40.,
(PID.TID 0000.0001) >  gencost_spzero(17) = 0.,
(PID.TID 0000.0001) >  gencost_is3d(17)=.TRUE.,
(PID.TID 0000.0001) >  gencost_preproc(1,17)='clim',
(PID.TID 0000.0001) >  gencost_preproc_i(1,17)=12,
(PID.TID 0000.0001) >  gencost_preproc(2,17)='anom',
(PID.TID 0000.0001) >  gencost_outputlevel(17)=1,
(PID.TID 0000.0001) >  mult_gencost(17) = 1.,
(PID.TID 0000.0001) >#
(PID.TID 0000.0001) >  gencost_avgperiod(18)  = 'month',
(PID.TID 0000.0001) >  gencost_barfile(18) = 'm_saltmon',
(PID.TID 0000.0001) >  gencost_datafile(18) = 'S_monthly_woa09_highlatnearsurface_masked',
(PID.TID 0000.0001) >  gencost_errfile(18) = 'Salt_sigma_smoothed_method_02_masked_merged_capped_areascaled.bin',
(PID.TID 0000.0001) >#  gencost_name(18) = 'saltclim',
(PID.TID 0000.0001) >  gencost_name(18) = 'saltanom',
(PID.TID 0000.0001) >  gencost_spmin(18) = 25.,
(PID.TID 0000.0001) >  gencost_spmax(18) = 40.,
(PID.TID 0000.0001) >  gencost_spzero(18) = 0.,
(PID.TID 0000.0001) >  gencost_is3d(18)=.TRUE.,
(PID.TID 0000.0001) >  gencost_preproc(1,18)='clim',
(PID.TID 0000.0001) >  gencost_preproc_i(1,18)=12,
(PID.TID 0000.0001) >  gencost_preproc(2,18)='anom',
(PID.TID 0000.0001) >  gencost_outputlevel(18)=1,
(PID.TID 0000.0001) >  mult_gencost(18) = 1.,
(PID.TID 0000.0001) >#
(PID.TID 0000.0001) >  gencost_avgperiod(19)  = 'month',
(PID.TID 0000.0001) >  gencost_barfile(19) = 'm_sssmon',
(PID.TID 0000.0001) >  gencost_datafile(19) = 'monthlyL3v5_20180129',
(PID.TID 0000.0001) >  gencost_errfile(19) = 'errStdAQ_v3_llc_090_floored_areascaled',
(PID.TID 0000.0001) >  gencost_name(19) = 'sss_AQanom',
(PID.TID 0000.0001) >  gencost_spmin(19) = 25.,
(PID.TID 0000.0001) >  gencost_spmax(19) = 40.,
(PID.TID 0000.0001) >  gencost_spzero(19) = 0.,
(PID.TID 0000.0001) >  gencost_preproc(1,19) = 'anom',
(PID.TID 0000.0001) ># gencost_is3d(19)=.TRUE.,
(PID.TID 0000.0001) >  gencost_outputlevel(19)=1,
(PID.TID 0000.0001) >  mult_gencost(19) = 1.,
(PID.TID 0000.0001) >#
(PID.TID 0000.0001) >  gencost_avgperiod(20)  = 'month',
(PID.TID 0000.0001) >  gencost_barfile(20) = 'm_sssmon',
(PID.TID 0000.0001) >  gencost_datafile(20) = 'monthlyL3v5_20180129',
(PID.TID 0000.0001) >  gencost_errfile(20) = 'biasStdAQ_v3_llc_090_floored_areascaled',
(PID.TID 0000.0001) >  gencost_name(20) = 'sss_AQmean',
(PID.TID 0000.0001) >  gencost_spmin(20) = 25.,
(PID.TID 0000.0001) >  gencost_spmax(20) = 40.,
(PID.TID 0000.0001) >  gencost_spzero(20) = 0.,
(PID.TID 0000.0001) >  gencost_preproc(1,20) = 'mean',
(PID.TID 0000.0001) ># gencost_is3d(20)=.TRUE.,
(PID.TID 0000.0001) >  gencost_outputlevel(20)=1,
(PID.TID 0000.0001) >  mult_gencost(20) = 1.,
(PID.TID 0000.0001) >#
(PID.TID 0000.0001) >  gencost_avgperiod(21)  = 'month',
(PID.TID 0000.0001) >  gencost_barfile(21) = 'm_bp_nopabarmon',
(PID.TID 0000.0001) >  gencost_datafile(21) = 'GRACE_jpl_rl05m_20180122_SpatialMean.asc',
(PID.TID 0000.0001) >  gencost_name(21) = 'gmbp',
(PID.TID 0000.0001) >  gencost_wei1d(21) = 0.1583,
(PID.TID 0000.0001) >  gencost_spmin(21) = -990.,
(PID.TID 0000.0001) >  gencost_spmax(21) = 990.,
(PID.TID 0000.0001) >  gencost_spzero(21) = 0.,
(PID.TID 0000.0001) >  gencost_is1d(21)=.TRUE.,
(PID.TID 0000.0001) >  gencost_outputlevel(21)=1,
(PID.TID 0000.0001) >  mult_gencost(21) = 1.,
(PID.TID 0000.0001) >#
(PID.TID 0000.0001) >  gencost_avgperiod(22)  = 'month',
(PID.TID 0000.0001) >  gencost_barfile(22) = 'm_eta_dynmon',
(PID.TID 0000.0001) >  gencost_datafile(22) = '20180228_ensemble_average_gmsl_ref.asc',
(PID.TID 0000.0001) >  gencost_name(22) = 'gmsl',
(PID.TID 0000.0001) >  gencost_wei1d(22) = 0.00382,
(PID.TID 0000.0001) >  gencost_spmin(22) = -990.,
(PID.TID 0000.0001) >  gencost_spmax(22) = 990.,
(PID.TID 0000.0001) >  gencost_spzero(22) = 0.,
(PID.TID 0000.0001) >  gencost_is1d(22)=.TRUE.,
(PID.TID 0000.0001) >  gencost_outputlevel(22)=1,
(PID.TID 0000.0001) >  mult_gencost(22) = 1.,
(PID.TID 0000.0001) >#
(PID.TID 0000.0001) >  gencost_barfile(27) = 'm_etaday',
(PID.TID 0000.0001) >  gencost_datafile(27) = 'RADS_TJ_mar2018',
(PID.TID 0000.0001) >  gencost_startdate1(27) = 19920101,
(PID.TID 0000.0001) >  gencost_startdate2(27) = 00000,
(PID.TID 0000.0001) >  gencost_avgperiod(27)  = 'day',
(PID.TID 0000.0001) >  gencost_errfile(27) = 'slaerr_gridscale_r5_areascaled.err',
(PID.TID 0000.0001) >  gencost_spmin(27) = -990.,
(PID.TID 0000.0001) >  gencost_spmax(27) = 990.,
(PID.TID 0000.0001) >  gencost_spzero(27) = 0.,
(PID.TID 0000.0001) >  gencost_outputlevel(27)=1,
(PID.TID 0000.0001) >  mult_gencost(27) = 0.,
(PID.TID 0000.0001) >#
(PID.TID 0000.0001) >  gencost_avgperiod(28)  = 'month',
(PID.TID 0000.0001) >  gencost_barfile(28) = 'm_etamon',
(PID.TID 0000.0001) >  gencost_datafile(28) = '20180228_ensemble_average_gmsl_ref.asc',
(PID.TID 0000.0001) >  gencost_wei1d(28) = 0.00382,
(PID.TID 0000.0001) >  gencost_spmin(28) = -990.,
(PID.TID 0000.0001) >  gencost_spmax(28) = 990.,
(PID.TID 0000.0001) >  gencost_spzero(28) = 0.,
(PID.TID 0000.0001) >  gencost_is1d(28)=.TRUE.,
(PID.TID 0000.0001) >  gencost_outputlevel(28)=1,
(PID.TID 0000.0001) >  mult_gencost(28) = 0.,
(PID.TID 0000.0001) >#
(PID.TID 0000.0001) >  gencost_avgperiod(29)  = 'month',
(PID.TID 0000.0001) >  gencost_barfile(29) = 'm_bpmon',
(PID.TID 0000.0001) >  gencost_datafile(29) = 'GRACE_jpl_rl05m_20180122_SpatialMean.asc',
(PID.TID 0000.0001) >  gencost_wei1d(29) = 0.1583,
(PID.TID 0000.0001) >  gencost_spmin(29) = -990.,
(PID.TID 0000.0001) >  gencost_spmax(29) = 990.,
(PID.TID 0000.0001) >  gencost_spzero(29) = 0.,
(PID.TID 0000.0001) >  gencost_is1d(29)=.TRUE.,
(PID.TID 0000.0001) >  gencost_outputlevel(29)=1,
(PID.TID 0000.0001) >  mult_gencost(29) = 0.,
(PID.TID 0000.0001) >#
(PID.TID 0000.0001) >  gencost_avgperiod(30)  = 'day',
(PID.TID 0000.0001) >  gencost_barfile(30) = 'm_bpday',
(PID.TID 0000.0001) >  gencost_datafile(30) = 'GRACE_fake_daily',
(PID.TID 0000.0001) >  gencost_errfile(30) = 'GRACE_jpl_rl05m_20180122_err_areascaled',
(PID.TID 0000.0001) >  gencost_spmin(30) = -990.,
(PID.TID 0000.0001) >  gencost_spmax(30) = 990.,
(PID.TID 0000.0001) >  gencost_spzero(30) = 0.,
(PID.TID 0000.0001) >  gencost_outputlevel(30)=1,
(PID.TID 0000.0001) >  mult_gencost(30) = 0.,
(PID.TID 0000.0001) >#
(PID.TID 0000.0001) >  gencost_avgperiod(31)  = 'day',
(PID.TID 0000.0001) >  gencost_barfile(31) = 'm_bp_nopabarday',
(PID.TID 0000.0001) >  gencost_datafile(31) = 'GRACE_fake_daily'
(PID.TID 0000.0001) >  gencost_errfile(31) = 'GRACE_jpl_rl05m_20180122_err_areascaled',
(PID.TID 0000.0001) >  gencost_spmin(31) = -990.,
(PID.TID 0000.0001) >  gencost_spmax(31) = 990.,
(PID.TID 0000.0001) >  gencost_spzero(31) = 0.,
(PID.TID 0000.0001) >  gencost_outputlevel(31)=1,
(PID.TID 0000.0001) >  mult_gencost(31) = 0.,
(PID.TID 0000.0001) > /
(PID.TID 0000.0001) >#
(PID.TID 0000.0001) 
(PID.TID 0000.0001) ECCO_READPARMS: finished reading #1: ecco_cost_nml
(PID.TID 0000.0001) ECCO_READPARMS: finished reading #2: ecco_gencost_nml
(PID.TID 0000.0001) ECCO_READPARMS: done
(PID.TID 0000.0001) PROFILES_READPARMS: opening data.profiles
(PID.TID 0000.0001)  OPEN_COPY_DATA_FILE: opening file data.profiles
(PID.TID 0000.0001) // =======================================================
(PID.TID 0000.0001) // Parameter file "data.profiles"
(PID.TID 0000.0001) // =======================================================
(PID.TID 0000.0001) >#
(PID.TID 0000.0001) ># ******************
(PID.TID 0000.0001) ># PROFILES cost function
(PID.TID 0000.0001) ># ******************
(PID.TID 0000.0001) > &PROFILES_NML
(PID.TID 0000.0001) >#
(PID.TID 0000.0001) > profilesDir='profiles',
(PID.TID 0000.0001) > profilesDoGenGrid=.TRUE.,
(PID.TID 0000.0001) >#
(PID.TID 0000.0001) > profiles_mean_indsamples(1) = 9,
(PID.TID 0000.0001) > profiles_mean_indsamples(2) = 9,
(PID.TID 0000.0001) >
(PID.TID 0000.0001) > profilesfiles(1)= 'ARGO_20190131_95to13',
(PID.TID 0000.0001) > profilesfiles(2)= 'ARGO_20190131_14to17',
(PID.TID 0000.0001) > profilesfiles(3)= 'APB_20190131_97to04',
(PID.TID 0000.0001) > profilesfiles(4)= 'CTD_20190131_92to05',
(PID.TID 0000.0001) > profilesfiles(5)= 'GLD_20190131_02to11',
(PID.TID 0000.0001) > profilesfiles(6)= 'GLD_20190131_12to13',
(PID.TID 0000.0001) > profilesfiles(7)= 'GLD_20190131_14to15',
(PID.TID 0000.0001) > profilesfiles(8)= 'MRB_20190131_92to03',
(PID.TID 0000.0001) > profilesfiles(9)= 'MRB_20190131_04to04',
(PID.TID 0000.0001) > profilesfiles(10)= 'XBT_20190131_92to05',
(PID.TID 0000.0001) > profilesfiles(11)= 'XBT_20190131_06to17',
(PID.TID 0000.0001) > profilesfiles(12)= 'ITP_20190131_04to13',
(PID.TID 0000.0001) >#profilesfiles(13)= 'beaufortgyremooring_GAMMA_20150915',
(PID.TID 0000.0001) >#profilesfiles(14)= 'beringstraitmooring_GAMMA_20150915',
(PID.TID 0000.0001) >#profilesfiles(15)= 'framstraitmooring_GAMMA_20150915',
(PID.TID 0000.0001) >#profilesfiles(16)= 'climode_GAMMA_20150915',
(PID.TID 0000.0001) >#profilesfiles(17)= 'davisstraitmooring_GAMMA_20150915',
(PID.TID 0000.0001) > profilesfiles(18)= 'GLD_20190131_16to17',
(PID.TID 0000.0001) > profilesfiles(19)= 'GOSHIP_20190131_92to17',
(PID.TID 0000.0001) > profilesfiles(20)= 'MRB_20190131_05to05',
(PID.TID 0000.0001) > profilesfiles(21)= 'MRB_20190131_06to17',
(PID.TID 0000.0001) > profilesfiles(22)= 'CTD_20190131_06to17',
(PID.TID 0000.0001) > profilesfiles(23)= 'ITP_20190131_14to17',
(PID.TID 0000.0001) > profilesfiles(24)= 'APB_20190131_05to05',
(PID.TID 0000.0001) > profilesfiles(25)= 'APB_20190131_06to06',
(PID.TID 0000.0001) > profilesfiles(26)= 'APB_20190131_07to07',
(PID.TID 0000.0001) > profilesfiles(27)= 'APB_20190131_08to09',
(PID.TID 0000.0001) > profilesfiles(28)= 'APB_20190131_10to17',
(PID.TID 0000.0001) > profilesfiles(29)= 'CCHDO_20190131_92to17',
(PID.TID 0000.0001) >#
(PID.TID 0000.0001) > mult_profiles_mean(1)   = 1.,
(PID.TID 0000.0001) > mult_profiles_mean(2)   = 1.,
(PID.TID 0000.0001) >
(PID.TID 0000.0001) > mult_profiles(1,1)   = 1.,
(PID.TID 0000.0001) > mult_profiles(1,2)   = 1.,
(PID.TID 0000.0001) > mult_profiles(2,1)   = 1.,
(PID.TID 0000.0001) > mult_profiles(2,2)   = 1.,
(PID.TID 0000.0001) > mult_profiles(3,1)   = 1.,
(PID.TID 0000.0001) > mult_profiles(3,2)   = 1.,
(PID.TID 0000.0001) > mult_profiles(4,1)   = 1.,
(PID.TID 0000.0001) > mult_profiles(4,2)   = 1.,
(PID.TID 0000.0001) > mult_profiles(5,1)   = 1.,
(PID.TID 0000.0001) > mult_profiles(5,2)   = 1.,
(PID.TID 0000.0001) > mult_profiles(6,1)   = 1.,
(PID.TID 0000.0001) > mult_profiles(6,2)   = 1.,
(PID.TID 0000.0001) > mult_profiles(7,1)   = 1.,
(PID.TID 0000.0001) > mult_profiles(7,2)   = 1.,
(PID.TID 0000.0001) > mult_profiles(8,1)   = 1.,
(PID.TID 0000.0001) > mult_profiles(8,2)   = 1.,
(PID.TID 0000.0001) > mult_profiles(9,1)   = 1.,
(PID.TID 0000.0001) > mult_profiles(9,2)   = 1.,
(PID.TID 0000.0001) > mult_profiles(10,1)   = 1.,
(PID.TID 0000.0001) > mult_profiles(10,2)   = 1.,
(PID.TID 0000.0001) > mult_profiles(11,1)   = 1.,
(PID.TID 0000.0001) > mult_profiles(11,2)   = 1.,
(PID.TID 0000.0001) > mult_profiles(12,1)   = 1.,
(PID.TID 0000.0001) > mult_profiles(12,2)   = 1.,
(PID.TID 0000.0001) > mult_profiles(13,1)   = 0.2,
(PID.TID 0000.0001) > mult_profiles(13,2)   = 0.2,
(PID.TID 0000.0001) > mult_profiles(14,1)   = 1.,
(PID.TID 0000.0001) > mult_profiles(14,2)   = 1.,
(PID.TID 0000.0001) > mult_profiles(15,1)   = 0.013,
(PID.TID 0000.0001) > mult_profiles(15,2)   = 0.013,
(PID.TID 0000.0001) > mult_profiles(16,1)   = 1.,
(PID.TID 0000.0001) > mult_profiles(16,2)   = 1.,
(PID.TID 0000.0001) > mult_profiles(17,1)   = 0.0165,
(PID.TID 0000.0001) > mult_profiles(17,2)   = 0.0165,
(PID.TID 0000.0001) > mult_profiles(18,1)   = 1.,
(PID.TID 0000.0001) > mult_profiles(18,2)   = 1.,
(PID.TID 0000.0001) > mult_profiles(19,1)   = 1.,
(PID.TID 0000.0001) > mult_profiles(19,2)   = 1.,
(PID.TID 0000.0001) > mult_profiles(20,1)   = 1.,
(PID.TID 0000.0001) > mult_profiles(20,2)   = 1.,
(PID.TID 0000.0001) > mult_profiles(21,1)   = 1.,
(PID.TID 0000.0001) > mult_profiles(21,2)   = 1.,
(PID.TID 0000.0001) > mult_profiles(22,1)   = 1.,
(PID.TID 0000.0001) > mult_profiles(22,2)   = 1.,
(PID.TID 0000.0001) > mult_profiles(23,1)   = 1.,
(PID.TID 0000.0001) > mult_profiles(23,2)   = 1.,
(PID.TID 0000.0001) > mult_profiles(24,1)   = 1.,
(PID.TID 0000.0001) > mult_profiles(24,2)   = 1.,
(PID.TID 0000.0001) > mult_profiles(25,1)   = 1.,
(PID.TID 0000.0001) > mult_profiles(25,2)   = 1.,
(PID.TID 0000.0001) > mult_profiles(26,1)   = 1.,
(PID.TID 0000.0001) > mult_profiles(26,2)   = 1.,
(PID.TID 0000.0001) > mult_profiles(27,1)   = 1.,
(PID.TID 0000.0001) > mult_profiles(27,2)   = 1.,
(PID.TID 0000.0001) > mult_profiles(28,1)   = 1.,
(PID.TID 0000.0001) > mult_profiles(28,2)   = 1.,
(PID.TID 0000.0001) > mult_profiles(29,1)   = 1.,
(PID.TID 0000.0001) > mult_profiles(29,2)   = 1.,
(PID.TID 0000.0001) >
(PID.TID 0000.0001) >#
(PID.TID 0000.0001) > /
(PID.TID 0000.0001) 
(PID.TID 0000.0001) PROFILES_READPARMS: finished reading data.profiles
(PID.TID 0000.0001)  SBO_READPARMS: opening data.sbo
(PID.TID 0000.0001)  OPEN_COPY_DATA_FILE: opening file data.sbo
(PID.TID 0000.0001) // =======================================================
(PID.TID 0000.0001) // Parameter file "data.sbo"
(PID.TID 0000.0001) // =======================================================
(PID.TID 0000.0001) >#
(PID.TID 0000.0001) ># *******************
(PID.TID 0000.0001) ># SBO Parameters
(PID.TID 0000.0001) ># *******************
(PID.TID 0000.0001) > &SBO_PARM01
(PID.TID 0000.0001) > /
(PID.TID 0000.0001) 
(PID.TID 0000.0001)  SBO_READPARMS: finished reading data.sbo
(PID.TID 0000.0001) SET_PARMS: done
==> SYSTEM CALL (from AUTODIFF_INI_MODEL_IO): > mkdir -p tapes <
==> SYSTEM CALL (from PROFILES_INI_IO): > mkdir -p profiles <
(PID.TID 0000.0001) Enter INI_VERTICAL_GRID: setInterFDr=    T ; setCenterDr=    F
(PID.TID 0000.0001) tile:   4 ; Read from file tile001.mitgrid
(PID.TID 0000.0001)   => xC yC dxF dyF rA xG yG dxV dyU rAz dxC dyC rAw rAs dxG dyG
(PID.TID 0000.0001) %MON XC_max                       =   1.7997758946678E+02
(PID.TID 0000.0001) %MON XC_min                       =  -1.7998895680928E+02
(PID.TID 0000.0001) %MON XC_mean                      =  -6.8997670631350E+00
(PID.TID 0000.0001) %MON XC_sd                        =   1.0548127462941E+02
(PID.TID 0000.0001) %MON XG_max                       =   1.8000000000000E+02
(PID.TID 0000.0001) %MON XG_min                       =  -1.7999919444240E+02
(PID.TID 0000.0001) %MON XG_mean                      =  -6.3521159278861E+00
(PID.TID 0000.0001) %MON XG_sd                        =   1.0549598176576E+02
(PID.TID 0000.0001) %MON DXC_max                      =   1.1117680031365E+05
(PID.TID 0000.0001) %MON DXC_min                      =   1.3362789164732E+04
(PID.TID 0000.0001) %MON DXC_mean                     =   7.1345115143606E+04
(PID.TID 0000.0001) %MON DXC_sd                       =   2.6107013089865E+04
(PID.TID 0000.0001) %MON DXF_max                      =   1.1117680031365E+05
(PID.TID 0000.0001) %MON DXF_min                      =   1.3491575949394E+04
(PID.TID 0000.0001) %MON DXF_mean                     =   7.1334806791260E+04
(PID.TID 0000.0001) %MON DXF_sd                       =   2.6121349328995E+04
(PID.TID 0000.0001) %MON DXG_max                      =   1.1117747335204E+05
(PID.TID 0000.0001) %MON DXG_min                      =   1.0930409249570E+04
(PID.TID 0000.0001) %MON DXG_mean                     =   7.1313583950284E+04
(PID.TID 0000.0001) %MON DXG_sd                       =   2.6131714747840E+04
(PID.TID 0000.0001) %MON DXV_max                      =   1.1117747335204E+05
(PID.TID 0000.0001) %MON DXV_min                      =   9.4742518926426E+03
(PID.TID 0000.0001) %MON DXV_mean                     =   7.1323777998314E+04
(PID.TID 0000.0001) %MON DXV_sd                       =   2.6117603792432E+04
(PID.TID 0000.0001) %MON YC_max                       =   8.9739397429324E+01
(PID.TID 0000.0001) %MON YC_min                       =  -8.1637173529390E+01
(PID.TID 0000.0001) %MON YC_mean                      =  -5.9338515025079E-01
(PID.TID 0000.0001) %MON YC_sd                        =   5.1058908630085E+01
(PID.TID 0000.0001) %MON YG_max                       =   9.0000000000000E+01
(PID.TID 0000.0001) %MON YG_min                       =  -8.1805478609906E+01
(PID.TID 0000.0001) %MON YG_mean                      =  -5.7357831765462E-01
(PID.TID 0000.0001) %MON YG_sd                        =   5.1060174609345E+01
(PID.TID 0000.0001) %MON DYC_max                      =   1.1117680031365E+05
(PID.TID 0000.0001) %MON DYC_min                      =   1.3362789164732E+04
(PID.TID 0000.0001) %MON DYC_mean                     =   7.0982792089666E+04
(PID.TID 0000.0001) %MON DYC_sd                       =   2.6607387075348E+04
(PID.TID 0000.0001) %MON DYF_max                      =   1.1117680031365E+05
(PID.TID 0000.0001) %MON DYF_min                      =   1.3491575949394E+04
(PID.TID 0000.0001) %MON DYF_mean                     =   7.1000127494934E+04
(PID.TID 0000.0001) %MON DYF_sd                       =   2.6603606017547E+04
(PID.TID 0000.0001) %MON DYG_max                      =   1.1117747335204E+05
(PID.TID 0000.0001) %MON DYG_min                      =   1.0930409249570E+04
(PID.TID 0000.0001) %MON DYG_mean                     =   7.1022116512585E+04
(PID.TID 0000.0001) %MON DYG_sd                       =   2.6571715830406E+04
(PID.TID 0000.0001) %MON DYU_max                      =   1.1117747335204E+05
(PID.TID 0000.0001) %MON DYU_min                      =   9.4742518926426E+03
(PID.TID 0000.0001) %MON DYU_mean                     =   7.1004694583927E+04
(PID.TID 0000.0001) %MON DYU_sd                       =   2.6575655787476E+04
(PID.TID 0000.0001) %MON RA_max                       =   1.1896090857160E+10
(PID.TID 0000.0001) %MON RA_min                       =   2.1263387742345E+08
(PID.TID 0000.0001) %MON RA_mean                      =   5.6344293572480E+09
(PID.TID 0000.0001) %MON RA_sd                        =   3.5929461176606E+09
(PID.TID 0000.0001) %MON RAW_max                      =   1.1896090856781E+10
(PID.TID 0000.0001) %MON RAW_min                      =   1.7369571508711E+08
(PID.TID 0000.0001) %MON RAW_mean                     =   5.6355850434318E+09
(PID.TID 0000.0001) %MON RAW_sd                       =   3.5915487677190E+09
(PID.TID 0000.0001) %MON RAS_max                      =   1.1896090856781E+10
(PID.TID 0000.0001) %MON RAS_min                      =   1.7369571508711E+08
(PID.TID 0000.0001) %MON RAS_mean                     =   5.6320332286162E+09
(PID.TID 0000.0001) %MON RAS_sd                       =   3.5937184228135E+09
(PID.TID 0000.0001) %MON RAZ_max                      =   1.1891903479271E+10
(PID.TID 0000.0001) %MON RAZ_min                      =   1.0413402423292E+08
(PID.TID 0000.0001) %MON RAZ_mean                     =   5.6331824674695E+09
(PID.TID 0000.0001) %MON RAZ_sd                       =   3.5923307220197E+09
(PID.TID 0000.0001) %MON AngleCS_max                  =   1.0000000000000E+00
(PID.TID 0000.0001) %MON AngleCS_min                  =  -9.9996641938864E-01
(PID.TID 0000.0001) %MON AngleCS_mean                 =   4.0572930529500E-01
(PID.TID 0000.0001) %MON AngleCS_sd                   =   5.3874397836719E-01
(PID.TID 0000.0001) %MON AngleSN_max                  =   9.9996641938864E-01
(PID.TID 0000.0001) %MON AngleSN_min                  =  -1.0000000000000E+00
(PID.TID 0000.0001) %MON AngleSN_mean                 =  -4.9986154624599E-01
(PID.TID 0000.0001) %MON AngleSN_sd                   =   5.4339404779819E-01
(PID.TID 0000.0001) 
(PID.TID 0000.0001) // =======================================================
(PID.TID 0000.0001) // Calendar configuration >>> START <<<
(PID.TID 0000.0001) // =======================================================
(PID.TID 0000.0001) 
(PID.TID 0000.0001) modelstart = /* Start time of the model integration [s] */
(PID.TID 0000.0001)                 3.600000000000000E+03
(PID.TID 0000.0001)     ;
(PID.TID 0000.0001) modelend  = /* End time of the model integration [s] */
(PID.TID 0000.0001)                 4.719960000000000E+07
(PID.TID 0000.0001)     ;
(PID.TID 0000.0001) modelStep = /* Time interval for a model forward step [s] */
(PID.TID 0000.0001)                 3.600000000000000E+03
(PID.TID 0000.0001)     ;
(PID.TID 0000.0001) usingGregorianCalendar= /* Calendar Type: Gregorian Calendar */
(PID.TID 0000.0001)                   T
(PID.TID 0000.0001)     ;
(PID.TID 0000.0001) usingJulianCalendar = /* Calendar Type: Julian Calendar */
(PID.TID 0000.0001)                   F
(PID.TID 0000.0001)     ;
(PID.TID 0000.0001) usingNoLeapYearCal  = /* Calendar Type: without Leap Year */
(PID.TID 0000.0001)                   F
(PID.TID 0000.0001)     ;
(PID.TID 0000.0001) usingModelCalendar  = /* Calendar Type: Model Calendar */
(PID.TID 0000.0001)                   F
(PID.TID 0000.0001)     ;
(PID.TID 0000.0001) modelStartDate YYYYMMDD = /* Model start date YYYY-MM-DD */
(PID.TID 0000.0001)                19920101
(PID.TID 0000.0001)     ;
(PID.TID 0000.0001)   modelStartDate HHMMSS = /* Model start date HH-MM-SS  */
(PID.TID 0000.0001)                  130000
(PID.TID 0000.0001)     ;
(PID.TID 0000.0001) modelEndDate   YYYYMMDD = /* Model end date YYYY-MM-DD */
(PID.TID 0000.0001)                19930630
(PID.TID 0000.0001)     ;
(PID.TID 0000.0001)   modelEndDate   HHMMSS = /* Model end date HH-MM-SS  */
(PID.TID 0000.0001)                  190000
(PID.TID 0000.0001)     ;
(PID.TID 0000.0001) intyears = /* Number of calendar years affected by the integration */
(PID.TID 0000.0001)                       2
(PID.TID 0000.0001)     ;
(PID.TID 0000.0001) intmonths= /* Number of calendar months affected by the integration */
(PID.TID 0000.0001)                      18
(PID.TID 0000.0001)     ;
(PID.TID 0000.0001) intdays = /* Number of calendar days affected by the integration */
(PID.TID 0000.0001)                     547
(PID.TID 0000.0001)     ;
(PID.TID 0000.0001) modelIter0 = /* Base timestep number  */
(PID.TID 0000.0001)                       1
(PID.TID 0000.0001)     ;
(PID.TID 0000.0001) modelIterEnd = /* Final timestep number  */
(PID.TID 0000.0001)                   13111
(PID.TID 0000.0001)     ;
(PID.TID 0000.0001) modelIntSteps= /* Number of model timesteps  */
(PID.TID 0000.0001)                   13110
(PID.TID 0000.0001)     ;
(PID.TID 0000.0001) 
(PID.TID 0000.0001) // =======================================================
(PID.TID 0000.0001) // Calendar configuration  >>> END <<<
(PID.TID 0000.0001) // =======================================================
(PID.TID 0000.0001) 
(PID.TID 0000.0001) GAD_INIT_FIXED: GAD_OlMinSize=  2  0  2
(PID.TID 0000.0001) 
(PID.TID 0000.0001) // ===================================
(PID.TID 0000.0001) // GAD parameters :
(PID.TID 0000.0001) // ===================================
(PID.TID 0000.0001) tempAdvScheme =   /* Temp. Horiz.Advection scheme selector */
(PID.TID 0000.0001)                      30
(PID.TID 0000.0001)     ;
(PID.TID 0000.0001) tempVertAdvScheme =   /* Temp. Vert. Advection scheme selector */
(PID.TID 0000.0001)                       3
(PID.TID 0000.0001)     ;
(PID.TID 0000.0001) tempMultiDimAdvec =   /* use Muti-Dim Advec method for Temp */
(PID.TID 0000.0001)                   T
(PID.TID 0000.0001)     ;
(PID.TID 0000.0001) tempSOM_Advection = /* use 2nd Order Moment Advection for Temp */
(PID.TID 0000.0001)                   F
(PID.TID 0000.0001)     ;
(PID.TID 0000.0001) AdamsBashforthGt = /* apply Adams-Bashforth extrapolation on Gt */
(PID.TID 0000.0001)                   F
(PID.TID 0000.0001)     ;
(PID.TID 0000.0001) AdamsBashforth_T = /* apply Adams-Bashforth extrapolation on Temp */
(PID.TID 0000.0001)                   F
(PID.TID 0000.0001)     ;
(PID.TID 0000.0001) saltAdvScheme =   /* Salt. Horiz.advection scheme selector */
(PID.TID 0000.0001)                      30
(PID.TID 0000.0001)     ;
(PID.TID 0000.0001) saltVertAdvScheme =   /* Salt. Vert. Advection scheme selector */
(PID.TID 0000.0001)                       3
(PID.TID 0000.0001)     ;
(PID.TID 0000.0001) saltMultiDimAdvec =   /* use Muti-Dim Advec method for Salt */
(PID.TID 0000.0001)                   T
(PID.TID 0000.0001)     ;
(PID.TID 0000.0001) saltSOM_Advection = /* use 2nd Order Moment Advection for Salt */
(PID.TID 0000.0001)                   F
(PID.TID 0000.0001)     ;
(PID.TID 0000.0001) AdamsBashforthGs = /* apply Adams-Bashforth extrapolation on Gs */
(PID.TID 0000.0001)                   F
(PID.TID 0000.0001)     ;
(PID.TID 0000.0001) AdamsBashforth_S = /* apply Adams-Bashforth extrapolation on Salt */
(PID.TID 0000.0001)                   F
(PID.TID 0000.0001)     ;
(PID.TID 0000.0001) // ===================================
(PID.TID 0000.0001) 
(PID.TID 0000.0001) // =======================================================
(PID.TID 0000.0001) // External forcing (EXF) configuration >>> START <<<
(PID.TID 0000.0001) // =======================================================
(PID.TID 0000.0001) 
(PID.TID 0000.0001)  EXF general parameters:
(PID.TID 0000.0001) 
(PID.TID 0000.0001) exf_iprec = /* exf file precision */
(PID.TID 0000.0001)                      32
(PID.TID 0000.0001)     ;
(PID.TID 0000.0001) useExfYearlyFields = /* add extension _YEAR to input file names */
(PID.TID 0000.0001)                   T
(PID.TID 0000.0001)     ;
(PID.TID 0000.0001) twoDigitYear = /* use 2-digit year extension */
(PID.TID 0000.0001)                   F
(PID.TID 0000.0001)     ;
(PID.TID 0000.0001) useExfCheckRange = /* check for fields range */
(PID.TID 0000.0001)                   F
(PID.TID 0000.0001)     ;
(PID.TID 0000.0001) exf_output_interp = /* output directly interpolation result */
(PID.TID 0000.0001)                   F
(PID.TID 0000.0001)     ;
(PID.TID 0000.0001) exf_debugLev = /* select EXF-debug printing level */
(PID.TID 0000.0001)                       1
(PID.TID 0000.0001)     ;
(PID.TID 0000.0001) exf_monFreq  = /* EXF monitor frequency [ s ] */
(PID.TID 0000.0001)                 6.307200000000000E+06
(PID.TID 0000.0001)     ;
(PID.TID 0000.0001) repeatPeriod = /* period for cycling forcing dataset [ s ] */
(PID.TID 0000.0001)                 0.000000000000000E+00
(PID.TID 0000.0001)     ;
(PID.TID 0000.0001) climTempFreeze= /* Minimum climatological temperature [deg.C] */
(PID.TID 0000.0001)                -1.900000000000000E+00
(PID.TID 0000.0001)     ;
(PID.TID 0000.0001) windStressMax = /* Maximum absolute windstress [ Pa ] */
(PID.TID 0000.0001)                 2.000000000000000E+00
(PID.TID 0000.0001)     ;
(PID.TID 0000.0001) stressIsOnCgrid = /* set u,v_stress on Arakawa C-grid */
(PID.TID 0000.0001)                   F
(PID.TID 0000.0001)     ;
(PID.TID 0000.0001) rotateStressOnAgrid = /* rotate u,v_stress on Arakawa A-grid */
(PID.TID 0000.0001)                   T
(PID.TID 0000.0001)     ;
(PID.TID 0000.0001) cen2kel = /* conversion of deg. Centigrade to Kelvin [K] */
(PID.TID 0000.0001)                 2.731500000000000E+02
(PID.TID 0000.0001)     ;
(PID.TID 0000.0001) gravity_mks= /* gravitational acceleration [m/s^2] */
(PID.TID 0000.0001)                 9.810000000000000E+00
(PID.TID 0000.0001)     ;
(PID.TID 0000.0001) atmrho =  /* mean atmospheric density [kg/m^3] */
(PID.TID 0000.0001)                 1.200000000000000E+00
(PID.TID 0000.0001)     ;
(PID.TID 0000.0001) atmcp =  /* mean atmospheric specific heat [J/kg/K] */
(PID.TID 0000.0001)                 1.005000000000000E+03
(PID.TID 0000.0001)     ;
(PID.TID 0000.0001) flamb =  /* latent heat of evaporation [J/kg] */
(PID.TID 0000.0001)                 2.500000000000000E+06
(PID.TID 0000.0001)     ;
(PID.TID 0000.0001) flami =  /* latent heat of pure-ice melting [J/kg] */
(PID.TID 0000.0001)                 3.340000000000000E+05
(PID.TID 0000.0001)     ;
(PID.TID 0000.0001) cvapor_fac = /* const. for Saturation calculation [?] */
(PID.TID 0000.0001)                 6.403800000000000E+05
(PID.TID 0000.0001)     ;
(PID.TID 0000.0001) cvapor_exp = /* const. for Saturation calculation [?] */
(PID.TID 0000.0001)                 5.107400000000000E+03
(PID.TID 0000.0001)     ;
(PID.TID 0000.0001) cvapor_fac_ice= /* const. for Saturation calculation [?] */
(PID.TID 0000.0001)                 1.163780000000000E+07
(PID.TID 0000.0001)     ;
(PID.TID 0000.0001) cvapor_exp_ice= /* const. for Saturation calculation [?] */
(PID.TID 0000.0001)                 5.897800000000000E+03
(PID.TID 0000.0001)     ;
(PID.TID 0000.0001) humid_fac = /* humidity coef. in virtual temp. [(kg/kg)^-1] */
(PID.TID 0000.0001)                 6.060000000000000E-01
(PID.TID 0000.0001)     ;
(PID.TID 0000.0001) gamma_blk = /* adiabatic lapse rate [?] */
(PID.TID 0000.0001)                 1.000000000000000E-02
(PID.TID 0000.0001)     ;
(PID.TID 0000.0001) saltsat = /* reduction of Qsat over salty water [-] */
(PID.TID 0000.0001)                 9.800000000000000E-01
(PID.TID 0000.0001)     ;
(PID.TID 0000.0001) noNegativeEvap = /* prevent negative Evaporation */
(PID.TID 0000.0001)                   F
(PID.TID 0000.0001)     ;
(PID.TID 0000.0001) sstExtrapol = /* extrapolation coeff from lev. 1 & 2 to surf [-] */
(PID.TID 0000.0001)                 0.000000000000000E+00
(PID.TID 0000.0001)     ;
(PID.TID 0000.0001) cDrag_1 = /* coef used in drag calculation [?] */
(PID.TID 0000.0001)                 2.700000000000000E-03
(PID.TID 0000.0001)     ;
(PID.TID 0000.0001) cDrag_2 = /* coef used in drag calculation [?] */
(PID.TID 0000.0001)                 1.420000000000000E-04
(PID.TID 0000.0001)     ;
(PID.TID 0000.0001) cDrag_3 = /* coef used in drag calculation [?] */
(PID.TID 0000.0001)                 7.640000000000000E-05
(PID.TID 0000.0001)     ;
(PID.TID 0000.0001) cStanton_1 = /* coef used in Stanton number calculation [?] */
(PID.TID 0000.0001)                 3.270000000000000E-02
(PID.TID 0000.0001)     ;
(PID.TID 0000.0001) cStanton_2 = /* coef used in Stanton number calculation [?] */
(PID.TID 0000.0001)                 1.800000000000000E-02
(PID.TID 0000.0001)     ;
(PID.TID 0000.0001) cDalton = /* coef used in Dalton number calculation [?] */
(PID.TID 0000.0001)                 3.460000000000000E-02
(PID.TID 0000.0001)     ;
(PID.TID 0000.0001) exf_scal_BulkCdn= /* Drag coefficient scaling factor [-] */
(PID.TID 0000.0001)                 1.000000000000000E+00
(PID.TID 0000.0001)     ;
(PID.TID 0000.0001) zolmin = /* minimum stability parameter [?] */
(PID.TID 0000.0001)                -1.000000000000000E+02
(PID.TID 0000.0001)     ;
(PID.TID 0000.0001) psim_fac = /* coef used in turbulent fluxes calculation [-] */
(PID.TID 0000.0001)                 5.000000000000000E+00
(PID.TID 0000.0001)     ;
(PID.TID 0000.0001) zref =  /* reference height [ m ] */
(PID.TID 0000.0001)                 1.000000000000000E+01
(PID.TID 0000.0001)     ;
(PID.TID 0000.0001) hu =  /* height of mean wind [ m ] */
(PID.TID 0000.0001)                 1.000000000000000E+01
(PID.TID 0000.0001)     ;
(PID.TID 0000.0001) ht =  /* height of mean temperature [ m ] */
(PID.TID 0000.0001)                 2.000000000000000E+00
(PID.TID 0000.0001)     ;
(PID.TID 0000.0001) hq =  /* height of mean spec.humidity [ m ] */
(PID.TID 0000.0001)                 2.000000000000000E+00
(PID.TID 0000.0001)     ;
(PID.TID 0000.0001) uMin = /* minimum wind speed [m/s] */
(PID.TID 0000.0001)                 5.000000000000000E-01
(PID.TID 0000.0001)     ;
(PID.TID 0000.0001) useStabilityFct_overIce= /* transfert Coeffs over sea-ice depend on stability */
(PID.TID 0000.0001)                   F
(PID.TID 0000.0001)     ;
(PID.TID 0000.0001) exf_iceCd = /* drag coefficient over sea-ice (fixed) [-] */
(PID.TID 0000.0001)                 1.630000000000000E-03
(PID.TID 0000.0001)     ;
(PID.TID 0000.0001) exf_iceCe = /* transfert coeff. over sea-ice, for Evap (fixed) [-] */
(PID.TID 0000.0001)                 1.630000000000000E-03
(PID.TID 0000.0001)     ;
(PID.TID 0000.0001) exf_iceCh = /* transfert coeff. over sea-ice, Sens.Heat.(fixed)[-] */
(PID.TID 0000.0001)                 1.630000000000000E-03
(PID.TID 0000.0001)     ;
(PID.TID 0000.0001) exf_albedo =  /* Sea-water albedo [-] */
(PID.TID 0000.0001)                 1.000000000000000E-01
(PID.TID 0000.0001)     ;
(PID.TID 0000.0001) useExfZenAlbedo = /* Sea-water albedo varies with zenith angle */
(PID.TID 0000.0001)                   T
(PID.TID 0000.0001)     ;
(PID.TID 0000.0001) select_ZenAlbedo = /* Sea-water albedo computation method */
(PID.TID 0000.0001)                       1
(PID.TID 0000.0001)     ;
(PID.TID 0000.0001) useExfZenIncoming = /* compute incoming solar radiation */
(PID.TID 0000.0001)                   T
(PID.TID 0000.0001)     ;
(PID.TID 0000.0001) ocean_emissivity = /* longwave ocean-surface emissivity [-] */
(PID.TID 0000.0001)                 9.700000000000000E-01
(PID.TID 0000.0001)     ;
(PID.TID 0000.0001) ice_emissivity = /* longwave seaice emissivity [-] */
(PID.TID 0000.0001)                 9.500000000000000E-01
(PID.TID 0000.0001)     ;
(PID.TID 0000.0001) snow_emissivity = /* longwave snow  emissivity [-] */
(PID.TID 0000.0001)                 9.500000000000000E-01
(PID.TID 0000.0001)     ;
(PID.TID 0000.0001) 
(PID.TID 0000.0001)  EXF main CPP flags:
(PID.TID 0000.0001) 
(PID.TID 0000.0001) // USE_EXF_INTERPOLATION:              defined
(PID.TID 0000.0001) // ALLOW_ATM_TEMP:                     defined
(PID.TID 0000.0001) // ALLOW_ATM_WIND (useAtmWind):    NOT defined
(PID.TID 0000.0001) // ALLOW_DOWNWARD_RADIATION:           defined
(PID.TID 0000.0001) // ALLOW_BULKFORMULAE:                 defined
(PID.TID 0000.0001) 
(PID.TID 0000.0001)    Zonal wind stress forcing starts at               10800.
(PID.TID 0000.0001)    Zonal wind stress forcing period is               21600.
(PID.TID 0000.0001)    Zonal wind stress forcing repeat-cycle is             0.
(PID.TID 0000.0001)    Zonal wind stress forcing is read from file:
(PID.TID 0000.0001)    >> eccov4r4_ustr <<
(PID.TID 0000.0001)    assume "ustress" on model-grid (no interpolation)
(PID.TID 0000.0001) 
(PID.TID 0000.0001)    Meridional wind stress forcing starts at          10800.
(PID.TID 0000.0001)    Meridional wind stress forcing period is          21600.
(PID.TID 0000.0001)    Meridional wind stress forcing rep-cycle is           0.
(PID.TID 0000.0001)    Meridional wind stress forcing is read from file:
(PID.TID 0000.0001)    >> eccov4r4_vstr <<
(PID.TID 0000.0001)    assume "vstress" on model-grid (no interpolation)
(PID.TID 0000.0001)     Interp. U & V comp. together: uvInterp_stress =    F
(PID.TID 0000.0001) 
(PID.TID 0000.0001)    Atmospheric temperature starts at                 10800.
(PID.TID 0000.0001)    Atmospheric temperature period is                 21600.
(PID.TID 0000.0001)    Atmospheric temperature repeat-cycle is               0.
(PID.TID 0000.0001)    Atmospheric temperature is read from file:
(PID.TID 0000.0001)    >> eccov4r4_tmp2m_degC <<
(PID.TID 0000.0001)    assume "atemp" on model-grid (no interpolation)
(PID.TID 0000.0001) 
(PID.TID 0000.0001)    Atmospheric specific humidity starts at           10800.
(PID.TID 0000.0001)    Atmospheric specific humidity period is           21600.
(PID.TID 0000.0001)    Atmospheric specific humidity rep-cycle is            0.
(PID.TID 0000.0001)    Atmospheric specific humidity is read from file:
(PID.TID 0000.0001)    >> eccov4r4_spfh2m <<
(PID.TID 0000.0001)    assume "aqh" on model-grid (no interpolation)
(PID.TID 0000.0001) 
(PID.TID 0000.0001) // ALLOW_READ_TURBFLUXES:          NOT defined
(PID.TID 0000.0001) // EXF_READ_EVAP:                  NOT defined
(PID.TID 0000.0001) 
(PID.TID 0000.0001)    Precipitation data starts at                      10800.
(PID.TID 0000.0001)    Precipitation data period is                      21600.
(PID.TID 0000.0001)    Precipitation data repeat-cycle is                    0.
(PID.TID 0000.0001)    Precipitation data is read from file:
(PID.TID 0000.0001)    >> eccov4r4_rain <<
(PID.TID 0000.0001)    assume "precip" on model-grid (no interpolation)
(PID.TID 0000.0001) 
(PID.TID 0000.0001) // ALLOW_RUNOFF:                       defined
(PID.TID 0000.0001)    Runoff data period is                               -12.
(PID.TID 0000.0001)    Runoff data is read from file:
(PID.TID 0000.0001)    >> runoff-2d-Fekete-1deg-mon-V4-SMOOTH.bin <<
(PID.TID 0000.0001)    assume "runoff" on model-grid (no interpolation)
(PID.TID 0000.0001) 
(PID.TID 0000.0001) // ALLOW_RUNOFTEMP:                NOT defined
(PID.TID 0000.0001) // ALLOW_SALTFLX:                      defined
(PID.TID 0000.0001) 
(PID.TID 0000.0001)    Downward shortwave flux starts at                 10800.
(PID.TID 0000.0001)    Downward shortwave flux period is                 21600.
(PID.TID 0000.0001)    Downward shortwave flux repeat-cycle is               0.
(PID.TID 0000.0001)    Downward shortwave flux is read from file:
(PID.TID 0000.0001)    >> eccov4r4_dsw <<
(PID.TID 0000.0001)    assume "swdown" on model-grid (no interpolation)
(PID.TID 0000.0001) 
(PID.TID 0000.0001)    Downward longwave flux starts at                  10800.
(PID.TID 0000.0001)    Downward longwave flux period is                  21600.
(PID.TID 0000.0001)    Downward longwave flux repeat-cycle is                0.
(PID.TID 0000.0001)    Downward longwave flux is read from file:
(PID.TID 0000.0001)    >> eccov4r4_dlw <<
(PID.TID 0000.0001)    assume "lwdown" on model-grid (no interpolation)
(PID.TID 0000.0001) 
(PID.TID 0000.0001)    Atmospheric pressure forcing starts at            10800.
(PID.TID 0000.0001)    Atmospheric pressure forcing period is            21600.
(PID.TID 0000.0001)    Atmospheric pressure forcing rep-cycle is             0.
(PID.TID 0000.0001)    Atmospheric pressure forcing is read from file:
(PID.TID 0000.0001)    >> eccov4r4_pres <<
(PID.TID 0000.0001)    assume "apressure" on model-grid (no interpolation)
(PID.TID 0000.0001) 
(PID.TID 0000.0001) // =======================================================
(PID.TID 0000.0001) // External forcing (EXF) climatology configuration :
(PID.TID 0000.0001) // =======================================================
(PID.TID 0000.0001) 
(PID.TID 0000.0001) // ALLOW_CLIMSST_RELAXATION:           defined
(PID.TID 0000.0001)    climsst relaxation is NOT used
(PID.TID 0000.0001) 
(PID.TID 0000.0001) // ALLOW_CLIMSSS_RELAXATION:           defined
(PID.TID 0000.0001)    climsss relaxation is NOT used
(PID.TID 0000.0001) 
(PID.TID 0000.0001) // =======================================================
(PID.TID 0000.0001) // External forcing (EXF) configuration  >>> END <<<
(PID.TID 0000.0001) // =======================================================
(PID.TID 0000.0001) 
(PID.TID 0000.0001)  OPEN_COPY_DATA_FILE: opening file GRACE_jpl_rl05m_20180122_SpatialMean.asc
(PID.TID 0000.0001) // =======================================================
(PID.TID 0000.0001) // Parameter file "GRACE_jpl_rl05m_20180122_SpatialMean.asc"
(PID.TID 0000.0001) // =======================================================
(PID.TID 0000.0001) >  -999.0000
(PID.TID 0000.0001) >  -999.0000
(PID.TID 0000.0001) >  -999.0000
(PID.TID 0000.0001) >  -999.0000
(PID.TID 0000.0001) >  -999.0000
(PID.TID 0000.0001) >  -999.0000
(PID.TID 0000.0001) >  -999.0000
(PID.TID 0000.0001) >  -999.0000
(PID.TID 0000.0001) >  -999.0000
(PID.TID 0000.0001) >  -999.0000
(PID.TID 0000.0001) >  -999.0000
(PID.TID 0000.0001) >  -999.0000
(PID.TID 0000.0001) >  -999.0000
(PID.TID 0000.0001) >  -999.0000
(PID.TID 0000.0001) >  -999.0000
(PID.TID 0000.0001) >  -999.0000
(PID.TID 0000.0001) >  -999.0000
(PID.TID 0000.0001) >  -999.0000
(PID.TID 0000.0001) >  -999.0000
(PID.TID 0000.0001) >  -999.0000
(PID.TID 0000.0001) >  -999.0000
(PID.TID 0000.0001) >  -999.0000
(PID.TID 0000.0001) >  -999.0000
(PID.TID 0000.0001) >  -999.0000
(PID.TID 0000.0001) >  -999.0000
(PID.TID 0000.0001) >  -999.0000
(PID.TID 0000.0001) >  -999.0000
(PID.TID 0000.0001) >  -999.0000
(PID.TID 0000.0001) >  -999.0000
(PID.TID 0000.0001) >  -999.0000
(PID.TID 0000.0001) >  -999.0000
(PID.TID 0000.0001) >  -999.0000
(PID.TID 0000.0001) >  -999.0000
(PID.TID 0000.0001) >  -999.0000
(PID.TID 0000.0001) >  -999.0000
(PID.TID 0000.0001) >  -999.0000
(PID.TID 0000.0001) >  -999.0000
(PID.TID 0000.0001) >  -999.0000
(PID.TID 0000.0001) >  -999.0000
(PID.TID 0000.0001) >  -999.0000
(PID.TID 0000.0001) >  -999.0000
(PID.TID 0000.0001) >  -999.0000
(PID.TID 0000.0001) >  -999.0000
(PID.TID 0000.0001) >  -999.0000
(PID.TID 0000.0001) >  -999.0000
(PID.TID 0000.0001) >  -999.0000
(PID.TID 0000.0001) >  -999.0000
(PID.TID 0000.0001) >  -999.0000
(PID.TID 0000.0001) >  -999.0000
(PID.TID 0000.0001) >  -999.0000
(PID.TID 0000.0001) >  -999.0000
(PID.TID 0000.0001) >  -999.0000
(PID.TID 0000.0001) >  -999.0000
(PID.TID 0000.0001) >  -999.0000
(PID.TID 0000.0001) >  -999.0000
(PID.TID 0000.0001) >  -999.0000
(PID.TID 0000.0001) >  -999.0000
(PID.TID 0000.0001) >  -999.0000
(PID.TID 0000.0001) >  -999.0000
(PID.TID 0000.0001) >  -999.0000
(PID.TID 0000.0001) >  -999.0000
(PID.TID 0000.0001) >  -999.0000
(PID.TID 0000.0001) >  -999.0000
(PID.TID 0000.0001) >  -999.0000
(PID.TID 0000.0001) >  -999.0000
(PID.TID 0000.0001) >  -999.0000
(PID.TID 0000.0001) >  -999.0000
(PID.TID 0000.0001) >  -999.0000
(PID.TID 0000.0001) >  -999.0000
(PID.TID 0000.0001) >  -999.0000
(PID.TID 0000.0001) >  -999.0000
(PID.TID 0000.0001) >  -999.0000
(PID.TID 0000.0001) >  -999.0000
(PID.TID 0000.0001) >  -999.0000
(PID.TID 0000.0001) >  -999.0000
(PID.TID 0000.0001) >  -999.0000
(PID.TID 0000.0001) >  -999.0000
(PID.TID 0000.0001) >  -999.0000
(PID.TID 0000.0001) >  -999.0000
(PID.TID 0000.0001) >  -999.0000
(PID.TID 0000.0001) >  -999.0000
(PID.TID 0000.0001) >  -999.0000
(PID.TID 0000.0001) >  -999.0000
(PID.TID 0000.0001) >  -999.0000
(PID.TID 0000.0001) >  -999.0000
(PID.TID 0000.0001) >  -999.0000
(PID.TID 0000.0001) >  -999.0000
(PID.TID 0000.0001) >  -999.0000
(PID.TID 0000.0001) >  -999.0000
(PID.TID 0000.0001) >  -999.0000
(PID.TID 0000.0001) >  -999.0000
(PID.TID 0000.0001) >  -999.0000
(PID.TID 0000.0001) >  -999.0000
(PID.TID 0000.0001) >  -999.0000
(PID.TID 0000.0001) >  -999.0000
(PID.TID 0000.0001) >  -999.0000
(PID.TID 0000.0001) >  -999.0000
(PID.TID 0000.0001) >  -999.0000
(PID.TID 0000.0001) >  -999.0000
(PID.TID 0000.0001) >  -999.0000
(PID.TID 0000.0001) >  -999.0000
(PID.TID 0000.0001) >  -999.0000
(PID.TID 0000.0001) >  -999.0000
(PID.TID 0000.0001) >  -999.0000
(PID.TID 0000.0001) >  -999.0000
(PID.TID 0000.0001) >  -999.0000
(PID.TID 0000.0001) >  -999.0000
(PID.TID 0000.0001) >  -999.0000
(PID.TID 0000.0001) >  -999.0000
(PID.TID 0000.0001) >  -999.0000
(PID.TID 0000.0001) >  -999.0000
(PID.TID 0000.0001) >  -999.0000
(PID.TID 0000.0001) >  -999.0000
(PID.TID 0000.0001) >  -999.0000
(PID.TID 0000.0001) >  -999.0000
(PID.TID 0000.0001) >  -999.0000
(PID.TID 0000.0001) >  -999.0000
(PID.TID 0000.0001) >  -999.0000
(PID.TID 0000.0001) >  -999.0000
(PID.TID 0000.0001) >  -999.0000
(PID.TID 0000.0001) >  -999.0000
(PID.TID 0000.0001) >  -999.0000
(PID.TID 0000.0001) >  -999.0000
(PID.TID 0000.0001) >    -1.5388
(PID.TID 0000.0001) >  -999.0000
(PID.TID 0000.0001) >  -999.0000
(PID.TID 0000.0001) >  -999.0000
(PID.TID 0000.0001) >    -0.0248
(PID.TID 0000.0001) >     0.2932
(PID.TID 0000.0001) >     0.3102
(PID.TID 0000.0001) >     0.0922
(PID.TID 0000.0001) >    -0.0298
(PID.TID 0000.0001) >    -0.4188
(PID.TID 0000.0001) >    -0.6158
(PID.TID 0000.0001) >    -0.9188
(PID.TID 0000.0001) >    -0.9888
(PID.TID 0000.0001) >  -999.0000
(PID.TID 0000.0001) >  -999.0000
(PID.TID 0000.0001) >    -0.3688
(PID.TID 0000.0001) >     0.1912
(PID.TID 0000.0001) >     0.2652
(PID.TID 0000.0001) >     0.4822
(PID.TID 0000.0001) >     0.2602
(PID.TID 0000.0001) >    -0.0588
(PID.TID 0000.0001) >  -999.0000
(PID.TID 0000.0001) >    -0.7528
(PID.TID 0000.0001) >    -0.8628
(PID.TID 0000.0001) >    -1.3578
(PID.TID 0000.0001) >    -1.2408
(PID.TID 0000.0001) >    -0.6928
(PID.TID 0000.0001) >    -0.3358
(PID.TID 0000.0001) >     0.0592
(PID.TID 0000.0001) >     0.2422
(PID.TID 0000.0001) >     0.4852
(PID.TID 0000.0001) >     0.2622
(PID.TID 0000.0001) >    -0.0378
(PID.TID 0000.0001) >    -0.2518
(PID.TID 0000.0001) >    -0.6918
(PID.TID 0000.0001) >    -1.0148
(PID.TID 0000.0001) >    -1.1048
(PID.TID 0000.0001) >    -0.9988
(PID.TID 0000.0001) >    -0.4218
(PID.TID 0000.0001) >    -0.0018
(PID.TID 0000.0001) >     0.2812
(PID.TID 0000.0001) >     0.4302
(PID.TID 0000.0001) >     0.6062
(PID.TID 0000.0001) >     0.6752
(PID.TID 0000.0001) >     0.1732
(PID.TID 0000.0001) >    -0.1758
(PID.TID 0000.0001) >    -0.6118
(PID.TID 0000.0001) >    -1.0758
(PID.TID 0000.0001) >    -1.2518
(PID.TID 0000.0001) >    -0.9708
(PID.TID 0000.0001) >    -0.7618
(PID.TID 0000.0001) >     0.0952
(PID.TID 0000.0001) >     0.3142
(PID.TID 0000.0001) >     0.7172
(PID.TID 0000.0001) >     1.0472
(PID.TID 0000.0001) >     0.5252
(PID.TID 0000.0001) >     0.0522
(PID.TID 0000.0001) >    -0.3888
(PID.TID 0000.0001) >    -0.5848
(PID.TID 0000.0001) >    -0.8598
(PID.TID 0000.0001) >    -0.9228
(PID.TID 0000.0001) >    -0.8378
(PID.TID 0000.0001) >    -0.4348
(PID.TID 0000.0001) >     0.0402
(PID.TID 0000.0001) >     0.4342
(PID.TID 0000.0001) >     0.7352
(PID.TID 0000.0001) >     0.9632
(PID.TID 0000.0001) >     0.8602
(PID.TID 0000.0001) >     0.5092
(PID.TID 0000.0001) >     0.2892
(PID.TID 0000.0001) >    -0.2408
(PID.TID 0000.0001) >    -0.7448
(PID.TID 0000.0001) >    -0.8738
(PID.TID 0000.0001) >    -0.6528
(PID.TID 0000.0001) >    -0.2038
(PID.TID 0000.0001) >     0.3092
(PID.TID 0000.0001) >     0.5212
(PID.TID 0000.0001) >     0.7532
(PID.TID 0000.0001) >     1.0612
(PID.TID 0000.0001) >     0.9722
(PID.TID 0000.0001) >     0.6242
(PID.TID 0000.0001) >     0.1832
(PID.TID 0000.0001) >    -0.1248
(PID.TID 0000.0001) >    -0.5758
(PID.TID 0000.0001) >    -0.7968
(PID.TID 0000.0001) >    -0.5058
(PID.TID 0000.0001) >    -0.0158
(PID.TID 0000.0001) >     0.3082
(PID.TID 0000.0001) >     0.7482
(PID.TID 0000.0001) >     1.0622
(PID.TID 0000.0001) >     1.3502
(PID.TID 0000.0001) >     1.2482
(PID.TID 0000.0001) >     0.8732
(PID.TID 0000.0001) >     0.2372
(PID.TID 0000.0001) >     0.0282
(PID.TID 0000.0001) >    -0.1598
(PID.TID 0000.0001) >    -0.2458
(PID.TID 0000.0001) >    -0.2478
(PID.TID 0000.0001) >     0.2942
(PID.TID 0000.0001) >     0.7142
(PID.TID 0000.0001) >     1.0932
(PID.TID 0000.0001) >     1.4212
(PID.TID 0000.0001) >     1.4302
(PID.TID 0000.0001) >     1.3282
(PID.TID 0000.0001) >     0.7382
(PID.TID 0000.0001) >  -999.0000
(PID.TID 0000.0001) >    -0.0198
(PID.TID 0000.0001) >    -0.3278
(PID.TID 0000.0001) >    -0.6478
(PID.TID 0000.0001) >    -0.3818
(PID.TID 0000.0001) >  -999.0000
(PID.TID 0000.0001) >     0.7452
(PID.TID 0000.0001) >     1.1822
(PID.TID 0000.0001) >     1.4902
(PID.TID 0000.0001) >     1.5122
(PID.TID 0000.0001) >  -999.0000
(PID.TID 0000.0001) >  -999.0000
(PID.TID 0000.0001) >     0.8362
(PID.TID 0000.0001) >     0.5392
(PID.TID 0000.0001) >     0.0162
(PID.TID 0000.0001) >  -999.0000
(PID.TID 0000.0001) >  -999.0000
(PID.TID 0000.0001) >     0.8882
(PID.TID 0000.0001) >     1.3982
(PID.TID 0000.0001) >     1.7702
(PID.TID 0000.0001) >     1.8042
(PID.TID 0000.0001) >  -999.0000
(PID.TID 0000.0001) >     1.8312
(PID.TID 0000.0001) >     1.7052
(PID.TID 0000.0001) >     1.3232
(PID.TID 0000.0001) >     1.0082
(PID.TID 0000.0001) >  -999.0000
(PID.TID 0000.0001) >  -999.0000
(PID.TID 0000.0001) >     0.5862
(PID.TID 0000.0001) >     0.9022
(PID.TID 0000.0001) >     1.4452
(PID.TID 0000.0001) >  -999.0000
(PID.TID 0000.0001) >  -999.0000
(PID.TID 0000.0001) >     2.0492
(PID.TID 0000.0001) >     1.7562
(PID.TID 0000.0001) >     1.4922
(PID.TID 0000.0001) >  -999.0000
(PID.TID 0000.0001) >  -999.0000
(PID.TID 0000.0001) >     0.4932
(PID.TID 0000.0001) >     0.4712
(PID.TID 0000.0001) >     0.4242
(PID.TID 0000.0001) >     0.7852
(PID.TID 0000.0001) >  -999.0000
(PID.TID 0000.0001) >     1.8622
(PID.TID 0000.0001) >     2.1782
(PID.TID 0000.0001) >     2.2842
(PID.TID 0000.0001) >     1.9402
(PID.TID 0000.0001) >  -999.0000
(PID.TID 0000.0001) >  -999.0000
(PID.TID 0000.0001) >     1.2932
(PID.TID 0000.0001) >     1.1872
(PID.TID 0000.0001) >     0.8952
(PID.TID 0000.0001) >  -999.0000
(PID.TID 0000.0001) >  -999.0000
(PID.TID 0000.0001) >     1.8022
(PID.TID 0000.0001) >     2.5012
(PID.TID 0000.0001) >     2.8002
(PID.TID 0000.0001) >  -999.0000
(PID.TID 0000.0001) >  -999.0000
(PID.TID 0000.0001) >  -999.0000
(PID.TID 0000.0001) >     2.2922
(PID.TID 0000.0001) >     1.7692
(PID.TID 0000.0001) >     1.3192
(PID.TID 0000.0001) >  -999.0000
(PID.TID 0000.0001) >  -999.0000
(PID.TID 0000.0001) >     1.7062
(PID.TID 0000.0001) >     2.0142
(PID.TID 0000.0001) >  -999.0000
(PID.TID 0000.0001) >  -999.0000
(PID.TID 0000.0001) >  -999.0000
(PID.TID 0000.0001) >  -999.0000
(PID.TID 0000.0001) >  -999.0000
(PID.TID 0000.0001) >  -999.0000
(PID.TID 0000.0001) >  -999.0000
(PID.TID 0000.0001) >  -999.0000
(PID.TID 0000.0001) >  -999.0000
(PID.TID 0000.0001) >  -999.0000
(PID.TID 0000.0001) >  -999.0000
(PID.TID 0000.0001) >  -999.0000
(PID.TID 0000.0001) >  -999.0000
(PID.TID 0000.0001) >  -999.0000
(PID.TID 0000.0001) >  -999.0000
(PID.TID 0000.0001) >  -999.0000
(PID.TID 0000.0001) >  -999.0000
(PID.TID 0000.0001) 
(PID.TID 0000.0001)  OPEN_COPY_DATA_FILE: opening file 20180228_ensemble_average_gmsl_ref.asc
(PID.TID 0000.0001) // =======================================================
(PID.TID 0000.0001) // Parameter file "20180228_ensemble_average_gmsl_ref.asc"
(PID.TID 0000.0001) // =======================================================
(PID.TID 0000.0001) >     -999.00000000
(PID.TID 0000.0001) >     -999.00000000
(PID.TID 0000.0001) >     -999.00000000
(PID.TID 0000.0001) >     -999.00000000
(PID.TID 0000.0001) >     -999.00000000
(PID.TID 0000.0001) >     -999.00000000
(PID.TID 0000.0001) >     -999.00000000
(PID.TID 0000.0001) >     -999.00000000
(PID.TID 0000.0001) >     -999.00000000
(PID.TID 0000.0001) >     -999.00000000
(PID.TID 0000.0001) >     -999.00000000
(PID.TID 0000.0001) >     -999.00000000
(PID.TID 0000.0001) >       -0.04147270
(PID.TID 0000.0001) >       -0.04237865
(PID.TID 0000.0001) >       -0.04097288
(PID.TID 0000.0001) >       -0.04090154
(PID.TID 0000.0001) >       -0.04112925
(PID.TID 0000.0001) >       -0.04106228
(PID.TID 0000.0001) >       -0.03907203
(PID.TID 0000.0001) >       -0.03618315
(PID.TID 0000.0001) >       -0.03250311
(PID.TID 0000.0001) >       -0.02982531
(PID.TID 0000.0001) >       -0.03084511
(PID.TID 0000.0001) >       -0.03170664
(PID.TID 0000.0001) >       -0.03477146
(PID.TID 0000.0001) >       -0.03727155
(PID.TID 0000.0001) >       -0.03671943
(PID.TID 0000.0001) >       -0.03633736
(PID.TID 0000.0001) >       -0.03893056
(PID.TID 0000.0001) >       -0.03990498
(PID.TID 0000.0001) >       -0.03901100
(PID.TID 0000.0001) >       -0.03510541
(PID.TID 0000.0001) >       -0.03136623
(PID.TID 0000.0001) >       -0.02858639
(PID.TID 0000.0001) >       -0.02847964
(PID.TID 0000.0001) >       -0.03107087
(PID.TID 0000.0001) >       -0.03199374
(PID.TID 0000.0001) >       -0.03270754
(PID.TID 0000.0001) >       -0.03356637
(PID.TID 0000.0001) >       -0.03534618
(PID.TID 0000.0001) >       -0.03607659
(PID.TID 0000.0001) >       -0.03615414
(PID.TID 0000.0001) >       -0.03647404
(PID.TID 0000.0001) >       -0.03376810
(PID.TID 0000.0001) >       -0.02786484
(PID.TID 0000.0001) >       -0.02478499
(PID.TID 0000.0001) >       -0.02488398
(PID.TID 0000.0001) >       -0.02710032
(PID.TID 0000.0001) >       -0.03092830
(PID.TID 0000.0001) >       -0.03130595
(PID.TID 0000.0001) >       -0.03171272
(PID.TID 0000.0001) >       -0.03196083
(PID.TID 0000.0001) >       -0.03180755
(PID.TID 0000.0001) >       -0.03187516
(PID.TID 0000.0001) >       -0.02950634
(PID.TID 0000.0001) >       -0.02781836
(PID.TID 0000.0001) >       -0.02399761
(PID.TID 0000.0001) >       -0.01780496
(PID.TID 0000.0001) >       -0.01720086
(PID.TID 0000.0001) >       -0.02412198
(PID.TID 0000.0001) >       -0.02897271
(PID.TID 0000.0001) >       -0.03068367
(PID.TID 0000.0001) >       -0.03020304
(PID.TID 0000.0001) >       -0.03016213
(PID.TID 0000.0001) >       -0.02944090
(PID.TID 0000.0001) >       -0.02861399
(PID.TID 0000.0001) >       -0.02572239
(PID.TID 0000.0001) >       -0.02144631
(PID.TID 0000.0001) >       -0.01591145
(PID.TID 0000.0001) >       -0.01305523
(PID.TID 0000.0001) >       -0.01522997
(PID.TID 0000.0001) >       -0.01967341
(PID.TID 0000.0001) >       -0.02261823
(PID.TID 0000.0001) >       -0.02340964
(PID.TID 0000.0001) >       -0.02382727
(PID.TID 0000.0001) >       -0.02408131
(PID.TID 0000.0001) >       -0.02546367
(PID.TID 0000.0001) >       -0.02656347
(PID.TID 0000.0001) >       -0.02483889
(PID.TID 0000.0001) >       -0.02215362
(PID.TID 0000.0001) >       -0.01922804
(PID.TID 0000.0001) >       -0.01714474
(PID.TID 0000.0001) >       -0.01734868
(PID.TID 0000.0001) >       -0.01971341
(PID.TID 0000.0001) >       -0.02252271
(PID.TID 0000.0001) >       -0.02418757
(PID.TID 0000.0001) >       -0.02435222
(PID.TID 0000.0001) >       -0.02415182
(PID.TID 0000.0001) >       -0.02626419
(PID.TID 0000.0001) >       -0.02637114
(PID.TID 0000.0001) >       -0.02377816
(PID.TID 0000.0001) >       -0.02027127
(PID.TID 0000.0001) >       -0.01640096
(PID.TID 0000.0001) >       -0.01271858
(PID.TID 0000.0001) >       -0.01329467
(PID.TID 0000.0001) >       -0.01365981
(PID.TID 0000.0001) >       -0.01571355
(PID.TID 0000.0001) >       -0.01793811
(PID.TID 0000.0001) >       -0.01976830
(PID.TID 0000.0001) >       -0.02152092
(PID.TID 0000.0001) >       -0.02392259
(PID.TID 0000.0001) >       -0.02386643
(PID.TID 0000.0001) >       -0.02168764
(PID.TID 0000.0001) >       -0.01918088
(PID.TID 0000.0001) >       -0.01430814
(PID.TID 0000.0001) >       -0.00882649
(PID.TID 0000.0001) >       -0.00901079
(PID.TID 0000.0001) >       -0.01193851
(PID.TID 0000.0001) >       -0.01312020
(PID.TID 0000.0001) >       -0.01614753
(PID.TID 0000.0001) >       -0.01635597
(PID.TID 0000.0001) >       -0.01723824
(PID.TID 0000.0001) >       -0.01849779
(PID.TID 0000.0001) >       -0.01771708
(PID.TID 0000.0001) >       -0.01381826
(PID.TID 0000.0001) >       -0.01138890
(PID.TID 0000.0001) >       -0.00656355
(PID.TID 0000.0001) >       -0.00462256
(PID.TID 0000.0001) >       -0.00466037
(PID.TID 0000.0001) >       -0.00768062
(PID.TID 0000.0001) >       -0.00979272
(PID.TID 0000.0001) >       -0.01125056
(PID.TID 0000.0001) >       -0.01299094
(PID.TID 0000.0001) >       -0.01538250
(PID.TID 0000.0001) >       -0.01580836
(PID.TID 0000.0001) >       -0.01490598
(PID.TID 0000.0001) >       -0.01094319
(PID.TID 0000.0001) >       -0.00688015
(PID.TID 0000.0001) >       -0.00454752
(PID.TID 0000.0001) >       -0.00163842
(PID.TID 0000.0001) >       -0.00120365
(PID.TID 0000.0001) >       -0.00330943
(PID.TID 0000.0001) >       -0.00578805
(PID.TID 0000.0001) >       -0.00737440
(PID.TID 0000.0001) >       -0.00914734
(PID.TID 0000.0001) >       -0.01022173
(PID.TID 0000.0001) >       -0.01066046
(PID.TID 0000.0001) >       -0.01151595
(PID.TID 0000.0001) >       -0.01057154
(PID.TID 0000.0001) >       -0.00683359
(PID.TID 0000.0001) >       -0.00140351
(PID.TID 0000.0001) >        0.00162164
(PID.TID 0000.0001) >        0.00082399
(PID.TID 0000.0001) >       -0.00158270
(PID.TID 0000.0001) >       -0.00384391
(PID.TID 0000.0001) >       -0.00644552
(PID.TID 0000.0001) >       -0.00665305
(PID.TID 0000.0001) >       -0.00722688
(PID.TID 0000.0001) >       -0.00877996
(PID.TID 0000.0001) >       -0.00827943
(PID.TID 0000.0001) >       -0.00662335
(PID.TID 0000.0001) >       -0.00434757
(PID.TID 0000.0001) >        0.00020843
(PID.TID 0000.0001) >        0.00271393
(PID.TID 0000.0001) >        0.00216869
(PID.TID 0000.0001) >        0.00091488
(PID.TID 0000.0001) >       -0.00119615
(PID.TID 0000.0001) >       -0.00197838
(PID.TID 0000.0001) >       -0.00326923
(PID.TID 0000.0001) >       -0.00493475
(PID.TID 0000.0001) >       -0.00516213
(PID.TID 0000.0001) >       -0.00463033
(PID.TID 0000.0001) >       -0.00342823
(PID.TID 0000.0001) >       -0.00036215
(PID.TID 0000.0001) >        0.00391399
(PID.TID 0000.0001) >        0.00727962
(PID.TID 0000.0001) >        0.00883675
(PID.TID 0000.0001) >        0.00708760
(PID.TID 0000.0001) >        0.00283303
(PID.TID 0000.0001) >       -0.00005775
(PID.TID 0000.0001) >       -0.00201734
(PID.TID 0000.0001) >       -0.00310832
(PID.TID 0000.0001) >       -0.00310899
(PID.TID 0000.0001) >       -0.00178046
(PID.TID 0000.0001) >       -0.00008680
(PID.TID 0000.0001) >        0.00243197
(PID.TID 0000.0001) >        0.00773053
(PID.TID 0000.0001) >        0.01033648
(PID.TID 0000.0001) >        0.00946383
(PID.TID 0000.0001) >        0.00660276
(PID.TID 0000.0001) >        0.00310204
(PID.TID 0000.0001) >        0.00066316
(PID.TID 0000.0001) >        0.00007108
(PID.TID 0000.0001) >        0.00011690
(PID.TID 0000.0001) >       -0.00081483
(PID.TID 0000.0001) >       -0.00162525
(PID.TID 0000.0001) >       -0.00148614
(PID.TID 0000.0001) >        0.00107289
(PID.TID 0000.0001) >        0.00538297
(PID.TID 0000.0001) >        0.00895235
(PID.TID 0000.0001) >        0.01047932
(PID.TID 0000.0001) >        0.00847417
(PID.TID 0000.0001) >        0.00539799
(PID.TID 0000.0001) >        0.00282624
(PID.TID 0000.0001) >        0.00163986
(PID.TID 0000.0001) >        0.00115355
(PID.TID 0000.0001) >        0.00275862
(PID.TID 0000.0001) >        0.00403121
(PID.TID 0000.0001) >        0.00519214
(PID.TID 0000.0001) >        0.00672258
(PID.TID 0000.0001) >        0.01032091
(PID.TID 0000.0001) >        0.01359020
(PID.TID 0000.0001) >        0.01467404
(PID.TID 0000.0001) >        0.01329685
(PID.TID 0000.0001) >        0.01009228
(PID.TID 0000.0001) >        0.00700790
(PID.TID 0000.0001) >        0.00642086
(PID.TID 0000.0001) >        0.00654674
(PID.TID 0000.0001) >        0.00602162
(PID.TID 0000.0001) >        0.00576382
(PID.TID 0000.0001) >        0.00719312
(PID.TID 0000.0001) >        0.01090523
(PID.TID 0000.0001) >        0.01579733
(PID.TID 0000.0001) >        0.01968412
(PID.TID 0000.0001) >        0.02046005
(PID.TID 0000.0001) >        0.01851100
(PID.TID 0000.0001) >        0.01409794
(PID.TID 0000.0001) >        0.01097860
(PID.TID 0000.0001) >        0.01031540
(PID.TID 0000.0001) >        0.00939064
(PID.TID 0000.0001) >        0.00911685
(PID.TID 0000.0001) >        0.01082404
(PID.TID 0000.0001) >        0.01224243
(PID.TID 0000.0001) >        0.01307233
(PID.TID 0000.0001) >        0.01448105
(PID.TID 0000.0001) >        0.01717605
(PID.TID 0000.0001) >        0.01748673
(PID.TID 0000.0001) >        0.01507983
(PID.TID 0000.0001) >        0.01184131
(PID.TID 0000.0001) >        0.00883508
(PID.TID 0000.0001) >        0.00667820
(PID.TID 0000.0001) >        0.00504999
(PID.TID 0000.0001) >        0.00470485
(PID.TID 0000.0001) >        0.00680446
(PID.TID 0000.0001) >        0.00886402
(PID.TID 0000.0001) >        0.01262384
(PID.TID 0000.0001) >        0.01677563
(PID.TID 0000.0001) >        0.02019074
(PID.TID 0000.0001) >        0.02063724
(PID.TID 0000.0001) >        0.02072811
(PID.TID 0000.0001) >        0.01962652
(PID.TID 0000.0001) >        0.01794813
(PID.TID 0000.0001) >        0.01633759
(PID.TID 0000.0001) >        0.01537694
(PID.TID 0000.0001) >        0.01567859
(PID.TID 0000.0001) >        0.01708372
(PID.TID 0000.0001) >        0.02037311
(PID.TID 0000.0001) >        0.02358307
(PID.TID 0000.0001) >        0.02751593
(PID.TID 0000.0001) >        0.03070397
(PID.TID 0000.0001) >        0.03126814
(PID.TID 0000.0001) >        0.03010550
(PID.TID 0000.0001) >        0.02798674
(PID.TID 0000.0001) >        0.02573000
(PID.TID 0000.0001) >        0.02398622
(PID.TID 0000.0001) >        0.02249828
(PID.TID 0000.0001) >        0.02141529
(PID.TID 0000.0001) >        0.02050706
(PID.TID 0000.0001) >        0.02144277
(PID.TID 0000.0001) >        0.02360970
(PID.TID 0000.0001) >        0.02668396
(PID.TID 0000.0001) >        0.03046590
(PID.TID 0000.0001) >        0.03212708
(PID.TID 0000.0001) >        0.03004662
(PID.TID 0000.0001) >        0.02712121
(PID.TID 0000.0001) >        0.02558150
(PID.TID 0000.0001) >        0.02507455
(PID.TID 0000.0001) >        0.02376230
(PID.TID 0000.0001) >        0.02194285
(PID.TID 0000.0001) >        0.02281129
(PID.TID 0000.0001) >        0.02530421
(PID.TID 0000.0001) >        0.02879413
(PID.TID 0000.0001) >        0.03253911
(PID.TID 0000.0001) >        0.03567068
(PID.TID 0000.0001) >        0.03528119
(PID.TID 0000.0001) >        0.03429798
(PID.TID 0000.0001) >        0.03285426
(PID.TID 0000.0001) >        0.03319703
(PID.TID 0000.0001) >        0.03280700
(PID.TID 0000.0001) >        0.03246718
(PID.TID 0000.0001) >        0.03151321
(PID.TID 0000.0001) >        0.03237005
(PID.TID 0000.0001) >        0.03467840
(PID.TID 0000.0001) >        0.03887486
(PID.TID 0000.0001) >        0.04425615
(PID.TID 0000.0001) >        0.04831862
(PID.TID 0000.0001) >        0.04858530
(PID.TID 0000.0001) >        0.04574655
(PID.TID 0000.0001) >        0.04201343
(PID.TID 0000.0001) >        0.04048565
(PID.TID 0000.0001) >        0.03938458
(PID.TID 0000.0001) >        0.03799471
(PID.TID 0000.0001) >        0.03686806
(PID.TID 0000.0001) >        0.03792774
(PID.TID 0000.0001) >        0.03851224
(PID.TID 0000.0001) >        0.04011639
(PID.TID 0000.0001) >        0.04388373
(PID.TID 0000.0001) >        0.04632144
(PID.TID 0000.0001) >        0.04848074
(PID.TID 0000.0001) >        0.04656891
(PID.TID 0000.0001) >        0.04165369
(PID.TID 0000.0001) >        0.03791665
(PID.TID 0000.0001) >        0.03815636
(PID.TID 0000.0001) >        0.03871958
(PID.TID 0000.0001) >        0.03753415
(PID.TID 0000.0001) >        0.03729899
(PID.TID 0000.0001) >        0.04003057
(PID.TID 0000.0001) >        0.04457429
(PID.TID 0000.0001) >        0.04814349
(PID.TID 0000.0001) >        0.05030210
(PID.TID 0000.0001) >        0.05236099
(PID.TID 0000.0001) >        0.05185569
(PID.TID 0000.0001) 
(PID.TID 0000.0001) etaday defined by gencost  28
(PID.TID 0000.0001) 
(PID.TID 0000.0001) // =======================================================
(PID.TID 0000.0001) // ECCO configuration >>> START <<<
(PID.TID 0000.0001) // =======================================================
(PID.TID 0000.0001) 
(PID.TID 0000.0001) gencost( 1) = siv4-conc
(PID.TID 0000.0001) -------------
(PID.TID 0000.0001)  data file = NOAA_NSIDC_DAILY_v3b_MAPPED_TO_LLC90
(PID.TID 0000.0001)   starts and ends at :
(PID.TID 0000.0001)   19920101  130000  2   6
(PID.TID 0000.0001)   19930630  190000  1   6
(PID.TID 0000.0001)   number of records =   547
(PID.TID 0000.0001)  model file = m_gbar_area
(PID.TID 0000.0001)  error file = sigma_iceconc_eccollc_coastalmask_areascaled.bin
(PID.TID 0000.0001)  gencost_flag =  2
(PID.TID 0000.0001)  gencost_outputlevel =  1
(PID.TID 0000.0001) 
(PID.TID 0000.0001) gencost( 2) = siv4-deconc
(PID.TID 0000.0001) -------------
(PID.TID 0000.0001)  data file = NOAA_NSIDC_DAILY_v3b_MAPPED_TO_LLC90
(PID.TID 0000.0001)   starts and ends at :
(PID.TID 0000.0001)   19920101  130000  2   6
(PID.TID 0000.0001)   19930630  190000  1   6
(PID.TID 0000.0001)   number of records =   547
(PID.TID 0000.0001)  model file = m_gbar_deconc
(PID.TID 0000.0001)  error file = seaiceproxy_sigma_coastalmask_areascaled.bin
(PID.TID 0000.0001)  gencost_flag =  2
(PID.TID 0000.0001)  gencost_outputlevel =  1
(PID.TID 0000.0001) 
(PID.TID 0000.0001) gencost( 3) = siv4-exconc
(PID.TID 0000.0001) -------------
(PID.TID 0000.0001)  data file = NOAA_NSIDC_DAILY_v3b_MAPPED_TO_LLC90
(PID.TID 0000.0001)   starts and ends at :
(PID.TID 0000.0001)   19920101  130000  2   6
(PID.TID 0000.0001)   19930630  190000  1   6
(PID.TID 0000.0001)   number of records =   547
(PID.TID 0000.0001)  model file = m_gbar_exconc
(PID.TID 0000.0001)  error file = seaiceproxy_sigma_coastalmask_areascaled.bin
(PID.TID 0000.0001)  gencost_flag =  2
(PID.TID 0000.0001)  gencost_outputlevel =  1
(PID.TID 0000.0001) 
(PID.TID 0000.0001) gencost( 4) = sst-reynoldsmean
(PID.TID 0000.0001) -------------
(PID.TID 0000.0001)  data file = reynolds_oiv2_r1_mar2018_simasked
(PID.TID 0000.0001)   starts and ends at :
(PID.TID 0000.0001)   19920101  130000  2   6
(PID.TID 0000.0001)   19930630  190000  1   6
(PID.TID 0000.0001)   number of records =    18
(PID.TID 0000.0001)  model file = m_sstmon
(PID.TID 0000.0001)  error file = sigma_half_areascaled.bin
(PID.TID 0000.0001)  preprocess = mean
(PID.TID 0000.0001)  gencost_flag =  1
(PID.TID 0000.0001)  gencost_outputlevel =  1
(PID.TID 0000.0001) 
(PID.TID 0000.0001) gencost( 5) = sst-reynoldsanom
(PID.TID 0000.0001) -------------
(PID.TID 0000.0001)  data file = reynolds_oiv2_r1_mar2018_simasked
(PID.TID 0000.0001)   starts and ends at :
(PID.TID 0000.0001)   19920101  130000  2   6
(PID.TID 0000.0001)   19930630  190000  1   6
(PID.TID 0000.0001)   number of records =    18
(PID.TID 0000.0001)  model file = m_sstmon
(PID.TID 0000.0001)  error file = sigma_half_areascaled.bin
(PID.TID 0000.0001)  preprocess = anom
(PID.TID 0000.0001)  gencost_flag =  1
(PID.TID 0000.0001)  gencost_outputlevel =  1
(PID.TID 0000.0001)  skip barfile write =  T
(PID.TID 0000.0001) 
(PID.TID 0000.0001) gencost( 6) = bpv4-grace
(PID.TID 0000.0001) -------------
(PID.TID 0000.0001)  data file = GRACE_jpl_rl05m_20180122
(PID.TID 0000.0001)   starts and ends at :
(PID.TID 0000.0001)   19920101  130000  2   6
(PID.TID 0000.0001)   19930630  190000  1   6
(PID.TID 0000.0001)   number of records =    18
(PID.TID 0000.0001)  model file = m_bp_nopabarmon
(PID.TID 0000.0001)  error file = GRACE_jpl_rl05m_20180122_err_areascaled
(PID.TID 0000.0001)  gencost_flag = -1
(PID.TID 0000.0001)  gencost_outputlevel =  1
(PID.TID 0000.0001) 
(PID.TID 0000.0001) gencost( 7) = thetamean
(PID.TID 0000.0001) -------------
(PID.TID 0000.0001)  data file = T_monthly_woa09_highlatnearsurface_masked
(PID.TID 0000.0001)   starts and ends at :
(PID.TID 0000.0001)   19920101  130000  2   6
(PID.TID 0000.0001)   19930630  190000  1   6
(PID.TID 0000.0001)   number of records =    18
(PID.TID 0000.0001)  model file = m_thetamon
(PID.TID 0000.0001)  error file = Theta_sigma_smoothed_method_02_masked_merged_capped_areascaled.bin
(PID.TID 0000.0001)  preprocess = mean
(PID.TID 0000.0001)  gencost_flag =  1
(PID.TID 0000.0001)  gencost_outputlevel =  1
(PID.TID 0000.0001)  gencost_pointer3d =  1
(PID.TID 0000.0001) 
(PID.TID 0000.0001) gencost( 8) = saltmean
(PID.TID 0000.0001) -------------
(PID.TID 0000.0001)  data file = S_monthly_woa09_highlatnearsurface_masked
(PID.TID 0000.0001)   starts and ends at :
(PID.TID 0000.0001)   19920101  130000  2   6
(PID.TID 0000.0001)   19930630  190000  1   6
(PID.TID 0000.0001)   number of records =    18
(PID.TID 0000.0001)  model file = m_saltmon
(PID.TID 0000.0001)  error file = Salt_sigma_smoothed_method_02_masked_merged_capped_areascaled.bin
(PID.TID 0000.0001)  preprocess = mean
(PID.TID 0000.0001)  gencost_flag =  1
(PID.TID 0000.0001)  gencost_outputlevel =  1
(PID.TID 0000.0001)  gencost_pointer3d =  2
(PID.TID 0000.0001) 
(PID.TID 0000.0001) gencost(11) = sshv4-mdt
(PID.TID 0000.0001) -------------
(PID.TID 0000.0001)  data file = mdt2_dtu17.bin
(PID.TID 0000.0001)  model file =
(PID.TID 0000.0001)  error file = mdt_dtu13_error_m_areascaled.bin
(PID.TID 0000.0001)  posprocess = smooth
(PID.TID 0000.0001)  gencost_flag = -1
(PID.TID 0000.0001)  gencost_outputlevel =  1
(PID.TID 0000.0001)  skip barfile write =  T
(PID.TID 0000.0001) 
(PID.TID 0000.0001) gencost(12) = sshv4-tp
(PID.TID 0000.0001) -------------
(PID.TID 0000.0001)  data file = RADS_TJ_mar2018
(PID.TID 0000.0001)   starts and ends at :
(PID.TID 0000.0001)   19920101       0  2   6
(PID.TID 0000.0001)   19930630  190000  1   6
(PID.TID 0000.0001)   number of records =   547
(PID.TID 0000.0001)  model file = m_eta_dynday
(PID.TID 0000.0001)  error file = slaerr_gridscale_r5_areascaled.err
(PID.TID 0000.0001)  gencost_flag = -1
(PID.TID 0000.0001)  gencost_outputlevel =  1
(PID.TID 0000.0001) 
(PID.TID 0000.0001) gencost(13) = sshv4-ers
(PID.TID 0000.0001) -------------
(PID.TID 0000.0001)  data file = RADS_ERS_ENV_SA_mar2018
(PID.TID 0000.0001)   starts and ends at :
(PID.TID 0000.0001)   19920101       0  2   6
(PID.TID 0000.0001)   19930630  190000  1   6
(PID.TID 0000.0001)   number of records =   547
(PID.TID 0000.0001)  model file =
(PID.TID 0000.0001)  error file = slaerr_gridscale_r5_areascaled.err
(PID.TID 0000.0001)  gencost_flag = -1
(PID.TID 0000.0001)  gencost_outputlevel =  1
(PID.TID 0000.0001)  skip barfile write =  T
(PID.TID 0000.0001) 
(PID.TID 0000.0001) gencost(14) = sshv4-gfo
(PID.TID 0000.0001) -------------
(PID.TID 0000.0001)  data file = RADS_GFO_C2_mar2018
(PID.TID 0000.0001)   starts and ends at :
(PID.TID 0000.0001)   19920101       0  2   6
(PID.TID 0000.0001)   19930630  190000  1   6
(PID.TID 0000.0001)   number of records =   547
(PID.TID 0000.0001)  model file =
(PID.TID 0000.0001)  error file = slaerr_gridscale_r5_areascaled.err
(PID.TID 0000.0001)  gencost_flag = -1
(PID.TID 0000.0001)  gencost_outputlevel =  1
(PID.TID 0000.0001)  skip barfile write =  T
(PID.TID 0000.0001) 
(PID.TID 0000.0001) gencost(15) = sshv4-lsc
(PID.TID 0000.0001) -------------
(PID.TID 0000.0001)  model file =
(PID.TID 0000.0001)  error file = slaerr_largescale_r5_areascaled.err
(PID.TID 0000.0001)  posprocess = smooth
(PID.TID 0000.0001)  gencost_flag = -1
(PID.TID 0000.0001)  gencost_outputlevel =  1
(PID.TID 0000.0001)  skip barfile write =  T
(PID.TID 0000.0001) 
(PID.TID 0000.0001) gencost(17) = thetaanom
(PID.TID 0000.0001) -------------
(PID.TID 0000.0001)  data file = T_monthly_woa09_highlatnearsurface_masked
(PID.TID 0000.0001)   starts and ends at :
(PID.TID 0000.0001)   19920101  130000  2   6
(PID.TID 0000.0001)   19930630  190000  1   6
(PID.TID 0000.0001)   number of records =    18
(PID.TID 0000.0001)  model file = m_thetamon
(PID.TID 0000.0001)  error file = Theta_sigma_smoothed_method_02_masked_merged_capped_areascaled.bin
(PID.TID 0000.0001)  preprocess = clim
(PID.TID 0000.0001)  preprocess = anom
(PID.TID 0000.0001)  gencost_flag =  1
(PID.TID 0000.0001)  gencost_outputlevel =  1
(PID.TID 0000.0001)  gencost_pointer3d =  3
(PID.TID 0000.0001)  skip barfile write =  T
(PID.TID 0000.0001) 
(PID.TID 0000.0001) gencost(18) = saltanom
(PID.TID 0000.0001) -------------
(PID.TID 0000.0001)  data file = S_monthly_woa09_highlatnearsurface_masked
(PID.TID 0000.0001)   starts and ends at :
(PID.TID 0000.0001)   19920101  130000  2   6
(PID.TID 0000.0001)   19930630  190000  1   6
(PID.TID 0000.0001)   number of records =    18
(PID.TID 0000.0001)  model file = m_saltmon
(PID.TID 0000.0001)  error file = Salt_sigma_smoothed_method_02_masked_merged_capped_areascaled.bin
(PID.TID 0000.0001)  preprocess = clim
(PID.TID 0000.0001)  preprocess = anom
(PID.TID 0000.0001)  gencost_flag =  1
(PID.TID 0000.0001)  gencost_outputlevel =  1
(PID.TID 0000.0001)  gencost_pointer3d =  4
(PID.TID 0000.0001)  skip barfile write =  T
(PID.TID 0000.0001) 
(PID.TID 0000.0001) gencost(19) = sss_AQanom
(PID.TID 0000.0001) -------------
(PID.TID 0000.0001)  data file = monthlyL3v5_20180129
(PID.TID 0000.0001)   starts and ends at :
(PID.TID 0000.0001)   19920101  130000  2   6
(PID.TID 0000.0001)   19930630  190000  1   6
(PID.TID 0000.0001)   number of records =    18
(PID.TID 0000.0001)  model file = m_sssmon
(PID.TID 0000.0001)  error file = errStdAQ_v3_llc_090_floored_areascaled
(PID.TID 0000.0001)  preprocess = anom
(PID.TID 0000.0001)  gencost_flag =  1
(PID.TID 0000.0001)  gencost_outputlevel =  1
(PID.TID 0000.0001) 
(PID.TID 0000.0001) gencost(20) = sss_AQmean
(PID.TID 0000.0001) -------------
(PID.TID 0000.0001)  data file = monthlyL3v5_20180129
(PID.TID 0000.0001)   starts and ends at :
(PID.TID 0000.0001)   19920101  130000  2   6
(PID.TID 0000.0001)   19930630  190000  1   6
(PID.TID 0000.0001)   number of records =    18
(PID.TID 0000.0001)  model file = m_sssmon
(PID.TID 0000.0001)  error file = biasStdAQ_v3_llc_090_floored_areascaled
(PID.TID 0000.0001)  preprocess = mean
(PID.TID 0000.0001)  gencost_flag =  1
(PID.TID 0000.0001)  gencost_outputlevel =  1
(PID.TID 0000.0001)  skip barfile write =  T
(PID.TID 0000.0001) 
(PID.TID 0000.0001) gencost(21) = gmbp
(PID.TID 0000.0001) -------------
(PID.TID 0000.0001)  data file = GRACE_jpl_rl05m_20180122_SpatialMean.asc
(PID.TID 0000.0001)   starts and ends at :
(PID.TID 0000.0001)   19920101  130000  2   6
(PID.TID 0000.0001)   19930630  190000  1   6
(PID.TID 0000.0001)   number of records =    18
(PID.TID 0000.0001)  model file = m_bp_nopabarmon
(PID.TID 0000.0001)  error file =
(PID.TID 0000.0001)  gencost_flag =  1
(PID.TID 0000.0001)  gencost_outputlevel =  1
(PID.TID 0000.0001)  skip barfile write =  T
(PID.TID 0000.0001) 
(PID.TID 0000.0001) gencost(22) = gmsl
(PID.TID 0000.0001) -------------
(PID.TID 0000.0001)  data file = 20180228_ensemble_average_gmsl_ref.asc
(PID.TID 0000.0001)   starts and ends at :
(PID.TID 0000.0001)   19920101  130000  2   6
(PID.TID 0000.0001)   19930630  190000  1   6
(PID.TID 0000.0001)   number of records =    18
(PID.TID 0000.0001)  model file = m_eta_dynmon
(PID.TID 0000.0001)  error file =
(PID.TID 0000.0001)  gencost_flag =  1
(PID.TID 0000.0001)  gencost_outputlevel =  1
(PID.TID 0000.0001) 
(PID.TID 0000.0001) gencost(27) = RADS_TJ_mar2018
(PID.TID 0000.0001) -------------
(PID.TID 0000.0001)  data file = RADS_TJ_mar2018
(PID.TID 0000.0001)   starts and ends at :
(PID.TID 0000.0001)   19920101       0  2   6
(PID.TID 0000.0001)   19930630  190000  1   6
(PID.TID 0000.0001)   number of records =   547
(PID.TID 0000.0001)  model file = m_etaday
(PID.TID 0000.0001)  error file = slaerr_gridscale_r5_areascaled.err
(PID.TID 0000.0001)  gencost_flag =  1
(PID.TID 0000.0001)  gencost_outputlevel =  1
(PID.TID 0000.0001) 
(PID.TID 0000.0001) gencost(28) = 20180228_ensemble_average_gmsl_ref.asc
(PID.TID 0000.0001) -------------
(PID.TID 0000.0001)  data file = 20180228_ensemble_average_gmsl_ref.asc
(PID.TID 0000.0001)   starts and ends at :
(PID.TID 0000.0001)   19920101  130000  2   6
(PID.TID 0000.0001)   19930630  190000  1   6
(PID.TID 0000.0001)   number of records =    18
(PID.TID 0000.0001)  model file = m_etamon
(PID.TID 0000.0001)  error file =
(PID.TID 0000.0001)  gencost_flag =  1
(PID.TID 0000.0001)  gencost_outputlevel =  1
(PID.TID 0000.0001) 
(PID.TID 0000.0001) gencost(29) = GRACE_jpl_rl05m_20180122_SpatialMean.asc
(PID.TID 0000.0001) -------------
(PID.TID 0000.0001)  data file = GRACE_jpl_rl05m_20180122_SpatialMean.asc
(PID.TID 0000.0001)   starts and ends at :
(PID.TID 0000.0001)   19920101  130000  2   6
(PID.TID 0000.0001)   19930630  190000  1   6
(PID.TID 0000.0001)   number of records =    18
(PID.TID 0000.0001)  model file = m_bpmon
(PID.TID 0000.0001)  error file =
(PID.TID 0000.0001)  gencost_flag =  1
(PID.TID 0000.0001)  gencost_outputlevel =  1
(PID.TID 0000.0001) 
(PID.TID 0000.0001) gencost(30) = GRACE_fake_daily
(PID.TID 0000.0001) -------------
(PID.TID 0000.0001)  data file = GRACE_fake_daily
(PID.TID 0000.0001)   starts and ends at :
(PID.TID 0000.0001)   19920101  130000  2   6
(PID.TID 0000.0001)   19930630  190000  1   6
(PID.TID 0000.0001)   number of records =   547
(PID.TID 0000.0001)  model file = m_bpday
(PID.TID 0000.0001)  error file = GRACE_jpl_rl05m_20180122_err_areascaled
(PID.TID 0000.0001)  gencost_flag =  1
(PID.TID 0000.0001)  gencost_outputlevel =  1
(PID.TID 0000.0001) 
(PID.TID 0000.0001) gencost(31) = GRACE_fake_daily
(PID.TID 0000.0001) -------------
(PID.TID 0000.0001)  data file = GRACE_fake_daily
(PID.TID 0000.0001)   starts and ends at :
(PID.TID 0000.0001)   19920101  130000  2   6
(PID.TID 0000.0001)   19930630  190000  1   6
(PID.TID 0000.0001)   number of records =   547
(PID.TID 0000.0001)  model file = m_bp_nopabarday
(PID.TID 0000.0001)  error file = GRACE_jpl_rl05m_20180122_err_areascaled
(PID.TID 0000.0001)  gencost_flag =  1
(PID.TID 0000.0001)  gencost_outputlevel =  1
(PID.TID 0000.0001) 
(PID.TID 0000.0001) 
(PID.TID 0000.0001) 
(PID.TID 0000.0001) // =======================================================
(PID.TID 0000.0001) // ECCO configuration  >>> END <<<
(PID.TID 0000.0001) // =======================================================
(PID.TID 0000.0001) 
(PID.TID 0000.0001) 
(PID.TID 0000.0001) // =======================================================
(PID.TID 0000.0001) // insitu profiles model sampling >>> START <<<
(PID.TID 0000.0001) // =======================================================
(PID.TID 0000.0001) 
(PID.TID 0000.0001) 
(PID.TID 0000.0001)   profilesDir profiles/
(PID.TID 0000.0001)   profilesDoGenGrid      T
(PID.TID 0000.0001)   profilesDoNcOutput     F
(PID.TID 0000.0001) 
(PID.TID 0000.0001) 
(PID.TID 0000.0001) profiles file #  1 is ARGO_20190131_95to13
(PID.TID 0000.0001)   current tile is bi,bj                      =   1,   1
(PID.TID 0000.0001)   # of depth levels in file                  =       55
(PID.TID 0000.0001)   # of profiles in file                      =  1069993
(PID.TID 0000.0001)   # of profiles with erroneous HHMMSS values =        0
(PID.TID 0000.0001)   # of profiles within tile and time period  =        0
(PID.TID 0000.0001)   variable #  1 is            prof_T and theta
(PID.TID 0000.0001)   variable #  2 is            prof_S and salt
(PID.TID 0000.0001) 
(PID.TID 0000.0001) profiles file #  2 is ARGO_20190131_14to17
(PID.TID 0000.0001)   current tile is bi,bj                      =   1,   1
(PID.TID 0000.0001)   # of depth levels in file                  =       55
(PID.TID 0000.0001)   # of profiles in file                      =   616384
(PID.TID 0000.0001)   # of profiles with erroneous HHMMSS values =        0
(PID.TID 0000.0001)   # of profiles within tile and time period  =        0
(PID.TID 0000.0001)   variable #  1 is            prof_T and theta
(PID.TID 0000.0001)   variable #  2 is            prof_S and salt
(PID.TID 0000.0001) 
(PID.TID 0000.0001) profiles file #  3 is APB_20190131_97to04
(PID.TID 0000.0001)   current tile is bi,bj                      =   1,   1
(PID.TID 0000.0001)   # of depth levels in file                  =       55
(PID.TID 0000.0001)   # of profiles in file                      =    28422
(PID.TID 0000.0001)   # of profiles with erroneous HHMMSS values =        0
(PID.TID 0000.0001)   # of profiles within tile and time period  =        0
(PID.TID 0000.0001)   variable #  1 is            prof_T and theta
(PID.TID 0000.0001)   variable #  2 is            prof_S and salt
(PID.TID 0000.0001) 
(PID.TID 0000.0001) profiles file #  4 is CTD_20190131_92to05
(PID.TID 0000.0001)   current tile is bi,bj                      =   1,   1
(PID.TID 0000.0001)   # of depth levels in file                  =      102
(PID.TID 0000.0001)   # of profiles in file                      =   321615
(PID.TID 0000.0001)   # of profiles with erroneous HHMMSS values =        0
(PID.TID 0000.0001)   # of profiles within tile and time period  =       13
(PID.TID 0000.0001)   variable #  1 is            prof_T and theta
(PID.TID 0000.0001)   variable #  2 is            prof_S and salt
(PID.TID 0000.0001) 
(PID.TID 0000.0001) profiles file #  5 is GLD_20190131_02to11
(PID.TID 0000.0001)   current tile is bi,bj                      =   1,   1
(PID.TID 0000.0001)   # of depth levels in file                  =       98
(PID.TID 0000.0001)   # of profiles in file                      =    18190
(PID.TID 0000.0001)   # of profiles with erroneous HHMMSS values =        0
(PID.TID 0000.0001)   # of profiles within tile and time period  =        0
(PID.TID 0000.0001)   variable #  1 is            prof_T and theta
(PID.TID 0000.0001)   variable #  2 is            prof_S and salt
(PID.TID 0000.0001) 
(PID.TID 0000.0001) profiles file #  6 is GLD_20190131_12to13
(PID.TID 0000.0001)   current tile is bi,bj                      =   1,   1
(PID.TID 0000.0001)   # of depth levels in file                  =       98
(PID.TID 0000.0001)   # of profiles in file                      =     5507
(PID.TID 0000.0001)   # of profiles with erroneous HHMMSS values =        0
(PID.TID 0000.0001)   # of profiles within tile and time period  =        0
(PID.TID 0000.0001)   variable #  1 is            prof_T and theta
(PID.TID 0000.0001)   variable #  2 is            prof_S and salt
(PID.TID 0000.0001) 
(PID.TID 0000.0001) profiles file #  7 is GLD_20190131_14to15
(PID.TID 0000.0001)   current tile is bi,bj                      =   1,   1
(PID.TID 0000.0001)   # of depth levels in file                  =       98
(PID.TID 0000.0001)   # of profiles in file                      =    14876
(PID.TID 0000.0001)   # of profiles with erroneous HHMMSS values =        0
(PID.TID 0000.0001)   # of profiles within tile and time period  =        0
(PID.TID 0000.0001)   variable #  1 is            prof_T and theta
(PID.TID 0000.0001)   variable #  2 is            prof_S and salt
(PID.TID 0000.0001) 
(PID.TID 0000.0001) profiles file #  8 is MRB_20190131_92to03
(PID.TID 0000.0001)   current tile is bi,bj                      =   1,   1
(PID.TID 0000.0001)   # of depth levels in file                  =       42
(PID.TID 0000.0001)   # of profiles in file                      =   118013
(PID.TID 0000.0001)   # of profiles with erroneous HHMMSS values =        0
(PID.TID 0000.0001)   # of profiles within tile and time period  =        0
(PID.TID 0000.0001)   variable #  1 is            prof_T and theta
(PID.TID 0000.0001)   variable #  2 is            prof_S and salt
(PID.TID 0000.0001) 
(PID.TID 0000.0001) profiles file #  9 is MRB_20190131_04to04
(PID.TID 0000.0001)   current tile is bi,bj                      =   1,   1
(PID.TID 0000.0001)   # of depth levels in file                  =       42
(PID.TID 0000.0001)   # of profiles in file                      =    20634
(PID.TID 0000.0001)   # of profiles with erroneous HHMMSS values =        0
(PID.TID 0000.0001)   # of profiles within tile and time period  =        0
(PID.TID 0000.0001)   variable #  1 is            prof_T and theta
(PID.TID 0000.0001)   variable #  2 is            prof_S and salt
(PID.TID 0000.0001) 
(PID.TID 0000.0001) profiles file # 10 is XBT_20190131_92to05
(PID.TID 0000.0001)   current tile is bi,bj                      =   1,   1
(PID.TID 0000.0001)   # of depth levels in file                  =       77
(PID.TID 0000.0001)   # of profiles in file                      =   631537
(PID.TID 0000.0001)   # of profiles with erroneous HHMMSS values =        0
(PID.TID 0000.0001)   # of profiles within tile and time period  =       14
(PID.TID 0000.0001)   variable #  1 is            prof_T and theta
(PID.TID 0000.0001)   variable #  2 is            prof_S and salt
(PID.TID 0000.0001) 
(PID.TID 0000.0001) profiles file # 11 is XBT_20190131_06to17
(PID.TID 0000.0001)   current tile is bi,bj                      =   1,   1
(PID.TID 0000.0001)   # of depth levels in file                  =       77
(PID.TID 0000.0001)   # of profiles in file                      =   219966
(PID.TID 0000.0001)   # of profiles with erroneous HHMMSS values =        0
(PID.TID 0000.0001)   # of profiles within tile and time period  =        0
(PID.TID 0000.0001)   variable #  1 is            prof_T and theta
(PID.TID 0000.0001)   variable #  2 is            prof_S and salt
(PID.TID 0000.0001) 
(PID.TID 0000.0001) profiles file # 12 is ITP_20190131_04to13
(PID.TID 0000.0001)   current tile is bi,bj                      =   1,   1
(PID.TID 0000.0001)   # of depth levels in file                  =       61
(PID.TID 0000.0001)   # of profiles in file                      =    15843
(PID.TID 0000.0001)   # of profiles with erroneous HHMMSS values =        0
(PID.TID 0000.0001)   # of profiles within tile and time period  =        0
(PID.TID 0000.0001)   variable #  1 is            prof_T and theta
(PID.TID 0000.0001)   variable #  2 is            prof_S and salt
(PID.TID 0000.0001) 
(PID.TID 0000.0001) profiles file # 18 is GLD_20190131_16to17
(PID.TID 0000.0001)   current tile is bi,bj                      =   1,   1
(PID.TID 0000.0001)   # of depth levels in file                  =       98
(PID.TID 0000.0001)   # of profiles in file                      =    13165
(PID.TID 0000.0001)   # of profiles with erroneous HHMMSS values =        0
(PID.TID 0000.0001)   # of profiles within tile and time period  =        0
(PID.TID 0000.0001)   variable #  1 is            prof_T and theta
(PID.TID 0000.0001)   variable #  2 is            prof_S and salt
(PID.TID 0000.0001) 
(PID.TID 0000.0001) profiles file # 19 is GOSHIP_20190131_92to17
(PID.TID 0000.0001)   current tile is bi,bj                      =   1,   1
(PID.TID 0000.0001)   # of depth levels in file                  =       94
(PID.TID 0000.0001)   # of profiles in file                      =    26976
(PID.TID 0000.0001)   # of profiles with erroneous HHMMSS values =        0
(PID.TID 0000.0001)   # of profiles within tile and time period  =        4
(PID.TID 0000.0001)   variable #  1 is            prof_T and theta
(PID.TID 0000.0001)   variable #  2 is            prof_S and salt
(PID.TID 0000.0001) 
(PID.TID 0000.0001) profiles file # 20 is MRB_20190131_05to05
(PID.TID 0000.0001)   current tile is bi,bj                      =   1,   1
(PID.TID 0000.0001)   # of depth levels in file                  =       42
(PID.TID 0000.0001)   # of profiles in file                      =    22143
(PID.TID 0000.0001)   # of profiles with erroneous HHMMSS values =        0
(PID.TID 0000.0001)   # of profiles within tile and time period  =        0
(PID.TID 0000.0001)   variable #  1 is            prof_T and theta
(PID.TID 0000.0001)   variable #  2 is            prof_S and salt
(PID.TID 0000.0001) 
(PID.TID 0000.0001) profiles file # 21 is MRB_20190131_06to17
(PID.TID 0000.0001)   current tile is bi,bj                      =   1,   1
(PID.TID 0000.0001)   # of depth levels in file                  =       42
(PID.TID 0000.0001)   # of profiles in file                      =   332880
(PID.TID 0000.0001)   # of profiles with erroneous HHMMSS values =        0
(PID.TID 0000.0001)   # of profiles within tile and time period  =        0
(PID.TID 0000.0001)   variable #  1 is            prof_T and theta
(PID.TID 0000.0001)   variable #  2 is            prof_S and salt
(PID.TID 0000.0001) 
(PID.TID 0000.0001) profiles file # 22 is CTD_20190131_06to17
(PID.TID 0000.0001)   current tile is bi,bj                      =   1,   1
(PID.TID 0000.0001)   # of depth levels in file                  =      102
(PID.TID 0000.0001)   # of profiles in file                      =   239089
(PID.TID 0000.0001)   # of profiles with erroneous HHMMSS values =        0
(PID.TID 0000.0001)   # of profiles within tile and time period  =        0
(PID.TID 0000.0001)   variable #  1 is            prof_T and theta
(PID.TID 0000.0001)   variable #  2 is            prof_S and salt
(PID.TID 0000.0001) 
(PID.TID 0000.0001) profiles file # 23 is ITP_20190131_14to17
(PID.TID 0000.0001)   current tile is bi,bj                      =   1,   1
(PID.TID 0000.0001)   # of depth levels in file                  =       61
(PID.TID 0000.0001)   # of profiles in file                      =     6421
(PID.TID 0000.0001)   # of profiles with erroneous HHMMSS values =        0
(PID.TID 0000.0001)   # of profiles within tile and time period  =        0
(PID.TID 0000.0001)   variable #  1 is            prof_T and theta
(PID.TID 0000.0001)   variable #  2 is            prof_S and salt
(PID.TID 0000.0001) 
(PID.TID 0000.0001) profiles file # 24 is APB_20190131_05to05
(PID.TID 0000.0001)   current tile is bi,bj                      =   1,   1
(PID.TID 0000.0001)   # of depth levels in file                  =       55
(PID.TID 0000.0001)   # of profiles in file                      =    23163
(PID.TID 0000.0001)   # of profiles with erroneous HHMMSS values =        0
(PID.TID 0000.0001)   # of profiles within tile and time period  =        0
(PID.TID 0000.0001)   variable #  1 is            prof_T and theta
(PID.TID 0000.0001)   variable #  2 is            prof_S and salt
(PID.TID 0000.0001) 
(PID.TID 0000.0001) profiles file # 25 is APB_20190131_06to06
(PID.TID 0000.0001)   current tile is bi,bj                      =   1,   1
(PID.TID 0000.0001)   # of depth levels in file                  =       55
(PID.TID 0000.0001)   # of profiles in file                      =     8594
(PID.TID 0000.0001)   # of profiles with erroneous HHMMSS values =        0
(PID.TID 0000.0001)   # of profiles within tile and time period  =        0
(PID.TID 0000.0001)   variable #  1 is            prof_T and theta
(PID.TID 0000.0001)   variable #  2 is            prof_S and salt
(PID.TID 0000.0001) 
(PID.TID 0000.0001) profiles file # 26 is APB_20190131_07to07
(PID.TID 0000.0001)   current tile is bi,bj                      =   1,   1
(PID.TID 0000.0001)   # of depth levels in file                  =       55
(PID.TID 0000.0001)   # of profiles in file                      =    24983
(PID.TID 0000.0001)   # of profiles with erroneous HHMMSS values =        0
(PID.TID 0000.0001)   # of profiles within tile and time period  =        0
(PID.TID 0000.0001)   variable #  1 is            prof_T and theta
(PID.TID 0000.0001)   variable #  2 is            prof_S and salt
(PID.TID 0000.0001) 
(PID.TID 0000.0001) profiles file # 27 is APB_20190131_08to09
(PID.TID 0000.0001)   current tile is bi,bj                      =   1,   1
(PID.TID 0000.0001)   # of depth levels in file                  =       55
(PID.TID 0000.0001)   # of profiles in file                      =    81905
(PID.TID 0000.0001)   # of profiles with erroneous HHMMSS values =        0
(PID.TID 0000.0001)   # of profiles within tile and time period  =        0
(PID.TID 0000.0001)   variable #  1 is            prof_T and theta
(PID.TID 0000.0001)   variable #  2 is            prof_S and salt
(PID.TID 0000.0001) 
(PID.TID 0000.0001) profiles file # 28 is APB_20190131_10to17
(PID.TID 0000.0001)   current tile is bi,bj                      =   1,   1
(PID.TID 0000.0001)   # of depth levels in file                  =       55
(PID.TID 0000.0001)   # of profiles in file                      =   202245
(PID.TID 0000.0001)   # of profiles with erroneous HHMMSS values =        0
(PID.TID 0000.0001)   # of profiles within tile and time period  =        0
(PID.TID 0000.0001)   variable #  1 is            prof_T and theta
(PID.TID 0000.0001)   variable #  2 is            prof_S and salt
(PID.TID 0000.0001) 
(PID.TID 0000.0001) profiles file # 29 is CCHDO_20190131_92to17
(PID.TID 0000.0001)   current tile is bi,bj                      =   1,   1
(PID.TID 0000.0001)   # of depth levels in file                  =       94
(PID.TID 0000.0001)   # of profiles in file                      =    26976
(PID.TID 0000.0001)   # of profiles with erroneous HHMMSS values =        0
(PID.TID 0000.0001)   # of profiles within tile and time period  =        4
(PID.TID 0000.0001)   variable #  1 is            prof_T and theta
(PID.TID 0000.0001)   variable #  2 is            prof_S and salt
(PID.TID 0000.0001) NLEVELCOMB =    139
(PID.TID 0000.0001) 
(PID.TID 0000.0001) // =======================================================
(PID.TID 0000.0001) // insitu profiles model sampling >>> END <<<
(PID.TID 0000.0001) // =======================================================
(PID.TID 0000.0001) 
(PID.TID 0000.0001) // =======================================================
(PID.TID 0000.0001) // Seaice configuration (SEAICE_PARM01) >>> START <<<
(PID.TID 0000.0001) // =======================================================
(PID.TID 0000.0001) 
(PID.TID 0000.0001)    Seaice time stepping configuration   > START <
(PID.TID 0000.0001)    ----------------------------------------------
(PID.TID 0000.0001) SEAICE_deltaTtherm= /* thermodynamic timestep */
(PID.TID 0000.0001)                 3.600000000000000E+03
(PID.TID 0000.0001)     ;
(PID.TID 0000.0001) SEAICE_deltaTdyn  = /* dynamic timestep */
(PID.TID 0000.0001)                 3.600000000000000E+03
(PID.TID 0000.0001)     ;
(PID.TID 0000.0001) SEAICE_deltaTevp  = /* EVP timestep */
(PID.TID 0000.0001)                 1.234567000000000E+05
(PID.TID 0000.0001)     ;
(PID.TID 0000.0001) SEAICEuseBDF2  = /* use backw. differencing for mom. eq. */
(PID.TID 0000.0001)                   F
(PID.TID 0000.0001)     ;
(PID.TID 0000.0001) SEAICErestoreUnderIce  = /* restore T and S under ice */
(PID.TID 0000.0001)                   T
(PID.TID 0000.0001)     ;
(PID.TID 0000.0001) 
(PID.TID 0000.0001)    Seaice dynamics configuration   > START <
(PID.TID 0000.0001)    ------------------------------------------
(PID.TID 0000.0001) SEAICEuseDYNAMICS = /* use dynamics */
(PID.TID 0000.0001)                   T
(PID.TID 0000.0001)     ;
(PID.TID 0000.0001) model grid type   = /* type of sea ice model grid */
(PID.TID 0000.0001)               'C-GRID'
(PID.TID 0000.0001)     ;
(PID.TID 0000.0001) SEAICEuseStrImpCpl = /* use strongly implicit coupling */
(PID.TID 0000.0001)                   F
(PID.TID 0000.0001)     ;
(PID.TID 0000.0001) SEAICEusePicardAsPrecon = /* Picard as preconditioner */
(PID.TID 0000.0001)                   F
(PID.TID 0000.0001)     ;
(PID.TID 0000.0001) SEAICEuseLSR      = /* use default Picard-LSR solver */
(PID.TID 0000.0001)                   T
(PID.TID 0000.0001)     ;
(PID.TID 0000.0001) SEAICEuseKrylov   = /* use Picard-Krylov solver */
(PID.TID 0000.0001)                   F
(PID.TID 0000.0001)     ;
(PID.TID 0000.0001) SEAICEuseEVP      = /* use EVP solver rather than LSR */
(PID.TID 0000.0001)                   F
(PID.TID 0000.0001)     ;
(PID.TID 0000.0001) SEAICEuseJFNK     = /* use JFNK solver */
(PID.TID 0000.0001)                   F
(PID.TID 0000.0001)     ;
(PID.TID 0000.0001) SEAICEuseFREEDRIFT = /* use free drift solution */
(PID.TID 0000.0001)                   F
(PID.TID 0000.0001)     ;
(PID.TID 0000.0001) OCEAN_drag        = /* air-ocean drag coefficient */
(PID.TID 0000.0001)                 1.000000000000000E-03
(PID.TID 0000.0001)     ;
(PID.TID 0000.0001) SEAICE_drag       = /* air-ice drag coefficient */
(PID.TID 0000.0001)                 1.000000000000000E-03
(PID.TID 0000.0001)     ;
(PID.TID 0000.0001) SEAICE_drag_south      = /* Southern Ocean SEAICE_drag */
(PID.TID 0000.0001)                 1.000000000000000E-03
(PID.TID 0000.0001)     ;
(PID.TID 0000.0001) SEAICE_waterDrag  = /* water-ice drag * density */
(PID.TID 0000.0001)                 5.500000000000000E+00
(PID.TID 0000.0001)     ;
(PID.TID 0000.0001) SEAICE_waterDrag_south = /* Southern Ocean waterDrag */
(PID.TID 0000.0001)                 5.500000000000000E+00
(PID.TID 0000.0001)     ;
(PID.TID 0000.0001) SEAICEuseTilt     = /* include surface tilt in dyna. */
(PID.TID 0000.0001)                   F
(PID.TID 0000.0001)     ;
(PID.TID 0000.0001) SEAICEuseTEM      = /* use truncated ellipse rheology */
(PID.TID 0000.0001)                   F
(PID.TID 0000.0001)     ;
(PID.TID 0000.0001) SEAICE_strength   = /* sea-ice strength Pstar */
(PID.TID 0000.0001)                 2.250000000000000E+04
(PID.TID 0000.0001)     ;
(PID.TID 0000.0001) SEAICE_cStar      = /* sea-ice strength parameter cStar */
(PID.TID 0000.0001)                 2.000000000000000E+01
(PID.TID 0000.0001)     ;
(PID.TID 0000.0001) SEAICEpressReplFac= /* press. replacement method factor */
(PID.TID 0000.0001)                 1.000000000000000E+00
(PID.TID 0000.0001)     ;
(PID.TID 0000.0001) SEAICE_tensilFac  = /* sea-ice tensile strength factor */
(PID.TID 0000.0001)                 0.000000000000000E+00
(PID.TID 0000.0001)     ;
(PID.TID 0000.0001) SEAICE_tensilDepth= /* crit. depth for tensile strength */
(PID.TID 0000.0001)                 0.000000000000000E+00
(PID.TID 0000.0001)     ;
(PID.TID 0000.0001) SEAICEpresH0   = /* sea-ice strength Heff threshold */
(PID.TID 0000.0001)                 2.000000000000000E+00
(PID.TID 0000.0001)     ;
(PID.TID 0000.0001) SEAICEpresPow0 = /* exponent for Heff<SEAICEpresH0 */
(PID.TID 0000.0001)                       1
(PID.TID 0000.0001)     ;
(PID.TID 0000.0001) SEAICEpresPow1 = /* exponent for Heff>SEAICEpresH0 */
(PID.TID 0000.0001)                       1
(PID.TID 0000.0001)     ;
(PID.TID 0000.0001) SEAICEetaZmethod = /* method computing eta at Z-point */
(PID.TID 0000.0001)                       0
(PID.TID 0000.0001)     ;
(PID.TID 0000.0001) SEAICE_zetaMin    = /* lower bound for viscosity */
(PID.TID 0000.0001)                 0.000000000000000E+00
(PID.TID 0000.0001)     ;
(PID.TID 0000.0001) SEAICE_eccen    = /* elliptical yield curve eccent */
(PID.TID 0000.0001)                 2.000000000000000E+00
(PID.TID 0000.0001)     ;
(PID.TID 0000.0001) SEAICEstressFactor    = /* wind stress scaling factor */
(PID.TID 0000.0001)                 1.000000000000000E+00
(PID.TID 0000.0001)     ;
(PID.TID 0000.0001) SEAICE_airTurnAngle    = /* air-ice turning angle */
(PID.TID 0000.0001)                 0.000000000000000E+00
(PID.TID 0000.0001)     ;
(PID.TID 0000.0001) SEAICE_waterTurnAngle  = /* ice-water turning angle */
(PID.TID 0000.0001)                 0.000000000000000E+00
(PID.TID 0000.0001)     ;
(PID.TID 0000.0001) SEAICEuseMetricTerms = /* use metric terms */
(PID.TID 0000.0001)                   T
(PID.TID 0000.0001)     ;
(PID.TID 0000.0001) SEAICE_no_slip    = /* no slip boundary conditions */
(PID.TID 0000.0001)                   T
(PID.TID 0000.0001)     ;
(PID.TID 0000.0001) SEAICE_clipVeloctities = /* impose max. vels. */
(PID.TID 0000.0001)                   T
(PID.TID 0000.0001)     ;
(PID.TID 0000.0001) useHB87stressCoupling  = /* altern. ice-ocean stress */
(PID.TID 0000.0001)                   F
(PID.TID 0000.0001)     ;
(PID.TID 0000.0001) SEAICEscaleSurfStress  = /* scale atm. and ocean-surface stress with AREA */
(PID.TID 0000.0001)                   F
(PID.TID 0000.0001)     ;
(PID.TID 0000.0001) SEAICE_maskRHS    = /* mask RHS of solver */
(PID.TID 0000.0001)                   F
(PID.TID 0000.0001)     ;
(PID.TID 0000.0001) SEAICEaddSnowMass = /* add snow mass to seaiceMassC/U/V */
(PID.TID 0000.0001)                   F
(PID.TID 0000.0001)     ;
(PID.TID 0000.0001) LSR_mixIniGuess = /* mix free-drift sol. into LSR initial Guess */
(PID.TID 0000.0001)                       0
(PID.TID 0000.0001)     ;
(PID.TID 0000.0001) SEAICE_LSRrelaxU  = /* LSR solver: relaxation parameter */
(PID.TID 0000.0001)                 9.500000000000000E-01
(PID.TID 0000.0001)     ;
(PID.TID 0000.0001) SEAICE_LSRrelaxV  = /* LSR solver: relaxation parameter */
(PID.TID 0000.0001)                 9.500000000000000E-01
(PID.TID 0000.0001)     ;
(PID.TID 0000.0001) LSR_ERROR         = /* sets accuracy of LSR solver */
(PID.TID 0000.0001)                 2.000000000000000E-04
(PID.TID 0000.0001)     ;
(PID.TID 0000.0001) SOLV_NCHECK       = /* test interval for LSR solver */
(PID.TID 0000.0001)                       2
(PID.TID 0000.0001)     ;
(PID.TID 0000.0001) SEAICEuseMultiTileSolver = /* use full domain tri-diag solver */
(PID.TID 0000.0001)                   F
(PID.TID 0000.0001)     ;
(PID.TID 0000.0001) SEAICE_OLx = /* overlap for LSR/preconditioner */
(PID.TID 0000.0001)                       0
(PID.TID 0000.0001)     ;
(PID.TID 0000.0001) SEAICE_OLy = /* overlap for LSR/preconditioner */
(PID.TID 0000.0001)                       0
(PID.TID 0000.0001)     ;
(PID.TID 0000.0001) SEAICEnonLinIterMax = /* max. number of nonlinear solver steps */
(PID.TID 0000.0001)                       2
(PID.TID 0000.0001)     ;
(PID.TID 0000.0001) SEAICElinearIterMax = /* max. number of linear solver steps */
(PID.TID 0000.0001)                    1500
(PID.TID 0000.0001)     ;
(PID.TID 0000.0001) SEAICEnonLinTol     = /* non-linear solver tolerance */
(PID.TID 0000.0001)                 0.000000000000000E+00
(PID.TID 0000.0001)     ;
(PID.TID 0000.0001) 
(PID.TID 0000.0001)    Seaice advection diffusion config,   > START <
(PID.TID 0000.0001)    -----------------------------------------------
(PID.TID 0000.0001) SEAICEadvHeff = /* advect effective ice thickness */
(PID.TID 0000.0001)                   T
(PID.TID 0000.0001)     ;
(PID.TID 0000.0001) SEAICEadvArea = /* advect fractional ice area */
(PID.TID 0000.0001)                   T
(PID.TID 0000.0001)     ;
(PID.TID 0000.0001) SEAICEadvSnow = /* advect snow layer together with ice */
(PID.TID 0000.0001)                   T
(PID.TID 0000.0001)     ;
(PID.TID 0000.0001) SEAICEadvScheme   = /* advection scheme for ice */
(PID.TID 0000.0001)                      33
(PID.TID 0000.0001)     ;
(PID.TID 0000.0001) SEAICEadvSchArea   = /* advection scheme for area */
(PID.TID 0000.0001)                      33
(PID.TID 0000.0001)     ;
(PID.TID 0000.0001) SEAICEadvSchHeff   = /* advection scheme for thickness */
(PID.TID 0000.0001)                      33
(PID.TID 0000.0001)     ;
(PID.TID 0000.0001) SEAICEadvSchSnow   = /* advection scheme for snow */
(PID.TID 0000.0001)                      33
(PID.TID 0000.0001)     ;
(PID.TID 0000.0001) SEAICEdiffKhArea   = /* diffusivity (m^2/s) for area */
(PID.TID 0000.0001)                 4.000000000000000E+02
(PID.TID 0000.0001)     ;
(PID.TID 0000.0001) SEAICEdiffKhHeff   = /* diffusivity (m^2/s) for heff */
(PID.TID 0000.0001)                 4.000000000000000E+02
(PID.TID 0000.0001)     ;
(PID.TID 0000.0001) SEAICEdiffKhSnow   = /* diffusivity (m^2/s) for snow */
(PID.TID 0000.0001)                 4.000000000000000E+02
(PID.TID 0000.0001)     ;
(PID.TID 0000.0001) DIFF1             = /* parameter used in advect.F [m/s] */
(PID.TID 0000.0001)                 0.000000000000000E+00
(PID.TID 0000.0001)     ;
(PID.TID 0000.0001) 
(PID.TID 0000.0001)    Seaice thermodynamics configuration   > START <
(PID.TID 0000.0001)    -----------------------------------------------
(PID.TID 0000.0001) SEAICE_rhoIce     = /* density of sea ice (kg/m3) */
(PID.TID 0000.0001)                 9.100000000000000E+02
(PID.TID 0000.0001)     ;
(PID.TID 0000.0001) SEAICE_rhoSnow    = /* density of snow (kg/m3) */
(PID.TID 0000.0001)                 3.300000000000000E+02
(PID.TID 0000.0001)     ;
(PID.TID 0000.0001) SEAICE_rhoAir     = /* density of air (kg/m3) */
(PID.TID 0000.0001)                 1.200000000000000E+00
(PID.TID 0000.0001)     ;
(PID.TID 0000.0001) usePW79thermodynamics  = /* default 0-layer TD */
(PID.TID 0000.0001)                   T
(PID.TID 0000.0001)     ;
(PID.TID 0000.0001) SEAICE_lhEvap     = /* latent heat of evaporation */
(PID.TID 0000.0001)                 2.500000000000000E+06
(PID.TID 0000.0001)     ;
(PID.TID 0000.0001) SEAICE_lhFusion   = /* latent heat of fusion */
(PID.TID 0000.0001)                 3.340000000000000E+05
(PID.TID 0000.0001)     ;
(PID.TID 0000.0001) SEAICE_mcPheePiston = /* turbulent flux "piston velocity" a la McPhee (m/s) */
(PID.TID 0000.0001)                 3.858024691358025E-05
(PID.TID 0000.0001)     ;
(PID.TID 0000.0001) SEAICE_mcPheeTaper = /* tapering of turbulent flux (0.< <1.) for AREA=1. */
(PID.TID 0000.0001)                 0.000000000000000E+00
(PID.TID 0000.0001)     ;
(PID.TID 0000.0001) SEAICE_mcPheeStepFunc = /* replace linear tapering with step funct. */
(PID.TID 0000.0001)                   F
(PID.TID 0000.0001)     ;
(PID.TID 0000.0001) SEAICE_frazilFrac = /* frazil (T<tempFrz) to seaice conversion rate (0.< <1.) */
(PID.TID 0000.0001)                 1.000000000000000E+00
(PID.TID 0000.0001)     ;
(PID.TID 0000.0001) SEAICE_tempFrz0   = /* freezing temp. of sea water (intercept) */
(PID.TID 0000.0001)                -1.960000000000000E+00
(PID.TID 0000.0001)     ;
(PID.TID 0000.0001) SEAICE_dTempFrz_dS= /* freezing temp. of sea water (slope) */
(PID.TID 0000.0001)                 0.000000000000000E+00
(PID.TID 0000.0001)     ;
(PID.TID 0000.0001) SEAICE_growMeltByConv  = /* grow,melt by vert. conv. */
(PID.TID 0000.0001)                   F
(PID.TID 0000.0001)     ;
(PID.TID 0000.0001) SEAICE_doOpenWaterGrowth = /* grow by open water */
(PID.TID 0000.0001)                   T
(PID.TID 0000.0001)     ;
(PID.TID 0000.0001) SEAICE_doOpenWaterMelt = /* melt by open water */
(PID.TID 0000.0001)                   F
(PID.TID 0000.0001)     ;
(PID.TID 0000.0001) SEAICE_areaGainFormula = /* ice cover gain formula (1,2)*/
(PID.TID 0000.0001)                       1
(PID.TID 0000.0001)     1=from growth by ATM
(PID.TID 0000.0001)     2=from predicted growth by ATM
(PID.TID 0000.0001)     ;
(PID.TID 0000.0001) SEAICE_areaLossFormula = /* ice cover loss formula (1,2)*/
(PID.TID 0000.0001)                       2
(PID.TID 0000.0001)     1=from all but only melt conributions by ATM and OCN
(PID.TID 0000.0001)     2=from net melt-grow>0 by ATM and OCN
(PID.TID 0000.0001)     3=from predicted melt by ATM
(PID.TID 0000.0001)     ;
(PID.TID 0000.0001) HO                = /* nominal thickness of new ice */
(PID.TID 0000.0001)                 5.000000000000000E-01
(PID.TID 0000.0001)     ;
(PID.TID 0000.0001) HO_south               = /* Southern Ocean HO */
(PID.TID 0000.0001)                 5.000000000000000E-01
(PID.TID 0000.0001)     ;
(PID.TID 0000.0001) SEAICE_area_max        = /* set to les than 1. to mimic open leads */
(PID.TID 0000.0001)                 9.700000000000000E-01
(PID.TID 0000.0001)     ;
(PID.TID 0000.0001) SEAICE_salt0   = /* constant sea ice salinity */
(PID.TID 0000.0001)                 4.000000000000000E+00
(PID.TID 0000.0001)     ;
(PID.TID 0000.0001) SEAICE_salinityTracer = /* test SITR varia. salinity */
(PID.TID 0000.0001)                   F
(PID.TID 0000.0001)     ;
(PID.TID 0000.0001) SEAICEuseFlooding = /* turn submerged snow into ice */
(PID.TID 0000.0001)                   T
(PID.TID 0000.0001)     ;
(PID.TID 0000.0001) 
(PID.TID 0000.0001)    Seaice air-sea fluxes configuration,   > START <
(PID.TID 0000.0001)    -----------------------------------------------
(PID.TID 0000.0001) SEAICEheatConsFix  = /* accound for ocn<->seaice advect. heat flux */
(PID.TID 0000.0001)                   T
(PID.TID 0000.0001)     ;
(PID.TID 0000.0001) SEAICE_multDim    = /* number of ice categories (1 or 7) */
(PID.TID 0000.0001)                       1
(PID.TID 0000.0001)     ;
(PID.TID 0000.0001) SEAICE_PDF        = /* sea-ice distribution (-) */
(PID.TID 0000.0001)                 1.000000000000000E+00,      /* K =  1 */
(PID.TID 0000.0001)     6 @  0.000000000000000E+00              /* K =  2:  7 */
(PID.TID 0000.0001)     ;
(PID.TID 0000.0001) IMAX_TICE         = /* iterations for ice surface temp */
(PID.TID 0000.0001)                      10
(PID.TID 0000.0001)     ;
(PID.TID 0000.0001) postSolvTempIter= /* flux calculation after surf. temp iter */
(PID.TID 0000.0001)                       2
(PID.TID 0000.0001)     ;
(PID.TID 0000.0001) SEAICE_dryIceAlb  = /* winter albedo */
(PID.TID 0000.0001)                 8.400000000000000E-01
(PID.TID 0000.0001)     ;
(PID.TID 0000.0001) SEAICE_wetIceAlb  = /* summer albedo */
(PID.TID 0000.0001)                 7.800000000000000E-01
(PID.TID 0000.0001)     ;
(PID.TID 0000.0001) SEAICE_drySnowAlb = /* dry snow albedo */
(PID.TID 0000.0001)                 9.000000000000000E-01
(PID.TID 0000.0001)     ;
(PID.TID 0000.0001) SEAICE_wetSnowAlb = /* wet snow albedo */
(PID.TID 0000.0001)                 8.000000000000000E-01
(PID.TID 0000.0001)     ;
(PID.TID 0000.0001) SEAICE_dryIceAlb_south = /* Southern Ocean dryIceAlb */
(PID.TID 0000.0001)                 7.500000000000000E-01
(PID.TID 0000.0001)     ;
(PID.TID 0000.0001) SEAICE_wetIceAlb_south = /* Southern Ocean wetIceAlb */
(PID.TID 0000.0001)                 6.600000000000000E-01
(PID.TID 0000.0001)     ;
(PID.TID 0000.0001) SEAICE_drySnowAlb_south= /* Southern Ocean drySnowAlb */
(PID.TID 0000.0001)                 8.400000000000000E-01
(PID.TID 0000.0001)     ;
(PID.TID 0000.0001) SEAICE_wetSnowAlb_south= /* Southern Ocean wetSnowAlb */
(PID.TID 0000.0001)                 7.000000000000000E-01
(PID.TID 0000.0001)     ;
(PID.TID 0000.0001) SEAICE_wetAlbTemp= /* Temp (o.C) threshold for wet-albedo */
(PID.TID 0000.0001)                -1.000000000000000E-03
(PID.TID 0000.0001)     ;
(PID.TID 0000.0001) SEAICE_snow_emiss = /* snow emissivity */
(PID.TID 0000.0001)                 9.500000000000000E-01
(PID.TID 0000.0001)     ;
(PID.TID 0000.0001) SEAICE_ice_emiss = /* seaice emissivity */
(PID.TID 0000.0001)                 9.500000000000000E-01
(PID.TID 0000.0001)     ;
(PID.TID 0000.0001) SEAICE_cpAir      = /* heat capacity of air */
(PID.TID 0000.0001)                 1.005000000000000E+03
(PID.TID 0000.0001)     ;
(PID.TID 0000.0001) SEAICE_dalton     = /* constant dalton number */
(PID.TID 0000.0001)                 1.750000000000000E-03
(PID.TID 0000.0001)     ;
(PID.TID 0000.0001) SEAICE_iceConduct = /* sea-ice conductivity */
(PID.TID 0000.0001)                 2.165600000000000E+00
(PID.TID 0000.0001)     ;
(PID.TID 0000.0001) SEAICE_snowConduct= /* snow conductivity */
(PID.TID 0000.0001)                 3.100000000000000E-01
(PID.TID 0000.0001)     ;
(PID.TID 0000.0001) SEAICE_snowThick  = /* cutoff snow thickness (for albedo) */
(PID.TID 0000.0001)                 1.500000000000000E-01
(PID.TID 0000.0001)     ;
(PID.TID 0000.0001) SEAICE_shortwave  = /* penetration shortwave radiation */
(PID.TID 0000.0001)                 3.000000000000000E-01
(PID.TID 0000.0001)     ;
(PID.TID 0000.0001) useMaykutSatVapPoly = /* use Maykut Polynomial for Sat.Vap.Pr */
(PID.TID 0000.0001)                   F
(PID.TID 0000.0001)     ;
(PID.TID 0000.0001) MIN_ATEMP         = /* minimum air temperature */
(PID.TID 0000.0001)                -4.000000000000000E+01
(PID.TID 0000.0001)     ;
(PID.TID 0000.0001) MIN_LWDOWN        = /* minimum downward longwave */
(PID.TID 0000.0001)                 6.000000000000000E+01
(PID.TID 0000.0001)     ;
(PID.TID 0000.0001) MIN_TICE          = /* minimum ice temperature */
(PID.TID 0000.0001)                -4.000000000000000E+01
(PID.TID 0000.0001)     ;
(PID.TID 0000.0001) 
(PID.TID 0000.0001)    Seaice initialization and IO config.,   > START <
(PID.TID 0000.0001)    -------------------------------------------------
(PID.TID 0000.0001) SEAICE_initialHEFF= /* initial sea-ice thickness */
(PID.TID 0000.0001)                 0.000000000000000E+00
(PID.TID 0000.0001)     ;
(PID.TID 0000.0001) AreaFile = /* Initial ice concentration File */
(PID.TID 0000.0001)               ''
(PID.TID 0000.0001)     ;
(PID.TID 0000.0001) HeffFile = /* Initial effective ice thickness File */
(PID.TID 0000.0001)               ''
(PID.TID 0000.0001)     ;
(PID.TID 0000.0001) HsnowFile = /* Initial snow thickness File */
(PID.TID 0000.0001)               ''
(PID.TID 0000.0001)     ;
(PID.TID 0000.0001) uIceFile = /* Initial U-ice velocity File */
(PID.TID 0000.0001)               ''
(PID.TID 0000.0001)     ;
(PID.TID 0000.0001) vIceFile = /* Initial V-ice velocity File */
(PID.TID 0000.0001)               ''
(PID.TID 0000.0001)     ;
(PID.TID 0000.0001) SEAICEwriteState  = /* write sea ice state to file */
(PID.TID 0000.0001)                   F
(PID.TID 0000.0001)     ;
(PID.TID 0000.0001) SEAICE_monFreq  = /* monitor frequency */
(PID.TID 0000.0001)                 6.307200000000000E+06
(PID.TID 0000.0001)     ;
(PID.TID 0000.0001) SEAICE_dumpFreq   = /* dump frequency */
(PID.TID 0000.0001)                 0.000000000000000E+00
(PID.TID 0000.0001)     ;
(PID.TID 0000.0001) SEAICE_taveFreq   = /* time-averaging frequency */
(PID.TID 0000.0001)                 0.000000000000000E+00
(PID.TID 0000.0001)     ;
(PID.TID 0000.0001) SEAICE_mon_stdio  = /* write monitor to std-outp */
(PID.TID 0000.0001)                   T
(PID.TID 0000.0001)     ;
(PID.TID 0000.0001) SEAICE_dump_mdsio = /* write snap-shot   using MDSIO */
(PID.TID 0000.0001)                   T
(PID.TID 0000.0001)     ;
(PID.TID 0000.0001) SEAICE_tave_mdsio = /* write TimeAverage using MDSIO */
(PID.TID 0000.0001)                   T
(PID.TID 0000.0001)     ;
(PID.TID 0000.0001) 
(PID.TID 0000.0001)    Seaice regularization numbers,   > START <
(PID.TID 0000.0001)    -----------------------------------------------
(PID.TID 0000.0001) SEAICE_deltaMin   = /* reduce singularities in Delta */
(PID.TID 0000.0001)                 1.000000000000000E-10
(PID.TID 0000.0001)     ;
(PID.TID 0000.0001) SEAICE_EPS        = /* small number */
(PID.TID 0000.0001)                 1.000000000000000E-10
(PID.TID 0000.0001)     ;
(PID.TID 0000.0001) SEAICE_EPS_SQ     = /* small number squared */
(PID.TID 0000.0001)                 1.000000000000000E-20
(PID.TID 0000.0001)     ;
(PID.TID 0000.0001) SEAICE_area_reg   = /* reduce derivative singularities */
(PID.TID 0000.0001)                 1.000000000000000E-05
(PID.TID 0000.0001)     ;
(PID.TID 0000.0001) SEAICE_hice_reg   = /* reduce derivative singularities */
(PID.TID 0000.0001)                 5.000000000000000E-02
(PID.TID 0000.0001)     ;
(PID.TID 0000.0001) SEAICE_area_floor = /* reduce derivative singularities */
(PID.TID 0000.0001)                 1.000000000000000E-05
(PID.TID 0000.0001)     ;
(PID.TID 0000.0001) 
(PID.TID 0000.0001) // =======================================================
(PID.TID 0000.0001) // Seaice configuration (SEAICE_PARM01) >>> END <<<
(PID.TID 0000.0001) // =======================================================
(PID.TID 0000.0001) 
(PID.TID 0000.0001) ctrl-wet 1:    nvarlength =        81120
(PID.TID 0000.0001) ctrl-wet 2: surface wet C =          312
(PID.TID 0000.0001) ctrl-wet 3: surface wet W =          312
(PID.TID 0000.0001) ctrl-wet 4: surface wet S =          283
(PID.TID 0000.0001) ctrl-wet 4a:surface wet V =            0
(PID.TID 0000.0001) ctrl-wet 5: 3D wet points =        11544
(PID.TID 0000.0001) ctrl-wet 6: no recs for i =     1           0
(PID.TID 0000.0001) ctrl-wet 6: no recs for i =     2           0
(PID.TID 0000.0001) ctrl-wet 6: no recs for i =     3           0
(PID.TID 0000.0001) ctrl-wet 6: no recs for i =     4           0
(PID.TID 0000.0001) ctrl-wet 6: no recs for i =     5           0
(PID.TID 0000.0001) ctrl-wet 6: no recs for i =     6           0
(PID.TID 0000.0001) ctrl-wet 6: no recs for i =     7           0
(PID.TID 0000.0001) ctrl-wet 6: no recs for i =     8           0
(PID.TID 0000.0001) ctrl-wet 6: no recs for i =     9           0
(PID.TID 0000.0001) ctrl-wet 6: no recs for i =    10           0
(PID.TID 0000.0001) ctrl-wet 6: no recs for i =    11           0
(PID.TID 0000.0001) ctrl-wet 6: no recs for i =    12           0
(PID.TID 0000.0001) ctrl-wet 6: no recs for i =    13           0
(PID.TID 0000.0001) ctrl-wet 6: no recs for i =    14           0
(PID.TID 0000.0001) ctrl-wet 6: no recs for i =    15           0
(PID.TID 0000.0001) ctrl-wet 6: no recs for i =    16           0
(PID.TID 0000.0001) ctrl-wet 6: no recs for i =    17           0
(PID.TID 0000.0001) ctrl-wet 6: no recs for i =    18           0
(PID.TID 0000.0001) ctrl-wet 6: no recs for i =    19           0
(PID.TID 0000.0001) ctrl-wet 6: no recs for i =    20           0
(PID.TID 0000.0001) ctrl-wet 6: no recs for i =    21           0
(PID.TID 0000.0001) ctrl-wet 6: no recs for i =    22           0
(PID.TID 0000.0001) ctrl-wet 6: no recs for i =    23           0
(PID.TID 0000.0001) ctrl-wet 6: no recs for i =    24           0
(PID.TID 0000.0001) ctrl-wet 6: no recs for i =    25           0
(PID.TID 0000.0001) ctrl-wet 6: no recs for i =    26           0
(PID.TID 0000.0001) ctrl-wet 6: no recs for i =    27           0
(PID.TID 0000.0001) ctrl-wet 6: no recs for i =    28           0
(PID.TID 0000.0001) ctrl-wet 6: no recs for i =    29           0
(PID.TID 0000.0001) ctrl-wet 6: no recs for i =    30           0
(PID.TID 0000.0001) ctrl-wet 6: no recs for i =    31           0
(PID.TID 0000.0001) ctrl-wet 6: no recs for i =    32           0
(PID.TID 0000.0001) ctrl-wet 6: no recs for i =    33           0
(PID.TID 0000.0001) ctrl-wet 6: no recs for i =    34           0
(PID.TID 0000.0001) ctrl-wet 6: no recs for i =    35           0
(PID.TID 0000.0001) ctrl-wet 6: no recs for i =    36           0
(PID.TID 0000.0001) ctrl-wet 6: no recs for i =    37           0
(PID.TID 0000.0001) ctrl-wet 6: no recs for i =    38           0
(PID.TID 0000.0001) ctrl-wet 6: no recs for i =    39           0
(PID.TID 0000.0001) ctrl-wet 6: no recs for i =    40           0
(PID.TID 0000.0001) ctrl-wet 6: no recs for i =    41           0
(PID.TID 0000.0001) ctrl-wet 6: no recs for i =    42           0
(PID.TID 0000.0001) ctrl-wet 6: no recs for i =    43           0
(PID.TID 0000.0001) ctrl-wet 6: no recs for i =    44           0
(PID.TID 0000.0001) ctrl-wet 6: no recs for i =    45           0
(PID.TID 0000.0001) ctrl-wet 6: no recs for i =    46           0
(PID.TID 0000.0001) ctrl-wet 6: no recs for i =    47           0
(PID.TID 0000.0001) ctrl-wet 6: no recs for i =    48           0
(PID.TID 0000.0001) ctrl-wet 6: no recs for i =    49           0
(PID.TID 0000.0001) ctrl-wet 6: no recs for i =    50           0
(PID.TID 0000.0001) ctrl-wet 6: no recs for i =    51           0
(PID.TID 0000.0001) ctrl-wet 6: no recs for i =    52           0
(PID.TID 0000.0001) ctrl-wet 6: no recs for i =    53           0
(PID.TID 0000.0001) ctrl-wet 6: no recs for i =    54           0
(PID.TID 0000.0001) ctrl-wet 6: no recs for i =    55           0
(PID.TID 0000.0001) ctrl-wet 6: no recs for i =    56           0
(PID.TID 0000.0001) ctrl-wet 6: no recs for i =    57           0
(PID.TID 0000.0001) ctrl-wet 6: no recs for i =    58           0
(PID.TID 0000.0001) ctrl-wet 6: no recs for i =    59           0
(PID.TID 0000.0001) ctrl-wet 6: no recs for i =    60           0
(PID.TID 0000.0001) ctrl-wet 6: no recs for i =    61           0
(PID.TID 0000.0001) ctrl-wet 6: no recs for i =    62           0
(PID.TID 0000.0001) ctrl-wet 6: no recs for i =    63           0
(PID.TID 0000.0001) ctrl-wet 6: no recs for i =    64           0
(PID.TID 0000.0001) ctrl-wet 6: no recs for i =    65           0
(PID.TID 0000.0001) ctrl-wet 6: no recs for i =    66           0
(PID.TID 0000.0001) ctrl-wet 6: no recs for i =    67           0
(PID.TID 0000.0001) ctrl-wet 6: no recs for i =    68           0
(PID.TID 0000.0001) ctrl-wet 6: no recs for i =    69           0
(PID.TID 0000.0001) ctrl-wet 6: no recs for i =    70           0
(PID.TID 0000.0001) ctrl-wet 6: no recs for i =    71           0
(PID.TID 0000.0001) ctrl-wet 6: no recs for i =    72           0
(PID.TID 0000.0001) ctrl-wet 6: no recs for i =    73           0
(PID.TID 0000.0001) ctrl-wet 6: no recs for i =    74           0
(PID.TID 0000.0001) ctrl-wet 6: no recs for i =    75           0
(PID.TID 0000.0001) ctrl-wet 6: no recs for i =    76           0
(PID.TID 0000.0001) ctrl-wet 6: no recs for i =    77           0
(PID.TID 0000.0001) ctrl-wet 6: no recs for i =    78           0
(PID.TID 0000.0001) ctrl-wet 6: no recs for i =    79           0
(PID.TID 0000.0001) ctrl-wet 6: no recs for i =    80           0
(PID.TID 0000.0001) ctrl-wet 6: no recs for i =    81           0
(PID.TID 0000.0001) ctrl-wet 6: no recs for i =    82           0
(PID.TID 0000.0001) ctrl-wet 6: no recs for i =    83           0
(PID.TID 0000.0001) ctrl-wet 6: no recs for i =    84           0
(PID.TID 0000.0001) ctrl-wet 6: no recs for i =    85           0
(PID.TID 0000.0001) ctrl-wet 6: no recs for i =    86           0
(PID.TID 0000.0001) ctrl-wet 6: no recs for i =    87           0
(PID.TID 0000.0001) ctrl-wet 6: no recs for i =    88           0
(PID.TID 0000.0001) ctrl-wet 6: no recs for i =    89           0
(PID.TID 0000.0001) ctrl-wet 6: no recs for i =    90           0
(PID.TID 0000.0001) ctrl-wet 6: no recs for i =    91           0
(PID.TID 0000.0001) ctrl-wet 6: no recs for i =    92           0
(PID.TID 0000.0001) ctrl-wet 6: no recs for i =    93           0
(PID.TID 0000.0001) ctrl-wet 6: no recs for i =    94           0
(PID.TID 0000.0001) ctrl-wet 6: no recs for i =    95           0
(PID.TID 0000.0001) ctrl-wet 6: no recs for i =    96           0
(PID.TID 0000.0001) ctrl-wet 6: no recs for i =    97           0
(PID.TID 0000.0001) ctrl-wet 6: no recs for i =    98           0
(PID.TID 0000.0001) ctrl-wet 6: no recs for i =    99           0
(PID.TID 0000.0001) ctrl-wet 6: no recs for i =   100           0
(PID.TID 0000.0001) ctrl-wet 6: no recs for i =   101           1
(PID.TID 0000.0001) ctrl-wet 6: no recs for i =   102           0
(PID.TID 0000.0001) ctrl-wet 6: no recs for i =   103           0
(PID.TID 0000.0001) ctrl-wet 6: no recs for i =   104           0
(PID.TID 0000.0001) ctrl-wet 6: no recs for i =   105           0
(PID.TID 0000.0001) ctrl-wet 6: no recs for i =   106           0
(PID.TID 0000.0001) ctrl-wet 6: no recs for i =   107           0
(PID.TID 0000.0001) ctrl-wet 6: no recs for i =   108           0
(PID.TID 0000.0001) ctrl-wet 6: no recs for i =   109           0
(PID.TID 0000.0001) ctrl-wet 6: no recs for i =   110           0
(PID.TID 0000.0001) ctrl-wet 6: no recs for i =   111           0
(PID.TID 0000.0001) ctrl-wet 6: no recs for i =   112           0
(PID.TID 0000.0001) ctrl-wet 6: no recs for i =   113           0
(PID.TID 0000.0001) ctrl-wet 6: no recs for i =   114           0
(PID.TID 0000.0001) ctrl-wet 6: no recs for i =   115           0
(PID.TID 0000.0001) ctrl-wet 6: no recs for i =   116           0
(PID.TID 0000.0001) ctrl-wet 6: no recs for i =   117           0
(PID.TID 0000.0001) ctrl-wet 6: no recs for i =   118           0
(PID.TID 0000.0001) ctrl-wet 6: no recs for i =   119           0
(PID.TID 0000.0001) ctrl-wet 6: no recs for i =   120           0
(PID.TID 0000.0001) ctrl-wet 6: no recs for i =   121           0
(PID.TID 0000.0001) ctrl-wet 6: no recs for i =   122           0
(PID.TID 0000.0001) ctrl-wet 6: no recs for i =   123           0
(PID.TID 0000.0001) ctrl-wet 6: no recs for i =   124           0
(PID.TID 0000.0001) ctrl-wet 6: no recs for i =   125           0
(PID.TID 0000.0001) ctrl-wet 6: no recs for i =   126           0
(PID.TID 0000.0001) ctrl-wet 6: no recs for i =   127           0
(PID.TID 0000.0001) ctrl-wet 6: no recs for i =   128           0
(PID.TID 0000.0001) ctrl-wet 6: no recs for i =   129           0
(PID.TID 0000.0001) ctrl-wet 6: no recs for i =   130           0
(PID.TID 0000.0001) ctrl-wet 6: no recs for i =   131           0
(PID.TID 0000.0001) ctrl-wet 6: no recs for i =   132           0
(PID.TID 0000.0001) ctrl-wet 6: no recs for i =   133           0
(PID.TID 0000.0001) ctrl-wet 6: no recs for i =   134           0
(PID.TID 0000.0001) ctrl-wet 6: no recs for i =   135           0
(PID.TID 0000.0001) ctrl-wet 6: no recs for i =   136           0
(PID.TID 0000.0001) ctrl-wet 6: no recs for i =   137           0
(PID.TID 0000.0001) ctrl-wet 6: no recs for i =   138           0
(PID.TID 0000.0001) ctrl-wet 6: no recs for i =   139           0
(PID.TID 0000.0001) ctrl-wet 6: no recs for i =   140           0
(PID.TID 0000.0001) ctrl-wet 6: no recs for i =   141           0
(PID.TID 0000.0001) ctrl-wet 6: no recs for i =   142           0
(PID.TID 0000.0001) ctrl-wet 6: no recs for i =   143           0
(PID.TID 0000.0001) ctrl-wet 6: no recs for i =   144           0
(PID.TID 0000.0001) ctrl-wet 6: no recs for i =   145           0
(PID.TID 0000.0001) ctrl-wet 6: no recs for i =   146           0
(PID.TID 0000.0001) ctrl-wet 6: no recs for i =   147           0
(PID.TID 0000.0001) ctrl-wet 6: no recs for i =   148           0
(PID.TID 0000.0001) ctrl-wet 6: no recs for i =   149           0
(PID.TID 0000.0001) ctrl-wet 6: no recs for i =   150           0
(PID.TID 0000.0001) ctrl-wet 6: no recs for i =   151           0
(PID.TID 0000.0001) ctrl-wet 6: no recs for i =   152           0
(PID.TID 0000.0001) ctrl-wet 6: no recs for i =   153           0
(PID.TID 0000.0001) ctrl-wet 6: no recs for i =   154           0
(PID.TID 0000.0001) ctrl-wet 6: no recs for i =   155           0
(PID.TID 0000.0001) ctrl-wet 6: no recs for i =   156           0
(PID.TID 0000.0001) ctrl-wet 6: no recs for i =   157           0
(PID.TID 0000.0001) ctrl-wet 6: no recs for i =   158           0
(PID.TID 0000.0001) ctrl-wet 6: no recs for i =   159           0
(PID.TID 0000.0001) ctrl-wet 6: no recs for i =   160           0
(PID.TID 0000.0001) ctrl-wet 6: no recs for i =   161           0
(PID.TID 0000.0001) ctrl-wet 6: no recs for i =   162           0
(PID.TID 0000.0001) ctrl-wet 6: no recs for i =   163           0
(PID.TID 0000.0001) ctrl-wet 6: no recs for i =   164           0
(PID.TID 0000.0001) ctrl-wet 6: no recs for i =   165           0
(PID.TID 0000.0001) ctrl-wet 6: no recs for i =   166           0
(PID.TID 0000.0001) ctrl-wet 6: no recs for i =   167           0
(PID.TID 0000.0001) ctrl-wet 6: no recs for i =   168           0
(PID.TID 0000.0001) ctrl-wet 6: no recs for i =   169           0
(PID.TID 0000.0001) ctrl-wet 6: no recs for i =   170           0
(PID.TID 0000.0001) ctrl-wet 6: no recs for i =   171           0
(PID.TID 0000.0001) ctrl-wet 6: no recs for i =   172           0
(PID.TID 0000.0001) ctrl-wet 6: no recs for i =   173           0
(PID.TID 0000.0001) ctrl-wet 6: no recs for i =   174           0
(PID.TID 0000.0001) ctrl-wet 6: no recs for i =   175           0
(PID.TID 0000.0001) ctrl-wet 6: no recs for i =   176           0
(PID.TID 0000.0001) ctrl-wet 6: no recs for i =   177           0
(PID.TID 0000.0001) ctrl-wet 6: no recs for i =   178           0
(PID.TID 0000.0001) ctrl-wet 6: no recs for i =   179           0
(PID.TID 0000.0001) ctrl-wet 6: no recs for i =   180           0
(PID.TID 0000.0001) ctrl-wet 6: no recs for i =   181           0
(PID.TID 0000.0001) ctrl-wet 6: no recs for i =   182           0
(PID.TID 0000.0001) ctrl-wet 6: no recs for i =   183           0
(PID.TID 0000.0001) ctrl-wet 6: no recs for i =   184           0
(PID.TID 0000.0001) ctrl-wet 6: no recs for i =   185           0
(PID.TID 0000.0001) ctrl-wet 6: no recs for i =   186           0
(PID.TID 0000.0001) ctrl-wet 6: no recs for i =   187           0
(PID.TID 0000.0001) ctrl-wet 6: no recs for i =   188           0
(PID.TID 0000.0001) ctrl-wet 6: no recs for i =   189           0
(PID.TID 0000.0001) ctrl-wet 6: no recs for i =   190           0
(PID.TID 0000.0001) ctrl-wet 6: no recs for i =   191           0
(PID.TID 0000.0001) ctrl-wet 6: no recs for i =   192           0
(PID.TID 0000.0001) ctrl-wet 6: no recs for i =   193           0
(PID.TID 0000.0001) ctrl-wet 6: no recs for i =   194           0
(PID.TID 0000.0001) ctrl-wet 6: no recs for i =   195           0
(PID.TID 0000.0001) ctrl-wet 6: no recs for i =   196           0
(PID.TID 0000.0001) ctrl-wet 6: no recs for i =   197           0
(PID.TID 0000.0001) ctrl-wet 6: no recs for i =   198           0
(PID.TID 0000.0001) ctrl-wet 6: no recs for i =   199           0
(PID.TID 0000.0001) ctrl-wet 6: no recs for i =   200           0
(PID.TID 0000.0001) ctrl-wet 6: no recs for i =   201           1
(PID.TID 0000.0001) ctrl-wet 6: no recs for i =   202           1
(PID.TID 0000.0001) ctrl-wet 6: no recs for i =   203           1
(PID.TID 0000.0001) ctrl-wet 6: no recs for i =   204           1
(PID.TID 0000.0001) ctrl-wet 6: no recs for i =   205           1
(PID.TID 0000.0001) ctrl-wet 6: no recs for i =   206           1
(PID.TID 0000.0001) ctrl-wet 6: no recs for i =   207           1
(PID.TID 0000.0001) ctrl-wet 6: no recs for i =   208           0
(PID.TID 0000.0001) ctrl-wet 6: no recs for i =   209           0
(PID.TID 0000.0001) ctrl-wet 6: no recs for i =   210           0
(PID.TID 0000.0001) ctrl-wet 6: no recs for i =   211           0
(PID.TID 0000.0001) ctrl-wet 6: no recs for i =   212           0
(PID.TID 0000.0001) ctrl-wet 6: no recs for i =   213           0
(PID.TID 0000.0001) ctrl-wet 6: no recs for i =   214           0
(PID.TID 0000.0001) ctrl-wet 6: no recs for i =   215           0
(PID.TID 0000.0001) ctrl-wet 6: no recs for i =   216           0
(PID.TID 0000.0001) ctrl-wet 6: no recs for i =   217           0
(PID.TID 0000.0001) ctrl-wet 6: no recs for i =   218           0
(PID.TID 0000.0001) ctrl-wet 6: no recs for i =   219           0
(PID.TID 0000.0001) ctrl-wet 6: no recs for i =   220           0
(PID.TID 0000.0001) ctrl-wet 6: no recs for i =   221           0
(PID.TID 0000.0001) ctrl-wet 6: no recs for i =   222           0
(PID.TID 0000.0001) ctrl-wet 6: no recs for i =   223           0
(PID.TID 0000.0001) ctrl-wet 6: no recs for i =   224           0
(PID.TID 0000.0001) ctrl-wet 6: no recs for i =   225           0
(PID.TID 0000.0001) ctrl-wet 6: no recs for i =   226           0
(PID.TID 0000.0001) ctrl-wet 6: no recs for i =   227           0
(PID.TID 0000.0001) ctrl-wet 6: no recs for i =   228           0
(PID.TID 0000.0001) ctrl-wet 6: no recs for i =   229           0
(PID.TID 0000.0001) ctrl-wet 6: no recs for i =   230           0
(PID.TID 0000.0001) ctrl-wet 6: no recs for i =   231           0
(PID.TID 0000.0001) ctrl-wet 6: no recs for i =   232           0
(PID.TID 0000.0001) ctrl-wet 6: no recs for i =   233           0
(PID.TID 0000.0001) ctrl-wet 6: no recs for i =   234           0
(PID.TID 0000.0001) ctrl-wet 6: no recs for i =   235           0
(PID.TID 0000.0001) ctrl-wet 6: no recs for i =   236           0
(PID.TID 0000.0001) ctrl-wet 6: no recs for i =   237           0
(PID.TID 0000.0001) ctrl-wet 6: no recs for i =   238           0
(PID.TID 0000.0001) ctrl-wet 6: no recs for i =   239           0
(PID.TID 0000.0001) ctrl-wet 6: no recs for i =   240           0
(PID.TID 0000.0001) ctrl-wet 6: no recs for i =   241           0
(PID.TID 0000.0001) ctrl-wet 6: no recs for i =   242           0
(PID.TID 0000.0001) ctrl-wet 6: no recs for i =   243           0
(PID.TID 0000.0001) ctrl-wet 6: no recs for i =   244           0
(PID.TID 0000.0001) ctrl-wet 6: no recs for i =   245           0
(PID.TID 0000.0001) ctrl-wet 6: no recs for i =   246           0
(PID.TID 0000.0001) ctrl-wet 6: no recs for i =   247           0
(PID.TID 0000.0001) ctrl-wet 6: no recs for i =   248           0
(PID.TID 0000.0001) ctrl-wet 6: no recs for i =   249           0
(PID.TID 0000.0001) ctrl-wet 6: no recs for i =   250           0
(PID.TID 0000.0001) ctrl-wet 6: no recs for i =   251           0
(PID.TID 0000.0001) ctrl-wet 6: no recs for i =   252           0
(PID.TID 0000.0001) ctrl-wet 6: no recs for i =   253           0
(PID.TID 0000.0001) ctrl-wet 6: no recs for i =   254           0
(PID.TID 0000.0001) ctrl-wet 6: no recs for i =   255           0
(PID.TID 0000.0001) ctrl-wet 6: no recs for i =   256           0
(PID.TID 0000.0001) ctrl-wet 6: no recs for i =   257           0
(PID.TID 0000.0001) ctrl-wet 6: no recs for i =   258           0
(PID.TID 0000.0001) ctrl-wet 6: no recs for i =   259           0
(PID.TID 0000.0001) ctrl-wet 6: no recs for i =   260           0
(PID.TID 0000.0001) ctrl-wet 6: no recs for i =   261           0
(PID.TID 0000.0001) ctrl-wet 6: no recs for i =   262           0
(PID.TID 0000.0001) ctrl-wet 6: no recs for i =   263           0
(PID.TID 0000.0001) ctrl-wet 6: no recs for i =   264           0
(PID.TID 0000.0001) ctrl-wet 6: no recs for i =   265           0
(PID.TID 0000.0001) ctrl-wet 6: no recs for i =   266           0
(PID.TID 0000.0001) ctrl-wet 6: no recs for i =   267           0
(PID.TID 0000.0001) ctrl-wet 6: no recs for i =   268           0
(PID.TID 0000.0001) ctrl-wet 6: no recs for i =   269           0
(PID.TID 0000.0001) ctrl-wet 6: no recs for i =   270           0
(PID.TID 0000.0001) ctrl-wet 6: no recs for i =   271           0
(PID.TID 0000.0001) ctrl-wet 6: no recs for i =   272           0
(PID.TID 0000.0001) ctrl-wet 6: no recs for i =   273           0
(PID.TID 0000.0001) ctrl-wet 6: no recs for i =   274           0
(PID.TID 0000.0001) ctrl-wet 6: no recs for i =   275           0
(PID.TID 0000.0001) ctrl-wet 6: no recs for i =   276           0
(PID.TID 0000.0001) ctrl-wet 6: no recs for i =   277           0
(PID.TID 0000.0001) ctrl-wet 6: no recs for i =   278           0
(PID.TID 0000.0001) ctrl-wet 6: no recs for i =   279           0
(PID.TID 0000.0001) ctrl-wet 6: no recs for i =   280           0
(PID.TID 0000.0001) ctrl-wet 6: no recs for i =   281           0
(PID.TID 0000.0001) ctrl-wet 6: no recs for i =   282           0
(PID.TID 0000.0001) ctrl-wet 6: no recs for i =   283           0
(PID.TID 0000.0001) ctrl-wet 6: no recs for i =   284           0
(PID.TID 0000.0001) ctrl-wet 6: no recs for i =   285           0
(PID.TID 0000.0001) ctrl-wet 6: no recs for i =   286           0
(PID.TID 0000.0001) ctrl-wet 6: no recs for i =   287           0
(PID.TID 0000.0001) ctrl-wet 6: no recs for i =   288           0
(PID.TID 0000.0001) ctrl-wet 6: no recs for i =   289           0
(PID.TID 0000.0001) ctrl-wet 6: no recs for i =   290           0
(PID.TID 0000.0001) ctrl-wet 6: no recs for i =   291           0
(PID.TID 0000.0001) ctrl-wet 6: no recs for i =   292           0
(PID.TID 0000.0001) ctrl-wet 6: no recs for i =   293           0
(PID.TID 0000.0001) ctrl-wet 6: no recs for i =   294           0
(PID.TID 0000.0001) ctrl-wet 6: no recs for i =   295           0
(PID.TID 0000.0001) ctrl-wet 6: no recs for i =   296           0
(PID.TID 0000.0001) ctrl-wet 6: no recs for i =   297           0
(PID.TID 0000.0001) ctrl-wet 6: no recs for i =   298           0
(PID.TID 0000.0001) ctrl-wet 6: no recs for i =   299           0
(PID.TID 0000.0001) ctrl-wet 6: no recs for i =   300           0
(PID.TID 0000.0001) ctrl-wet 6: no recs for i =   301           0
(PID.TID 0000.0001) ctrl-wet 6: no recs for i =   302           0
(PID.TID 0000.0001) ctrl-wet 6: no recs for i =   303           0
(PID.TID 0000.0001) ctrl-wet 6: no recs for i =   304           0
(PID.TID 0000.0001) ctrl-wet 6: no recs for i =   305           0
(PID.TID 0000.0001) ctrl-wet 6: no recs for i =   306           0
(PID.TID 0000.0001) ctrl-wet 6: no recs for i =   307           0
(PID.TID 0000.0001) ctrl-wet 6: no recs for i =   308           0
(PID.TID 0000.0001) ctrl-wet 6: no recs for i =   309           0
(PID.TID 0000.0001) ctrl-wet 6: no recs for i =   310           0
(PID.TID 0000.0001) ctrl-wet 6: no recs for i =   311           0
(PID.TID 0000.0001) ctrl-wet 6: no recs for i =   312           0
(PID.TID 0000.0001) ctrl-wet 6: no recs for i =   313           0
(PID.TID 0000.0001) ctrl-wet 6: no recs for i =   314           0
(PID.TID 0000.0001) ctrl-wet 6: no recs for i =   315           0
(PID.TID 0000.0001) ctrl-wet 6: no recs for i =   316           0
(PID.TID 0000.0001) ctrl-wet 6: no recs for i =   317           0
(PID.TID 0000.0001) ctrl-wet 6: no recs for i =   318           0
(PID.TID 0000.0001) ctrl-wet 6: no recs for i =   319           0
(PID.TID 0000.0001) ctrl-wet 6: no recs for i =   320           0
(PID.TID 0000.0001) ctrl-wet 6: no recs for i =   321           0
(PID.TID 0000.0001) ctrl-wet 6: no recs for i =   322           0
(PID.TID 0000.0001) ctrl-wet 6: no recs for i =   323           0
(PID.TID 0000.0001) ctrl-wet 6: no recs for i =   324           0
(PID.TID 0000.0001) ctrl-wet 6: no recs for i =   325           0
(PID.TID 0000.0001) ctrl-wet 6: no recs for i =   326           0
(PID.TID 0000.0001) ctrl-wet 6: no recs for i =   327           0
(PID.TID 0000.0001) ctrl-wet 6: no recs for i =   328           0
(PID.TID 0000.0001) ctrl-wet 6: no recs for i =   329           0
(PID.TID 0000.0001) ctrl-wet 6: no recs for i =   330           0
(PID.TID 0000.0001) ctrl-wet 6: no recs for i =   331           0
(PID.TID 0000.0001) ctrl-wet 6: no recs for i =   332           0
(PID.TID 0000.0001) ctrl-wet 6: no recs for i =   333           0
(PID.TID 0000.0001) ctrl-wet 6: no recs for i =   334           0
(PID.TID 0000.0001) ctrl-wet 6: no recs for i =   335           0
(PID.TID 0000.0001) ctrl-wet 6: no recs for i =   336           0
(PID.TID 0000.0001) ctrl-wet 6: no recs for i =   337           0
(PID.TID 0000.0001) ctrl-wet 6: no recs for i =   338           0
(PID.TID 0000.0001) ctrl-wet 6: no recs for i =   339           0
(PID.TID 0000.0001) ctrl-wet 6: no recs for i =   340           0
(PID.TID 0000.0001) ctrl-wet 6: no recs for i =   341           0
(PID.TID 0000.0001) ctrl-wet 6: no recs for i =   342           0
(PID.TID 0000.0001) ctrl-wet 6: no recs for i =   343           0
(PID.TID 0000.0001) ctrl-wet 6: no recs for i =   344           0
(PID.TID 0000.0001) ctrl-wet 6: no recs for i =   345           0
(PID.TID 0000.0001) ctrl-wet 6: no recs for i =   346           0
(PID.TID 0000.0001) ctrl-wet 6: no recs for i =   347           0
(PID.TID 0000.0001) ctrl-wet 6: no recs for i =   348           0
(PID.TID 0000.0001) ctrl-wet 6: no recs for i =   349           0
(PID.TID 0000.0001) ctrl-wet 6: no recs for i =   350           0
(PID.TID 0000.0001) ctrl-wet 6: no recs for i =   351           0
(PID.TID 0000.0001) ctrl-wet 6: no recs for i =   352           0
(PID.TID 0000.0001) ctrl-wet 6: no recs for i =   353           0
(PID.TID 0000.0001) ctrl-wet 6: no recs for i =   354           0
(PID.TID 0000.0001) ctrl-wet 6: no recs for i =   355           0
(PID.TID 0000.0001) ctrl-wet 6: no recs for i =   356           0
(PID.TID 0000.0001) ctrl-wet 6: no recs for i =   357           0
(PID.TID 0000.0001) ctrl-wet 6: no recs for i =   358           0
(PID.TID 0000.0001) ctrl-wet 6: no recs for i =   359           0
(PID.TID 0000.0001) ctrl-wet 6: no recs for i =   360           0
(PID.TID 0000.0001) ctrl-wet 6: no recs for i =   361           0
(PID.TID 0000.0001) ctrl-wet 6: no recs for i =   362           0
(PID.TID 0000.0001) ctrl-wet 6: no recs for i =   363           0
(PID.TID 0000.0001) ctrl-wet 6: no recs for i =   364           0
(PID.TID 0000.0001) ctrl-wet 6: no recs for i =   365           0
(PID.TID 0000.0001) ctrl-wet 6: no recs for i =   366           0
(PID.TID 0000.0001) ctrl-wet 6: no recs for i =   367           0
(PID.TID 0000.0001) ctrl-wet 6: no recs for i =   368           0
(PID.TID 0000.0001) ctrl-wet 6: no recs for i =   369           0
(PID.TID 0000.0001) ctrl-wet 6: no recs for i =   370           0
(PID.TID 0000.0001) ctrl-wet 6: no recs for i =   371           0
(PID.TID 0000.0001) ctrl-wet 6: no recs for i =   372           0
(PID.TID 0000.0001) ctrl-wet 6: no recs for i =   373           0
(PID.TID 0000.0001) ctrl-wet 6: no recs for i =   374           0
(PID.TID 0000.0001) ctrl-wet 6: no recs for i =   375           0
(PID.TID 0000.0001) ctrl-wet 6: no recs for i =   376           0
(PID.TID 0000.0001) ctrl-wet 6: no recs for i =   377           0
(PID.TID 0000.0001) ctrl-wet 6: no recs for i =   378           0
(PID.TID 0000.0001) ctrl-wet 6: no recs for i =   379           0
(PID.TID 0000.0001) ctrl-wet 6: no recs for i =   380           0
(PID.TID 0000.0001) ctrl-wet 6: no recs for i =   381           0
(PID.TID 0000.0001) ctrl-wet 6: no recs for i =   382           0
(PID.TID 0000.0001) ctrl-wet 6: no recs for i =   383           0
(PID.TID 0000.0001) ctrl-wet 6: no recs for i =   384           0
(PID.TID 0000.0001) ctrl-wet 6: no recs for i =   385           0
(PID.TID 0000.0001) ctrl-wet 6: no recs for i =   386           0
(PID.TID 0000.0001) ctrl-wet 6: no recs for i =   387           0
(PID.TID 0000.0001) ctrl-wet 6: no recs for i =   388           0
(PID.TID 0000.0001) ctrl-wet 6: no recs for i =   389           0
(PID.TID 0000.0001) ctrl-wet 6: no recs for i =   390           0
(PID.TID 0000.0001) ctrl-wet 6: no recs for i =   391           0
(PID.TID 0000.0001) ctrl-wet 6: no recs for i =   392           0
(PID.TID 0000.0001) ctrl-wet 6: no recs for i =   393           0
(PID.TID 0000.0001) ctrl-wet 6: no recs for i =   394           0
(PID.TID 0000.0001) ctrl-wet 6: no recs for i =   395           0
(PID.TID 0000.0001) ctrl-wet 6: no recs for i =   396           0
(PID.TID 0000.0001) ctrl-wet 6: no recs for i =   397           0
(PID.TID 0000.0001) ctrl-wet 6: no recs for i =   398           0
(PID.TID 0000.0001) ctrl-wet 6: no recs for i =   399           0
(PID.TID 0000.0001) ctrl-wet 6: no recs for i =   400           0
(PID.TID 0000.0001) ctrl-wet 7: flux         23088
(PID.TID 0000.0001) ctrl-wet 8: atmos        23088
(PID.TID 0000.0001) ctrl-wet -------------------------------------------------
(PID.TID 0000.0001) ctrl-wet 13: global nvarlength for Nr =   50    16909590
(PID.TID 0000.0001) ctrl-wet -------------------------------------------------
(PID.TID 0000.0001) ctrl-wet 14: global nWet C/S/W/V k=    1       60646       59295       59493           0
(PID.TID 0000.0001) ctrl-wet 14: global nWet C/S/W/V k=    2       60646       59295       59493           0
(PID.TID 0000.0001) ctrl-wet 14: global nWet C/S/W/V k=    3       59874       58517       58725           0
(PID.TID 0000.0001) ctrl-wet 14: global nWet C/S/W/V k=    4       59387       58040       58258           0
(PID.TID 0000.0001) ctrl-wet 14: global nWet C/S/W/V k=    5       58882       57536       57754           0
(PID.TID 0000.0001) ctrl-wet 14: global nWet C/S/W/V k=    6       58399       57057       57276           0
(PID.TID 0000.0001) ctrl-wet 14: global nWet C/S/W/V k=    7       58052       56735       56936           0
(PID.TID 0000.0001) ctrl-wet 14: global nWet C/S/W/V k=    8       57781       56461       56669           0
(PID.TID 0000.0001) ctrl-wet 14: global nWet C/S/W/V k=    9       57530       56212       56416           0
(PID.TID 0000.0001) ctrl-wet 14: global nWet C/S/W/V k=   10       57283       55964       56154           0
(PID.TID 0000.0001) ctrl-wet 14: global nWet C/S/W/V k=   11       57022       55702       55883           0
(PID.TID 0000.0001) ctrl-wet 14: global nWet C/S/W/V k=   12       56818       55497       55681           0
(PID.TID 0000.0001) ctrl-wet 14: global nWet C/S/W/V k=   13       56634       55322       55509           0
(PID.TID 0000.0001) ctrl-wet 14: global nWet C/S/W/V k=   14       56430       55125       55312           0
(PID.TID 0000.0001) ctrl-wet 14: global nWet C/S/W/V k=   15       56238       54935       55117           0
(PID.TID 0000.0001) ctrl-wet 14: global nWet C/S/W/V k=   16       55975       54689       54858           0
(PID.TID 0000.0001) ctrl-wet 14: global nWet C/S/W/V k=   17       55703       54421       54600           0
(PID.TID 0000.0001) ctrl-wet 14: global nWet C/S/W/V k=   18       55358       54075       54251           0
(PID.TID 0000.0001) ctrl-wet 14: global nWet C/S/W/V k=   19       54964       53666       53853           0
(PID.TID 0000.0001) ctrl-wet 14: global nWet C/S/W/V k=   20       54471       53205       53372           0
(PID.TID 0000.0001) ctrl-wet 14: global nWet C/S/W/V k=   21       53952       52716       52877           0
(PID.TID 0000.0001) ctrl-wet 14: global nWet C/S/W/V k=   22       53489       52249       52409           0
(PID.TID 0000.0001) ctrl-wet 14: global nWet C/S/W/V k=   23       52892       51633       51797           0
(PID.TID 0000.0001) ctrl-wet 14: global nWet C/S/W/V k=   24       52223       50961       51129           0
(PID.TID 0000.0001) ctrl-wet 14: global nWet C/S/W/V k=   25       51696       50480       50635           0
(PID.TID 0000.0001) ctrl-wet 14: global nWet C/S/W/V k=   26       51259       50075       50241           0
(PID.TID 0000.0001) ctrl-wet 14: global nWet C/S/W/V k=   27       50929       49774       49935           0
(PID.TID 0000.0001) ctrl-wet 14: global nWet C/S/W/V k=   28       50664       49532       49678           0
(PID.TID 0000.0001) ctrl-wet 14: global nWet C/S/W/V k=   29       50438       49306       49450           0
(PID.TID 0000.0001) ctrl-wet 14: global nWet C/S/W/V k=   30       50187       49035       49179           0
(PID.TID 0000.0001) ctrl-wet 14: global nWet C/S/W/V k=   31       49964       48805       48937           0
(PID.TID 0000.0001) ctrl-wet 14: global nWet C/S/W/V k=   32       49700       48530       48662           0
(PID.TID 0000.0001) ctrl-wet 14: global nWet C/S/W/V k=   33       49431       48260       48383           0
(PID.TID 0000.0001) ctrl-wet 14: global nWet C/S/W/V k=   34       49176       47993       48108           0
(PID.TID 0000.0001) ctrl-wet 14: global nWet C/S/W/V k=   35       48854       47652       47764           0
(PID.TID 0000.0001) ctrl-wet 14: global nWet C/S/W/V k=   36       48501       47264       47375           0
(PID.TID 0000.0001) ctrl-wet 14: global nWet C/S/W/V k=   37       48098       46846       46951           0
(PID.TID 0000.0001) ctrl-wet 14: global nWet C/S/W/V k=   38       47523       46253       46362           0
(PID.TID 0000.0001) ctrl-wet 14: global nWet C/S/W/V k=   39       46849       45558       45657           0
(PID.TID 0000.0001) ctrl-wet 14: global nWet C/S/W/V k=   40       45984       44670       44751           0
(PID.TID 0000.0001) ctrl-wet 14: global nWet C/S/W/V k=   41       44793       43419       43459           0
(PID.TID 0000.0001) ctrl-wet 14: global nWet C/S/W/V k=   42       42984       41497       41533           0
(PID.TID 0000.0001) ctrl-wet 14: global nWet C/S/W/V k=   43       40302       38691       38718           0
(PID.TID 0000.0001) ctrl-wet 14: global nWet C/S/W/V k=   44       36689       35007       35032           0
(PID.TID 0000.0001) ctrl-wet 14: global nWet C/S/W/V k=   45       31681       30069       29999           0
(PID.TID 0000.0001) ctrl-wet 14: global nWet C/S/W/V k=   46       25595       24028       24031           0
(PID.TID 0000.0001) ctrl-wet 14: global nWet C/S/W/V k=   47       18224       16890       16872           0
(PID.TID 0000.0001) ctrl-wet 14: global nWet C/S/W/V k=   48       11407       10397       10351           0
(PID.TID 0000.0001) ctrl-wet 14: global nWet C/S/W/V k=   49        4597        3913        3912           0
(PID.TID 0000.0001) ctrl-wet 14: global nWet C/S/W/V k=   50         818         624         622           0
(PID.TID 0000.0001) ctrl-wet -------------------------------------------------
(PID.TID 0000.0001) ctrl-wet -------------------------------------------------
(PID.TID 0000.0001) ctrl-wet -------------------------------------------------
(PID.TID 0000.0001) ctrl_init: no. of control variables:            8
(PID.TID 0000.0001) ctrl_init: control vector length:        16909590
(PID.TID 0000.0001) 
(PID.TID 0000.0001) // =======================================================
(PID.TID 0000.0001) // control vector configuration  >>> START <<<
(PID.TID 0000.0001) // =======================================================
(PID.TID 0000.0001) 
(PID.TID 0000.0001)  Total number of ocean points per tile:
(PID.TID 0000.0001)  --------------------------------------
(PID.TID 0000.0001)  snx*sny*nr =    45000
(PID.TID 0000.0001) 
(PID.TID 0000.0001)  Number of ocean points per tile:
(PID.TID 0000.0001)  --------------------------------
(PID.TID 0000.0001)  bi,bj,#(c/s/w): 0001 0001 011544 010207 011460
(PID.TID 0000.0001) 
(PID.TID 0000.0001)  Settings of generic controls:
(PID.TID 0000.0001)  -----------------------------
(PID.TID 0000.0001) 
(PID.TID 0000.0001)  ctrlUseGen  =     T /* use generic controls */
(PID.TID 0000.0001)  -> 2D control, genarr2d no.  1 is in use
(PID.TID 0000.0001)       file       = xx_etan
(PID.TID 0000.0001)       weight     = SSH_weights_nonseasonal_rms_areascaled.bin
(PID.TID 0000.0001)  preprocess = WC01
(PID.TID 0000.0001)  -> 3d control, genarr3d no.  1 is in use
(PID.TID 0000.0001)       file       = xx_theta
(PID.TID 0000.0001)       weight     = Theta_weights_nonseasonal_rmsv2_areascaled.bin
(PID.TID 0000.0001)  preprocess = WC01
(PID.TID 0000.0001)  -> 3d control, genarr3d no.  2 is in use
(PID.TID 0000.0001)       file       = xx_salt
(PID.TID 0000.0001)       weight     = Salt_weights_nonseasonal_rmsv2_areascaled.bin
(PID.TID 0000.0001)  preprocess = WC01
(PID.TID 0000.0001)  -> 3d control, genarr3d no.  3 is in use
(PID.TID 0000.0001)       file       = xx_kapgm
(PID.TID 0000.0001)       weight     = r2.wkapgmFldv2.data
(PID.TID 0000.0001)  preprocess = WC01
(PID.TID 0000.0001)  -> 3d control, genarr3d no.  4 is in use
(PID.TID 0000.0001)       file       = xx_kapredi
(PID.TID 0000.0001)       weight     = r2.wkaprediFldv2.data
(PID.TID 0000.0001)  preprocess = WC01
(PID.TID 0000.0001)  -> 3d control, genarr3d no.  5 is in use
(PID.TID 0000.0001)       file       = xx_diffkr
(PID.TID 0000.0001)       weight     = r2.wdiffkrFldv2.data
(PID.TID 0000.0001)  preprocess = WC01
(PID.TID 0000.0001)  -> 3d control, genarr3d no.  6 is in use
(PID.TID 0000.0001)       file       = xx_uvel
(PID.TID 0000.0001)       weight     = Uvel_weights_nonseasonal_rmsv2_areascaled.bin
(PID.TID 0000.0001)  preprocess = WC01
(PID.TID 0000.0001)  -> 3d control, genarr3d no.  7 is in use
(PID.TID 0000.0001)       file       = xx_vvel
(PID.TID 0000.0001)       weight     = Vvel_weights_nonseasonal_rmsv2_areascaled.bin
(PID.TID 0000.0001)  preprocess = WC01
(PID.TID 0000.0001) 
(PID.TID 0000.0001) // =======================================================
(PID.TID 0000.0001) // control vector configuration  >>> END <<<
(PID.TID 0000.0001) // =======================================================
(PID.TID 0000.0001) 
(PID.TID 0000.0001) INI_GLOBAL_DOMAIN: Found   0 CS-corner Pts in the domain
(PID.TID 0000.0001) %MON fCori_max                    =   1.4584096177006E-04
(PID.TID 0000.0001) %MON fCori_min                    =  -1.4429171327635E-04
(PID.TID 0000.0001) %MON fCori_mean                   =  -1.9531894197173E-06
(PID.TID 0000.0001) %MON fCori_sd                     =   1.0434730642309E-04
(PID.TID 0000.0001) %MON fCoriG_max                   =   1.4584247033981E-04
(PID.TID 0000.0001) %MON fCoriG_min                   =  -1.4435339896041E-04
(PID.TID 0000.0001) %MON fCoriG_mean                  =  -1.9303770726088E-06
(PID.TID 0000.0001) %MON fCoriG_sd                    =   1.0435958182593E-04
(PID.TID 0000.0001) %MON fCoriCos_max                 =   1.4584158744890E-04
(PID.TID 0000.0001) %MON fCoriCos_min                 =   6.6334365221135E-07
(PID.TID 0000.0001) %MON fCoriCos_mean                =   9.3876998486638E-05
(PID.TID 0000.0001) %MON fCoriCos_sd                  =   3.9559575367967E-05
(PID.TID 0000.0001) INI_CG2D: CG2D normalisation factor =  7.1522409280111305E-05
(PID.TID 0000.0001) 
(PID.TID 0000.0001) // =======================================================
(PID.TID 0000.0001) // Model configuration
(PID.TID 0000.0001) // =======================================================
(PID.TID 0000.0001) //
(PID.TID 0000.0001) // "Physical" paramters ( PARM01 in namelist )
(PID.TID 0000.0001) //
(PID.TID 0000.0001) buoyancyRelation = /* Type of relation to get Buoyancy */
(PID.TID 0000.0001)               'OCEANIC'
(PID.TID 0000.0001)     ;
(PID.TID 0000.0001) fluidIsAir   =  /* fluid major constituent is Air */
(PID.TID 0000.0001)                   F
(PID.TID 0000.0001)     ;
(PID.TID 0000.0001) fluidIsWater =  /* fluid major constituent is Water */
(PID.TID 0000.0001)                   T
(PID.TID 0000.0001)     ;
(PID.TID 0000.0001) usingPCoords =  /* use p (or p*) vertical coordinate */
(PID.TID 0000.0001)                   F
(PID.TID 0000.0001)     ;
(PID.TID 0000.0001) usingZCoords =  /* use z (or z*) vertical coordinate */
(PID.TID 0000.0001)                   T
(PID.TID 0000.0001)     ;
(PID.TID 0000.0001) tRef =   /* Reference temperature profile ( oC or K ) */
(PID.TID 0000.0001)     3 @  2.300000000000000E+01,             /* K =  1:  3 */
(PID.TID 0000.0001)     3 @  2.200000000000000E+01,             /* K =  4:  6 */
(PID.TID 0000.0001)                 2.100000000000000E+01,      /* K =  7 */
(PID.TID 0000.0001)     2 @  2.000000000000000E+01,             /* K =  8:  9 */
(PID.TID 0000.0001)                 1.900000000000000E+01,      /* K = 10 */
(PID.TID 0000.0001)     2 @  1.800000000000000E+01,             /* K = 11: 12 */
(PID.TID 0000.0001)                 1.700000000000000E+01,      /* K = 13 */
(PID.TID 0000.0001)     2 @  1.600000000000000E+01,             /* K = 14: 15 */
(PID.TID 0000.0001)                 1.500000000000000E+01,      /* K = 16 */
(PID.TID 0000.0001)                 1.400000000000000E+01,      /* K = 17 */
(PID.TID 0000.0001)                 1.300000000000000E+01,      /* K = 18 */
(PID.TID 0000.0001)                 1.200000000000000E+01,      /* K = 19 */
(PID.TID 0000.0001)                 1.100000000000000E+01,      /* K = 20 */
(PID.TID 0000.0001)     2 @  9.000000000000000E+00,             /* K = 21: 22 */
(PID.TID 0000.0001)                 8.000000000000000E+00,      /* K = 23 */
(PID.TID 0000.0001)                 7.000000000000000E+00,      /* K = 24 */
(PID.TID 0000.0001)     2 @  6.000000000000000E+00,             /* K = 25: 26 */
(PID.TID 0000.0001)     2 @  5.000000000000000E+00,             /* K = 27: 28 */
(PID.TID 0000.0001)     3 @  4.000000000000000E+00,             /* K = 29: 31 */
(PID.TID 0000.0001)     3 @  3.000000000000000E+00,             /* K = 32: 34 */
(PID.TID 0000.0001)     4 @  2.000000000000000E+00,             /* K = 35: 38 */
(PID.TID 0000.0001)    12 @  1.000000000000000E+00              /* K = 39: 50 */
(PID.TID 0000.0001)     ;
(PID.TID 0000.0001) sRef =   /* Reference salinity profile ( psu ) */
(PID.TID 0000.0001)    50 @  3.450000000000000E+01              /* K =  1: 50 */
(PID.TID 0000.0001)     ;
(PID.TID 0000.0001) useStrainTensionVisc= /* Use StrainTension Form of Viscous Operator */
(PID.TID 0000.0001)                   F
(PID.TID 0000.0001)     ;
(PID.TID 0000.0001) useVariableVisc = /* Use variable horizontal viscosity */
(PID.TID 0000.0001)                   T
(PID.TID 0000.0001)     ;
(PID.TID 0000.0001) useHarmonicVisc = /* Use harmonic horizontal viscosity */
(PID.TID 0000.0001)                   T
(PID.TID 0000.0001)     ;
(PID.TID 0000.0001) useBiharmonicVisc= /* Use biharmonic horiz.  viscosity */
(PID.TID 0000.0001)                   T
(PID.TID 0000.0001)     ;
(PID.TID 0000.0001) useSmag3D = /* Use isotropic 3-D Smagorinsky viscosity */
(PID.TID 0000.0001)                   F
(PID.TID 0000.0001)     ;
(PID.TID 0000.0001) viscAh  =   /* Lateral harmonic viscosity ( m^2/s ) */
(PID.TID 0000.0001)                 1.000000000000000E+00
(PID.TID 0000.0001)     ;
(PID.TID 0000.0001) viscAhMax = /* Maximum lateral harmonic viscosity ( m^2/s ) */
(PID.TID 0000.0001)                 1.000000000000000E+21
(PID.TID 0000.0001)     ;
(PID.TID 0000.0001) viscAhGrid = /* Grid dependent lateral harmonic viscosity ( non-dim. ) */
(PID.TID 0000.0001)                 2.000000000000000E-02
(PID.TID 0000.0001)     ;
(PID.TID 0000.0001) useFullLeith = /* Use Full Form of Leith Viscosity on/off flag*/
(PID.TID 0000.0001)                   F
(PID.TID 0000.0001)     ;
(PID.TID 0000.0001) useAreaViscLength = /* Use area for visc length instead of geom. mean*/
(PID.TID 0000.0001)                   F
(PID.TID 0000.0001)     ;
(PID.TID 0000.0001) viscC2leith = /* Leith harmonic visc. factor (on grad(vort),non-dim.) */
(PID.TID 0000.0001)                 0.000000000000000E+00
(PID.TID 0000.0001)     ;
(PID.TID 0000.0001) viscC2leithD = /* Leith harmonic viscosity factor (on grad(div),non-dim.)*/
(PID.TID 0000.0001)                 0.000000000000000E+00
(PID.TID 0000.0001)     ;
(PID.TID 0000.0001) viscC2smag = /* Smagorinsky harmonic viscosity factor (non-dim.) */
(PID.TID 0000.0001)                 0.000000000000000E+00
(PID.TID 0000.0001)     ;
(PID.TID 0000.0001) viscA4  =   /* Lateral biharmonic viscosity ( m^4/s ) */
(PID.TID 0000.0001)                 0.000000000000000E+00
(PID.TID 0000.0001)     ;
(PID.TID 0000.0001) viscA4Max = /* Maximum biharmonic viscosity ( m^2/s ) */
(PID.TID 0000.0001)                 1.000000000000000E+21
(PID.TID 0000.0001)     ;
(PID.TID 0000.0001) viscA4Grid = /* Grid dependent biharmonic viscosity ( non-dim. ) */
(PID.TID 0000.0001)                 0.000000000000000E+00
(PID.TID 0000.0001)     ;
(PID.TID 0000.0001) viscC4leith = /* Leith biharm viscosity factor (on grad(vort), non-dim.)*/
(PID.TID 0000.0001)                 0.000000000000000E+00
(PID.TID 0000.0001)     ;
(PID.TID 0000.0001) viscC4leithD = /* Leith biharm viscosity factor (on grad(div), non-dim.) */
(PID.TID 0000.0001)                 0.000000000000000E+00
(PID.TID 0000.0001)     ;
(PID.TID 0000.0001) viscC4Smag = /* Smagorinsky biharm viscosity factor (non-dim) */
(PID.TID 0000.0001)                 0.000000000000000E+00
(PID.TID 0000.0001)     ;
(PID.TID 0000.0001) no_slip_sides =  /* Viscous BCs: No-slip sides */
(PID.TID 0000.0001)                   T
(PID.TID 0000.0001)     ;
(PID.TID 0000.0001) sideDragFactor = /* side-drag scaling factor (non-dim) */
(PID.TID 0000.0001)                 2.000000000000000E+00
(PID.TID 0000.0001)     ;
(PID.TID 0000.0001) viscArNr = /* vertical profile of vertical viscosity ( m^2/s )*/
(PID.TID 0000.0001)    50 @  5.000000000000000E-05              /* K =  1: 50 */
(PID.TID 0000.0001)     ;
(PID.TID 0000.0001) no_slip_bottom =  /* Viscous BCs: No-slip bottom */
(PID.TID 0000.0001)                   T
(PID.TID 0000.0001)     ;
(PID.TID 0000.0001) bottomVisc_pCell = /* Partial-cell in bottom Visc. BC */
(PID.TID 0000.0001)                   F
(PID.TID 0000.0001)     ;
(PID.TID 0000.0001) bottomDragLinear = /* linear bottom-drag coefficient ( m/s ) */
(PID.TID 0000.0001)                 0.000000000000000E+00
(PID.TID 0000.0001)     ;
(PID.TID 0000.0001) bottomDragQuadratic = /* quadratic bottom-drag coefficient (-) */
(PID.TID 0000.0001)                 1.000000000000000E-03
(PID.TID 0000.0001)     ;
(PID.TID 0000.0001) selectBotDragQuadr = /* select quadratic bottom drag options */
(PID.TID 0000.0001)                       0
(PID.TID 0000.0001)     ;
(PID.TID 0000.0001) diffKhT =   /* Laplacian diffusion of heat laterally ( m^2/s ) */
(PID.TID 0000.0001)                 1.000000000000000E+01
(PID.TID 0000.0001)     ;
(PID.TID 0000.0001) diffK4T =   /* Biharmonic diffusion of heat laterally ( m^4/s ) */
(PID.TID 0000.0001)                 0.000000000000000E+00
(PID.TID 0000.0001)     ;
(PID.TID 0000.0001) diffKhS =   /* Laplacian diffusion of salt laterally ( m^2/s ) */
(PID.TID 0000.0001)                 1.000000000000000E+01
(PID.TID 0000.0001)     ;
(PID.TID 0000.0001) diffK4S =   /* Biharmonic diffusion of salt laterally ( m^4/s ) */
(PID.TID 0000.0001)                 0.000000000000000E+00
(PID.TID 0000.0001)     ;
(PID.TID 0000.0001) diffKrNrT = /* vertical profile of vertical diffusion of Temp ( m^2/s )*/
(PID.TID 0000.0001)    50 @  1.000000000000000E-05              /* K =  1: 50 */
(PID.TID 0000.0001)     ;
(PID.TID 0000.0001) diffKrNrS = /* vertical profile of vertical diffusion of Salt ( m^2/s )*/
(PID.TID 0000.0001)    50 @  1.000000000000000E-05              /* K =  1: 50 */
(PID.TID 0000.0001)     ;
(PID.TID 0000.0001) diffKrBL79surf = /* Surface diffusion for Bryan and Lewis 79 ( m^2/s ) */
(PID.TID 0000.0001)                 0.000000000000000E+00
(PID.TID 0000.0001)     ;
(PID.TID 0000.0001) diffKrBL79deep = /* Deep diffusion for Bryan and Lewis 1979 ( m^2/s ) */
(PID.TID 0000.0001)                 0.000000000000000E+00
(PID.TID 0000.0001)     ;
(PID.TID 0000.0001) diffKrBL79scl = /* Depth scale for Bryan and Lewis 1979 ( m ) */
(PID.TID 0000.0001)                 2.000000000000000E+02
(PID.TID 0000.0001)     ;
(PID.TID 0000.0001) diffKrBL79Ho = /* Turning depth for Bryan and Lewis 1979 ( m ) */
(PID.TID 0000.0001)                -2.000000000000000E+03
(PID.TID 0000.0001)     ;
(PID.TID 0000.0001) ivdc_kappa = /* Implicit Vertical Diffusivity for Convection ( m^2/s) */
(PID.TID 0000.0001)                 1.000000000000000E+01
(PID.TID 0000.0001)     ;
(PID.TID 0000.0001) hMixCriteria=  /* Criteria for mixed-layer diagnostic */
(PID.TID 0000.0001)                -8.000000000000000E-01
(PID.TID 0000.0001)     ;
(PID.TID 0000.0001) dRhoSmall =  /* Parameter for mixed-layer diagnostic */
(PID.TID 0000.0001)                 1.000000000000000E-06
(PID.TID 0000.0001)     ;
(PID.TID 0000.0001) hMixSmooth=  /* Smoothing parameter for mixed-layer diagnostic */
(PID.TID 0000.0001)                 0.000000000000000E+00
(PID.TID 0000.0001)     ;
(PID.TID 0000.0001) eosType =  /* Type of Equation of State */
(PID.TID 0000.0001)               'JMD95Z'
(PID.TID 0000.0001)     ;
(PID.TID 0000.0001) selectP_inEOS_Zc = /* select pressure to use in EOS (0,1,2,3) */
(PID.TID 0000.0001)                       0
(PID.TID 0000.0001)     0= -g*rhoConst*z ; 1= pRef (from tRef,sRef); 2= Hyd P ; 3= Hyd+NH P
(PID.TID 0000.0001)     ;
(PID.TID 0000.0001) HeatCapacity_Cp =  /* Specific heat capacity ( J/kg/K ) */
(PID.TID 0000.0001)                 3.994000000000000E+03
(PID.TID 0000.0001)     ;
(PID.TID 0000.0001) celsius2K = /* 0 degree Celsius converted to Kelvin ( K ) */
(PID.TID 0000.0001)                 2.731500000000000E+02
(PID.TID 0000.0001)     ;
(PID.TID 0000.0001) rhoConst  = /* Reference density (Boussinesq)  ( kg/m^3 ) */
(PID.TID 0000.0001)                 1.029000000000000E+03
(PID.TID 0000.0001)     ;
(PID.TID 0000.0001) rhoFacC = /* normalized Reference density @ cell-Center (-) */
(PID.TID 0000.0001)    50 @  1.000000000000000E+00              /* K =  1: 50 */
(PID.TID 0000.0001)     ;
(PID.TID 0000.0001) rhoFacF = /* normalized Reference density @ W-Interface (-) */
(PID.TID 0000.0001)    51 @  1.000000000000000E+00              /* K =  1: 51 */
(PID.TID 0000.0001)     ;
(PID.TID 0000.0001) rhoConstFresh = /* Fresh-water reference density ( kg/m^3 ) */
(PID.TID 0000.0001)                 1.000000000000000E+03
(PID.TID 0000.0001)     ;
(PID.TID 0000.0001) gravity =   /* Gravitational acceleration ( m/s^2 ) */
(PID.TID 0000.0001)                 9.810000000000000E+00
(PID.TID 0000.0001)     ;
(PID.TID 0000.0001) gBaro =   /* Barotropic gravity ( m/s^2 ) */
(PID.TID 0000.0001)                 9.810000000000000E+00
(PID.TID 0000.0001)     ;
(PID.TID 0000.0001) gravFacC = /* gravity factor (vs surf.) @ cell-Center (-) */
(PID.TID 0000.0001)    50 @  1.000000000000000E+00              /* K =  1: 50 */
(PID.TID 0000.0001)     ;
(PID.TID 0000.0001) gravFacF = /* gravity factor (vs surf.) @ W-Interface (-) */
(PID.TID 0000.0001)    51 @  1.000000000000000E+00              /* K =  1: 51 */
(PID.TID 0000.0001)     ;
(PID.TID 0000.0001) rotationPeriod =   /* Rotation Period ( s ) */
(PID.TID 0000.0001)                 8.616400000000000E+04
(PID.TID 0000.0001)     ;
(PID.TID 0000.0001) omega =   /* Angular velocity ( rad/s ) */
(PID.TID 0000.0001)                 7.292123516990375E-05
(PID.TID 0000.0001)     ;
(PID.TID 0000.0001) f0 =   /* Reference coriolis parameter ( 1/s ) */
(PID.TID 0000.0001)                 1.000000000000000E-04
(PID.TID 0000.0001)     ;
(PID.TID 0000.0001) beta =   /* Beta ( 1/(m.s) ) */
(PID.TID 0000.0001)                 9.999999999999999E-12
(PID.TID 0000.0001)     ;
(PID.TID 0000.0001) fPrime =   /* Second coriolis parameter ( 1/s ) */
(PID.TID 0000.0001)                 0.000000000000000E+00
(PID.TID 0000.0001)     ;
(PID.TID 0000.0001) rigidLid =   /* Rigid lid on/off flag */
(PID.TID 0000.0001)                   F
(PID.TID 0000.0001)     ;
(PID.TID 0000.0001) implicitFreeSurface =   /* Implicit free surface on/off flag */
(PID.TID 0000.0001)                   T
(PID.TID 0000.0001)     ;
(PID.TID 0000.0001) freeSurfFac =   /* Implicit free surface factor */
(PID.TID 0000.0001)                 1.000000000000000E+00
(PID.TID 0000.0001)     ;
(PID.TID 0000.0001) implicSurfPress =  /* Surface Pressure implicit factor (0-1)*/
(PID.TID 0000.0001)                 1.000000000000000E+00
(PID.TID 0000.0001)     ;
(PID.TID 0000.0001) implicDiv2DFlow =  /* Barot. Flow Div. implicit factor (0-1)*/
(PID.TID 0000.0001)                 1.000000000000000E+00
(PID.TID 0000.0001)     ;
(PID.TID 0000.0001) uniformLin_PhiSurf = /* use uniform Bo_surf on/off flag*/
(PID.TID 0000.0001)                   T
(PID.TID 0000.0001)     ;
(PID.TID 0000.0001) uniformFreeSurfLev = /* free-surface level-index is uniform */
(PID.TID 0000.0001)                   T
(PID.TID 0000.0001)     ;
(PID.TID 0000.0001) hFacMin =   /* minimum partial cell factor (hFac) */
(PID.TID 0000.0001)                 2.000000000000000E-01
(PID.TID 0000.0001)     ;
(PID.TID 0000.0001) hFacMinDr = /* minimum partial cell thickness ( m) */
(PID.TID 0000.0001)                 5.000000000000000E+00
(PID.TID 0000.0001)     ;
(PID.TID 0000.0001) exactConserv =  /* Exact Volume Conservation on/off flag*/
(PID.TID 0000.0001)                   T
(PID.TID 0000.0001)     ;
(PID.TID 0000.0001) linFSConserveTr = /* Tracer correction for Lin Free Surface on/off flag*/
(PID.TID 0000.0001)                   F
(PID.TID 0000.0001)     ;
(PID.TID 0000.0001) nonlinFreeSurf = /* Non-linear Free Surf. options (-1,0,1,2,3)*/
(PID.TID 0000.0001)                       4
(PID.TID 0000.0001)      -1,0= Off ; 1,2,3= On, 2=+rescale gU,gV, 3=+update cg2d solv.
(PID.TID 0000.0001)     ;
(PID.TID 0000.0001) hFacInf =   /* lower threshold for hFac (nonlinFreeSurf only)*/
(PID.TID 0000.0001)                 2.000000000000000E-01
(PID.TID 0000.0001)     ;
(PID.TID 0000.0001) hFacSup =   /* upper threshold for hFac (nonlinFreeSurf only)*/
(PID.TID 0000.0001)                 2.000000000000000E+00
(PID.TID 0000.0001)     ;
(PID.TID 0000.0001) select_rStar = /* r* Vertical coord. options (=0 r coord.; >0 uses r*)*/
(PID.TID 0000.0001)                       2
(PID.TID 0000.0001)     ;
(PID.TID 0000.0001) useRealFreshWaterFlux = /* Real Fresh Water Flux on/off flag*/
(PID.TID 0000.0001)                   T
(PID.TID 0000.0001)     ;
(PID.TID 0000.0001) temp_EvPrRn = /* Temp. of Evap/Prec/R (UNSET=use local T)(oC)*/
(PID.TID 0000.0001)                 1.234567000000000E+05
(PID.TID 0000.0001)     ;
(PID.TID 0000.0001) salt_EvPrRn = /* Salin. of Evap/Prec/R (UNSET=use local S)(psu)*/
(PID.TID 0000.0001)                 0.000000000000000E+00
(PID.TID 0000.0001)     ;
(PID.TID 0000.0001) selectAddFluid = /* option for mass source/sink of fluid (=0: off) */
(PID.TID 0000.0001)                       0
(PID.TID 0000.0001)     ;
(PID.TID 0000.0001) temp_addMass = /* Temp. of addMass array (UNSET=use local T)(oC)*/
(PID.TID 0000.0001)                 1.234567000000000E+05
(PID.TID 0000.0001)     ;
(PID.TID 0000.0001) salt_addMass = /* Salin. of addMass array (UNSET=use local S)(psu)*/
(PID.TID 0000.0001)                 0.000000000000000E+00
(PID.TID 0000.0001)     ;
(PID.TID 0000.0001) use3Dsolver = /* use 3-D pressure solver on/off flag */
(PID.TID 0000.0001)                   F
(PID.TID 0000.0001)     ;
(PID.TID 0000.0001) nonHydrostatic =  /* Non-Hydrostatic on/off flag */
(PID.TID 0000.0001)                   F
(PID.TID 0000.0001)     ;
(PID.TID 0000.0001) nh_Am2 = /* Non-Hydrostatic terms scaling factor */
(PID.TID 0000.0001)                 1.000000000000000E+00
(PID.TID 0000.0001)     ;
(PID.TID 0000.0001) implicitNHPress = /* Non-Hyd Pressure implicit factor (0-1)*/
(PID.TID 0000.0001)                 1.000000000000000E+00
(PID.TID 0000.0001)     ;
(PID.TID 0000.0001) selectNHfreeSurf = /* Non-Hyd (free-)Surface option */
(PID.TID 0000.0001)                       0
(PID.TID 0000.0001)     ;
(PID.TID 0000.0001) quasiHydrostatic = /* Quasi-Hydrostatic on/off flag */
(PID.TID 0000.0001)                   F
(PID.TID 0000.0001)     ;
(PID.TID 0000.0001) calc_wVelocity = /* vertical velocity calculation on/off flag */
(PID.TID 0000.0001)                   T
(PID.TID 0000.0001)     ;
(PID.TID 0000.0001) momStepping =  /* Momentum equation on/off flag */
(PID.TID 0000.0001)                   T
(PID.TID 0000.0001)     ;
(PID.TID 0000.0001) vectorInvariantMomentum= /* Vector-Invariant Momentum on/off */
(PID.TID 0000.0001)                   T
(PID.TID 0000.0001)     ;
(PID.TID 0000.0001) momAdvection =  /* Momentum advection on/off flag */
(PID.TID 0000.0001)                   T
(PID.TID 0000.0001)     ;
(PID.TID 0000.0001) momViscosity =  /* Momentum viscosity on/off flag */
(PID.TID 0000.0001)                   T
(PID.TID 0000.0001)     ;
(PID.TID 0000.0001) momImplVertAdv= /* Momentum implicit vert. advection on/off*/
(PID.TID 0000.0001)                   F
(PID.TID 0000.0001)     ;
(PID.TID 0000.0001) implicitViscosity = /* Implicit viscosity on/off flag */
(PID.TID 0000.0001)                   T
(PID.TID 0000.0001)     ;
(PID.TID 0000.0001) selectImplicitDrag= /* Implicit bot Drag options (0,1,2)*/
(PID.TID 0000.0001)                       0
(PID.TID 0000.0001)     0= Expl. ; 1= Impl. on provis. Vel ; 2= Fully Impl (with surf.P)
(PID.TID 0000.0001)     ;
(PID.TID 0000.0001) metricTerms =  /* metric-Terms on/off flag */
(PID.TID 0000.0001)                   F
(PID.TID 0000.0001)     ;
(PID.TID 0000.0001) useNHMTerms = /* Non-Hydrostatic Metric-Terms on/off */
(PID.TID 0000.0001)                   F
(PID.TID 0000.0001)     ;
(PID.TID 0000.0001) selectCoriMap = /* Coriolis Map options (0,1,2,3)*/
(PID.TID 0000.0001)                       2
(PID.TID 0000.0001)     0= f-Plane ; 1= Beta-Plane ; 2= Spherical ; 3= read from file
(PID.TID 0000.0001)     ;
(PID.TID 0000.0001) use3dCoriolis = /* 3-D Coriolis on/off flag */
(PID.TID 0000.0001)                   F
(PID.TID 0000.0001)     ;
(PID.TID 0000.0001) useCoriolis =  /* Coriolis on/off flag */
(PID.TID 0000.0001)                   T
(PID.TID 0000.0001)     ;
(PID.TID 0000.0001) useCDscheme =  /* CD scheme on/off flag */
(PID.TID 0000.0001)                   F
(PID.TID 0000.0001)     ;
(PID.TID 0000.0001) useEnergyConservingCoriolis= /* Flx-Form Coriolis scheme flag */
(PID.TID 0000.0001)                   F
(PID.TID 0000.0001)     ;
(PID.TID 0000.0001) useJamartWetPoints= /* Coriolis WetPoints method flag */
(PID.TID 0000.0001)                   T
(PID.TID 0000.0001)     ;
(PID.TID 0000.0001) useJamartMomAdv= /* V.I Non-linear terms Jamart flag */
(PID.TID 0000.0001)                   F
(PID.TID 0000.0001)     ;
(PID.TID 0000.0001) useAbsVorticity= /* V.I Works with f+zeta in Coriolis */
(PID.TID 0000.0001)                   F
(PID.TID 0000.0001)     ;
(PID.TID 0000.0001) selectVortScheme= /* V.I Scheme selector for Vorticity-Term */
(PID.TID 0000.0001)                       1
(PID.TID 0000.0001)    = 0 : enstrophy (Shallow-Water Eq.) conserving scheme by Sadourny, JAS 75
(PID.TID 0000.0001)    = 1 : same as 0 with modified hFac
(PID.TID 0000.0001)    = 2 : energy conserving scheme (used by Sadourny in JAS 75 paper)
(PID.TID 0000.0001)    = 3 : energy (general) and enstrophy (2D, nonDiv.) conserving scheme
(PID.TID 0000.0001)          from Sadourny (Burridge & Haseler, ECMWF Rep.4, 1977)
(PID.TID 0000.0001)     ;
(PID.TID 0000.0001) upwindVorticity= /* V.I Upwind bias vorticity flag */
(PID.TID 0000.0001)                   F
(PID.TID 0000.0001)     ;
(PID.TID 0000.0001) highOrderVorticity= /* V.I High order vort. advect. flag */
(PID.TID 0000.0001)                   F
(PID.TID 0000.0001)     ;
(PID.TID 0000.0001) upwindShear= /* V.I Upwind vertical Shear advection flag */
(PID.TID 0000.0001)                   F
(PID.TID 0000.0001)     ;
(PID.TID 0000.0001) selectKEscheme= /* V.I Kinetic Energy scheme selector */
(PID.TID 0000.0001)                       0
(PID.TID 0000.0001)     ;
(PID.TID 0000.0001) momForcing =  /* Momentum forcing on/off flag */
(PID.TID 0000.0001)                   T
(PID.TID 0000.0001)     ;
(PID.TID 0000.0001) momPressureForcing =  /* Momentum pressure term on/off flag */
(PID.TID 0000.0001)                   T
(PID.TID 0000.0001)     ;
(PID.TID 0000.0001) implicitIntGravWave= /* Implicit Internal Gravity Wave flag */
(PID.TID 0000.0001)                   F
(PID.TID 0000.0001)     ;
(PID.TID 0000.0001) staggerTimeStep =    /* Stagger time stepping on/off flag */
(PID.TID 0000.0001)                   T
(PID.TID 0000.0001)     ;
(PID.TID 0000.0001) doResetHFactors = /* reset thickness factors @ each time-step */
(PID.TID 0000.0001)                   T
(PID.TID 0000.0001)     ;
(PID.TID 0000.0001) multiDimAdvection =  /* enable/disable Multi-Dim Advection */
(PID.TID 0000.0001)                   T
(PID.TID 0000.0001)     ;
(PID.TID 0000.0001) useMultiDimAdvec =   /* Multi-Dim Advection is/is-not used */
(PID.TID 0000.0001)                   T
(PID.TID 0000.0001)     ;
(PID.TID 0000.0001) implicitDiffusion = /* Implicit Diffusion on/off flag */
(PID.TID 0000.0001)                   T
(PID.TID 0000.0001)     ;
(PID.TID 0000.0001) tempStepping =  /* Temperature equation on/off flag */
(PID.TID 0000.0001)                   T
(PID.TID 0000.0001)     ;
(PID.TID 0000.0001) tempAdvection = /* Temperature advection on/off flag */
(PID.TID 0000.0001)                   T
(PID.TID 0000.0001)     ;
(PID.TID 0000.0001) tempImplVertAdv = /* Temp. implicit vert. advection on/off */
(PID.TID 0000.0001)                   T
(PID.TID 0000.0001)     ;
(PID.TID 0000.0001) tempForcing  =  /* Temperature forcing on/off flag */
(PID.TID 0000.0001)                   T
(PID.TID 0000.0001)     ;
(PID.TID 0000.0001) balanceQnet  =  /* balance net heat-flux on/off flag */
(PID.TID 0000.0001)                   F
(PID.TID 0000.0001)     ;
(PID.TID 0000.0001) doThetaClimRelax = /* apply SST relaxation on/off flag */
(PID.TID 0000.0001)                   F
(PID.TID 0000.0001)     ;
(PID.TID 0000.0001) balanceThetaClimRelax= /* balance SST relaxation on/off flag */
(PID.TID 0000.0001)                   F
(PID.TID 0000.0001)     ;
(PID.TID 0000.0001) tempIsActiveTr = /* Temp. is a dynamically Active Tracer */
(PID.TID 0000.0001)                   T
(PID.TID 0000.0001)     ;
(PID.TID 0000.0001) saltStepping =  /* Salinity equation on/off flag */
(PID.TID 0000.0001)                   T
(PID.TID 0000.0001)     ;
(PID.TID 0000.0001) saltAdvection = /* Salinity advection on/off flag */
(PID.TID 0000.0001)                   T
(PID.TID 0000.0001)     ;
(PID.TID 0000.0001) saltImplVertAdv = /* Sali. implicit vert. advection on/off */
(PID.TID 0000.0001)                   T
(PID.TID 0000.0001)     ;
(PID.TID 0000.0001) saltForcing  =  /* Salinity forcing on/off flag */
(PID.TID 0000.0001)                   T
(PID.TID 0000.0001)     ;
(PID.TID 0000.0001) balanceEmPmR =  /* balance net fresh-water flux on/off flag */
(PID.TID 0000.0001)                   F
(PID.TID 0000.0001)     ;
(PID.TID 0000.0001) doSaltClimRelax = /* apply SSS relaxation on/off flag */
(PID.TID 0000.0001)                   F
(PID.TID 0000.0001)     ;
(PID.TID 0000.0001) balanceSaltClimRelax= /* balance SSS relaxation on/off flag */
(PID.TID 0000.0001)                   T
(PID.TID 0000.0001)     ;
(PID.TID 0000.0001) saltIsActiveTr = /* Salt  is a dynamically Active Tracer */
(PID.TID 0000.0001)                   T
(PID.TID 0000.0001)     ;
(PID.TID 0000.0001)  readBinaryPrec = /* Precision used for reading binary files */
(PID.TID 0000.0001)                      32
(PID.TID 0000.0001)     ;
(PID.TID 0000.0001) writeBinaryPrec = /* Precision used for writing binary files */
(PID.TID 0000.0001)                      32
(PID.TID 0000.0001)     ;
(PID.TID 0000.0001)  rwSuffixType =   /* select format of mds file suffix */
(PID.TID 0000.0001)                       0
(PID.TID 0000.0001)    = 0 : myIter (I10.10) ;   = 1 : 100*myTime (100th sec) ;
(PID.TID 0000.0001)    = 2 : myTime (seconds);   = 3 : myTime/360 (10th of hr);
(PID.TID 0000.0001)    = 4 : myTime/3600 (hours)
(PID.TID 0000.0001)     ;
(PID.TID 0000.0001)  globalFiles = /* write "global" (=not per tile) files */
(PID.TID 0000.0001)                   F
(PID.TID 0000.0001)     ;
(PID.TID 0000.0001)  useSingleCpuIO = /* only master MPI process does I/O */
(PID.TID 0000.0001)                   T
(PID.TID 0000.0001)     ;
(PID.TID 0000.0001)  useSingleCpuInput = /* only master process reads input */
(PID.TID 0000.0001)                   T
(PID.TID 0000.0001)     ;
(PID.TID 0000.0001) /* debLev[*]  : level of debug & auxiliary message printing */
(PID.TID 0000.0001) debLevZero =  0 ; /* level of disabled aux. msg printing */
(PID.TID 0000.0001)    debLevA =  1 ; /* level of minimum  aux. msg printing */
(PID.TID 0000.0001)    debLevB =  2 ; /* level of low aux. print (report read-file opening)*/
(PID.TID 0000.0001)    debLevC =  3 ; /* level of moderate debug prt (most pkgs debug msg) */
(PID.TID 0000.0001)    debLevD =  4 ; /* level of enhanced debug prt (add DEBUG_STATS prt) */
(PID.TID 0000.0001)    debLevE =  5 ; /* level of extensive debug printing */
(PID.TID 0000.0001) debugLevel =  /* select debug printing level */
(PID.TID 0000.0001)                       1
(PID.TID 0000.0001)     ;
(PID.TID 0000.0001)  plotLevel =  /* select PLOT_FIELD printing level */
(PID.TID 0000.0001)                       1
(PID.TID 0000.0001)     ;
(PID.TID 0000.0001) //
(PID.TID 0000.0001) // Elliptic solver(s) paramters ( PARM02 in namelist )
(PID.TID 0000.0001) //
(PID.TID 0000.0001) cg2dMaxIters =   /* Upper limit on 2d con. grad iterations  */
(PID.TID 0000.0001)                     300
(PID.TID 0000.0001)     ;
(PID.TID 0000.0001) cg2dChkResFreq =   /* 2d con. grad convergence test frequency */
(PID.TID 0000.0001)                       1
(PID.TID 0000.0001)     ;
(PID.TID 0000.0001) cg2dUseMinResSol= /* use cg2d last-iter(=0) / min-resid.(=1) solution */
(PID.TID 0000.0001)                       0
(PID.TID 0000.0001)     ;
(PID.TID 0000.0001) cg2dTargetResidual =   /* 2d con. grad target residual  */
(PID.TID 0000.0001)                 1.000000000000000E-07
(PID.TID 0000.0001)     ;
(PID.TID 0000.0001) cg2dTargetResWunit =   /* CG2d target residual [W units] */
(PID.TID 0000.0001)                -1.000000000000000E+00
(PID.TID 0000.0001)     ;
(PID.TID 0000.0001) cg2dPreCondFreq =   /* Freq. for updating cg2d preconditioner */
(PID.TID 0000.0001)                       1
(PID.TID 0000.0001)     ;
(PID.TID 0000.0001) useSRCGSolver =  /* use single reduction CG solver(s) */
(PID.TID 0000.0001)                   F
(PID.TID 0000.0001)     ;
(PID.TID 0000.0001) printResidualFreq = /* Freq. for printing CG residual */
(PID.TID 0000.0001)                       0
(PID.TID 0000.0001)     ;
(PID.TID 0000.0001) //
(PID.TID 0000.0001) // Time stepping paramters ( PARM03 in namelist )
(PID.TID 0000.0001) //
(PID.TID 0000.0001) deltaTMom =   /* Momentum equation timestep ( s ) */
(PID.TID 0000.0001)                 3.600000000000000E+03
(PID.TID 0000.0001)     ;
(PID.TID 0000.0001) deltaTFreeSurf = /* FreeSurface equation timestep ( s ) */
(PID.TID 0000.0001)                 3.600000000000000E+03
(PID.TID 0000.0001)     ;
(PID.TID 0000.0001) dTtracerLev =  /* Tracer equation timestep ( s ) */
(PID.TID 0000.0001)    50 @  3.600000000000000E+03              /* K =  1: 50 */
(PID.TID 0000.0001)     ;
(PID.TID 0000.0001) deltaTClock  =   /* Model clock timestep ( s ) */
(PID.TID 0000.0001)                 3.600000000000000E+03
(PID.TID 0000.0001)     ;
(PID.TID 0000.0001) cAdjFreq =   /* Convective adjustment interval ( s ) */
(PID.TID 0000.0001)                 0.000000000000000E+00
(PID.TID 0000.0001)     ;
(PID.TID 0000.0001) momForcingOutAB = /* =1: take Momentum Forcing out of Adams-Bash. stepping */
(PID.TID 0000.0001)                       1
(PID.TID 0000.0001)     ;
(PID.TID 0000.0001) tracForcingOutAB = /* =1: take T,S,pTr Forcing out of Adams-Bash. stepping */
(PID.TID 0000.0001)                       1
(PID.TID 0000.0001)     ;
(PID.TID 0000.0001) momDissip_In_AB = /* put Dissipation Tendency in Adams-Bash. stepping */
(PID.TID 0000.0001)                   F
(PID.TID 0000.0001)     ;
(PID.TID 0000.0001) doAB_onGtGs = /* apply AB on Tendencies (rather than on T,S)*/
(PID.TID 0000.0001)                   F
(PID.TID 0000.0001)     ;
(PID.TID 0000.0001) abEps =   /* Adams-Bashforth-2 stabilizing weight */
(PID.TID 0000.0001)                 1.000000000000000E-02
(PID.TID 0000.0001)     ;
(PID.TID 0000.0001) alph_AB =   /* Adams-Bashforth-3 primary factor */
(PID.TID 0000.0001)                 5.000000000000000E-01
(PID.TID 0000.0001)     ;
(PID.TID 0000.0001) beta_AB =   /* Adams-Bashforth-3 secondary factor */
(PID.TID 0000.0001)                 2.811050000000000E-01
(PID.TID 0000.0001)     ;
(PID.TID 0000.0001) startFromPickupAB2= /* start from AB-2 pickup */
(PID.TID 0000.0001)                   F
(PID.TID 0000.0001)     ;
(PID.TID 0000.0001) applyExchUV_early = /* Apply EXCH to U,V earlier in time-step */
(PID.TID 0000.0001)                   F
(PID.TID 0000.0001)     ;
(PID.TID 0000.0001) pickupStrictlyMatch= /* stop if pickup do not strictly match */
(PID.TID 0000.0001)                   F
(PID.TID 0000.0001)     ;
(PID.TID 0000.0001) nIter0   =   /* Run starting timestep number */
(PID.TID 0000.0001)                       1
(PID.TID 0000.0001)     ;
(PID.TID 0000.0001) nTimeSteps = /* Number of timesteps */
(PID.TID 0000.0001)                   13110
(PID.TID 0000.0001)     ;
(PID.TID 0000.0001) nEndIter =   /* Run ending timestep number */
(PID.TID 0000.0001)                   13111
(PID.TID 0000.0001)     ;
(PID.TID 0000.0001) baseTime =   /* Model base time ( s ) */
(PID.TID 0000.0001)                 0.000000000000000E+00
(PID.TID 0000.0001)     ;
(PID.TID 0000.0001) startTime =  /* Run start time ( s ) */
(PID.TID 0000.0001)                 3.600000000000000E+03
(PID.TID 0000.0001)     ;
(PID.TID 0000.0001) endTime  =   /* Integration ending time ( s ) */
(PID.TID 0000.0001)                 4.719960000000000E+07
(PID.TID 0000.0001)     ;
(PID.TID 0000.0001) pChkPtFreq = /* Permanent restart/pickup file interval ( s ) */
(PID.TID 0000.0001)                 3.153600000000000E+07
(PID.TID 0000.0001)     ;
(PID.TID 0000.0001) chkPtFreq  = /* Rolling restart/pickup file interval ( s ) */
(PID.TID 0000.0001)                 3.153600000000000E+07
(PID.TID 0000.0001)     ;
(PID.TID 0000.0001) pickup_write_mdsio =   /* Model IO flag. */
(PID.TID 0000.0001)                   T
(PID.TID 0000.0001)     ;
(PID.TID 0000.0001) pickup_read_mdsio =   /* Model IO flag. */
(PID.TID 0000.0001)                   T
(PID.TID 0000.0001)     ;
(PID.TID 0000.0001) writePickupAtEnd =   /* Model IO flag. */
(PID.TID 0000.0001)                   T
(PID.TID 0000.0001)     ;
(PID.TID 0000.0001) dumpFreq =   /* Model state write out interval ( s ). */
(PID.TID 0000.0001)                 0.000000000000000E+00
(PID.TID 0000.0001)     ;
(PID.TID 0000.0001) dumpInitAndLast= /* write out Initial & Last iter. model state */
(PID.TID 0000.0001)                   T
(PID.TID 0000.0001)     ;
(PID.TID 0000.0001) snapshot_mdsio =   /* Model IO flag. */
(PID.TID 0000.0001)                   T
(PID.TID 0000.0001)     ;
(PID.TID 0000.0001) monitorFreq =   /* Monitor output interval ( s ). */
(PID.TID 0000.0001)                 6.307200000000000E+06
(PID.TID 0000.0001)     ;
(PID.TID 0000.0001) monitorSelect = /* select group of variables to monitor */
(PID.TID 0000.0001)                       3
(PID.TID 0000.0001)     ;
(PID.TID 0000.0001) monitor_stdio =   /* Model IO flag. */
(PID.TID 0000.0001)                   T
(PID.TID 0000.0001)     ;
(PID.TID 0000.0001) externForcingPeriod =   /* forcing period (s) */
(PID.TID 0000.0001)                 0.000000000000000E+00
(PID.TID 0000.0001)     ;
(PID.TID 0000.0001) externForcingCycle =   /* period of the cyle (s). */
(PID.TID 0000.0001)                 0.000000000000000E+00
(PID.TID 0000.0001)     ;
(PID.TID 0000.0001) tauThetaClimRelax =   /* relaxation time scale (s) */
(PID.TID 0000.0001)                 0.000000000000000E+00
(PID.TID 0000.0001)     ;
(PID.TID 0000.0001) tauSaltClimRelax =   /* relaxation time scale (s) */
(PID.TID 0000.0001)                 0.000000000000000E+00
(PID.TID 0000.0001)     ;
(PID.TID 0000.0001) latBandClimRelax =   /* max. Lat. where relaxation */
(PID.TID 0000.0001)                 1.800000000000000E+02
(PID.TID 0000.0001)     ;
(PID.TID 0000.0001) //
(PID.TID 0000.0001) // Gridding paramters ( PARM04 in namelist )
(PID.TID 0000.0001) //
(PID.TID 0000.0001) usingCartesianGrid = /* Cartesian coordinates flag ( True/False ) */
(PID.TID 0000.0001)                   F
(PID.TID 0000.0001)     ;
(PID.TID 0000.0001) usingCylindricalGrid = /* Cylindrical coordinates flag ( True/False ) */
(PID.TID 0000.0001)                   F
(PID.TID 0000.0001)     ;
(PID.TID 0000.0001) usingSphericalPolarGrid = /* Spherical coordinates flag ( True/False ) */
(PID.TID 0000.0001)                   F
(PID.TID 0000.0001)     ;
(PID.TID 0000.0001) usingCurvilinearGrid = /* Curvilinear coordinates flag ( True/False ) */
(PID.TID 0000.0001)                   T
(PID.TID 0000.0001)     ;
(PID.TID 0000.0001) selectSigmaCoord = /* Hybrid-Sigma Vert. Coordinate option */
(PID.TID 0000.0001)                       0
(PID.TID 0000.0001)     ;
(PID.TID 0000.0001) rSigmaBnd = /* r/sigma transition ( units of r ==  m ) */
(PID.TID 0000.0001)                 1.234567000000000E+05
(PID.TID 0000.0001)     ;
(PID.TID 0000.0001) rkSign =   /* index orientation relative to vertical coordinate */
(PID.TID 0000.0001)                -1.000000000000000E+00
(PID.TID 0000.0001)     ;
(PID.TID 0000.0001) gravitySign = /* gravity orientation relative to vertical coordinate */
(PID.TID 0000.0001)                -1.000000000000000E+00
(PID.TID 0000.0001)     ;
(PID.TID 0000.0001) seaLev_Z =  /* reference height of sea-level [m] */
(PID.TID 0000.0001)                 0.000000000000000E+00
(PID.TID 0000.0001)     ;
(PID.TID 0000.0001) top_Pres =  /* reference pressure at the top [Pa] */
(PID.TID 0000.0001)                 0.000000000000000E+00
(PID.TID 0000.0001)     ;
(PID.TID 0000.0001) mass2rUnit = /* convert mass per unit area [kg/m2] to r-units [m] */
(PID.TID 0000.0001)                 9.718172983479105E-04
(PID.TID 0000.0001)     ;
(PID.TID 0000.0001) rUnit2mass = /* convert r-units [m] to mass per unit area [kg/m2] */
(PID.TID 0000.0001)                 1.029000000000000E+03
(PID.TID 0000.0001)     ;
(PID.TID 0000.0001) drC =   /* C spacing ( units of r ) */
(PID.TID 0000.0001)                 5.000000000000000E+00,      /* K =  1 */
(PID.TID 0000.0001)     6 @  1.000000000000000E+01,             /* K =  2:  7 */
(PID.TID 0000.0001)                 1.000500000000000E+01,      /* K =  8 */
(PID.TID 0000.0001)                 1.002000000000000E+01,      /* K =  9 */
(PID.TID 0000.0001)                 1.007000000000000E+01,      /* K = 10 */
(PID.TID 0000.0001)                 1.021500000000000E+01,      /* K = 11 */
(PID.TID 0000.0001)                 1.056000000000000E+01,      /* K = 12 */
(PID.TID 0000.0001)                 1.128000000000000E+01,      /* K = 13 */
(PID.TID 0000.0001)                 1.259000000000000E+01,      /* K = 14 */
(PID.TID 0000.0001)                 1.473000000000000E+01,      /* K = 15 */
(PID.TID 0000.0001)                 1.793000000000000E+01,      /* K = 16 */
(PID.TID 0000.0001)                 2.233500000000000E+01,      /* K = 17 */
(PID.TID 0000.0001)                 2.797500000000000E+01,      /* K = 18 */
(PID.TID 0000.0001)                 3.476000000000001E+01,      /* K = 19 */
(PID.TID 0000.0001)                 4.246000000000000E+01,      /* K = 20 */
(PID.TID 0000.0001)                 5.075000000000000E+01,      /* K = 21 */
(PID.TID 0000.0001)                 5.925000000000000E+01,      /* K = 22 */
(PID.TID 0000.0001)                 6.753999999999999E+01,      /* K = 23 */
(PID.TID 0000.0001)                 7.524000000000001E+01,      /* K = 24 */
(PID.TID 0000.0001)                 8.202500000000001E+01,      /* K = 25 */
(PID.TID 0000.0001)                 8.766500000000001E+01,      /* K = 26 */
(PID.TID 0000.0001)                 9.206999999999999E+01,      /* K = 27 */
(PID.TID 0000.0001)                 9.527000000000000E+01,      /* K = 28 */
(PID.TID 0000.0001)                 9.741499999999999E+01,      /* K = 29 */
(PID.TID 0000.0001)                 9.875000000000000E+01,      /* K = 30 */
(PID.TID 0000.0001)                 9.963000000000000E+01,      /* K = 31 */
(PID.TID 0000.0001)                 1.006700000000000E+02,      /* K = 32 */
(PID.TID 0000.0001)                 1.029450000000000E+02,      /* K = 33 */
(PID.TID 0000.0001)                 1.079450000000000E+02,      /* K = 34 */
(PID.TID 0000.0001)                 1.170800000000000E+02,      /* K = 35 */
(PID.TID 0000.0001)                 1.309600000000000E+02,      /* K = 36 */
(PID.TID 0000.0001)                 1.490150000000000E+02,      /* K = 37 */
(PID.TID 0000.0001)                 1.698850000000000E+02,      /* K = 38 */
(PID.TID 0000.0001)                 1.921900000000000E+02,      /* K = 39 */
(PID.TID 0000.0001)                 2.150250000000000E+02,      /* K = 40 */
(PID.TID 0000.0001)                 2.380000000000000E+02,      /* K = 41 */
(PID.TID 0000.0001)                 2.610000000000000E+02,      /* K = 42 */
(PID.TID 0000.0001)                 2.840000000000000E+02,      /* K = 43 */
(PID.TID 0000.0001)                 3.070000000000000E+02,      /* K = 44 */
(PID.TID 0000.0001)                 3.300000000000000E+02,      /* K = 45 */
(PID.TID 0000.0001)                 3.530000000000000E+02,      /* K = 46 */
(PID.TID 0000.0001)                 3.760000000000000E+02,      /* K = 47 */
(PID.TID 0000.0001)                 3.990000000000000E+02,      /* K = 48 */
(PID.TID 0000.0001)                 4.220000000000000E+02,      /* K = 49 */
(PID.TID 0000.0001)                 4.450000000000000E+02,      /* K = 50 */
(PID.TID 0000.0001)                 2.282500000000000E+02       /* K = 51 */
(PID.TID 0000.0001)     ;
(PID.TID 0000.0001) drF =   /* W spacing ( units of r ) */
(PID.TID 0000.0001)     7 @  1.000000000000000E+01,             /* K =  1:  7 */
(PID.TID 0000.0001)                 1.001000000000000E+01,      /* K =  8 */
(PID.TID 0000.0001)                 1.003000000000000E+01,      /* K =  9 */
(PID.TID 0000.0001)                 1.011000000000000E+01,      /* K = 10 */
(PID.TID 0000.0001)                 1.032000000000000E+01,      /* K = 11 */
(PID.TID 0000.0001)                 1.080000000000000E+01,      /* K = 12 */
(PID.TID 0000.0001)                 1.176000000000000E+01,      /* K = 13 */
(PID.TID 0000.0001)                 1.342000000000000E+01,      /* K = 14 */
(PID.TID 0000.0001)                 1.604000000000000E+01,      /* K = 15 */
(PID.TID 0000.0001)                 1.982000000000000E+01,      /* K = 16 */
(PID.TID 0000.0001)                 2.485000000000000E+01,      /* K = 17 */
(PID.TID 0000.0001)                 3.110000000000000E+01,      /* K = 18 */
(PID.TID 0000.0001)                 3.842000000000000E+01,      /* K = 19 */
(PID.TID 0000.0001)                 4.650000000000000E+01,      /* K = 20 */
(PID.TID 0000.0001)                 5.500000000000000E+01,      /* K = 21 */
(PID.TID 0000.0001)                 6.350000000000000E+01,      /* K = 22 */
(PID.TID 0000.0001)                 7.158000000000000E+01,      /* K = 23 */
(PID.TID 0000.0001)                 7.890000000000001E+01,      /* K = 24 */
(PID.TID 0000.0001)                 8.515000000000001E+01,      /* K = 25 */
(PID.TID 0000.0001)                 9.018000000000001E+01,      /* K = 26 */
(PID.TID 0000.0001)                 9.395999999999999E+01,      /* K = 27 */
(PID.TID 0000.0001)                 9.658000000000000E+01,      /* K = 28 */
(PID.TID 0000.0001)                 9.825000000000000E+01,      /* K = 29 */
(PID.TID 0000.0001)                 9.925000000000000E+01,      /* K = 30 */
(PID.TID 0000.0001)                 1.000100000000000E+02,      /* K = 31 */
(PID.TID 0000.0001)                 1.013300000000000E+02,      /* K = 32 */
(PID.TID 0000.0001)                 1.045600000000000E+02,      /* K = 33 */
(PID.TID 0000.0001)                 1.113300000000000E+02,      /* K = 34 */
(PID.TID 0000.0001)                 1.228300000000000E+02,      /* K = 35 */
(PID.TID 0000.0001)                 1.390900000000000E+02,      /* K = 36 */
(PID.TID 0000.0001)                 1.589400000000000E+02,      /* K = 37 */
(PID.TID 0000.0001)                 1.808300000000000E+02,      /* K = 38 */
(PID.TID 0000.0001)                 2.035500000000000E+02,      /* K = 39 */
(PID.TID 0000.0001)                 2.265000000000000E+02,      /* K = 40 */
(PID.TID 0000.0001)                 2.495000000000000E+02,      /* K = 41 */
(PID.TID 0000.0001)                 2.725000000000000E+02,      /* K = 42 */
(PID.TID 0000.0001)                 2.955000000000000E+02,      /* K = 43 */
(PID.TID 0000.0001)                 3.185000000000000E+02,      /* K = 44 */
(PID.TID 0000.0001)                 3.415000000000000E+02,      /* K = 45 */
(PID.TID 0000.0001)                 3.645000000000000E+02,      /* K = 46 */
(PID.TID 0000.0001)                 3.875000000000000E+02,      /* K = 47 */
(PID.TID 0000.0001)                 4.105000000000000E+02,      /* K = 48 */
(PID.TID 0000.0001)                 4.335000000000000E+02,      /* K = 49 */
(PID.TID 0000.0001)                 4.565000000000000E+02       /* K = 50 */
(PID.TID 0000.0001)     ;
(PID.TID 0000.0001) radius_fromHorizGrid = /* sphere Radius of input horiz. grid */
(PID.TID 0000.0001)                 6.370000000000000E+06
(PID.TID 0000.0001)     ;
(PID.TID 0000.0001) rSphere =  /* Radius ( ignored - cartesian, m - spherical ) */
(PID.TID 0000.0001)                 6.370000000000000E+06
(PID.TID 0000.0001)     ;
(PID.TID 0000.0001) deepAtmosphere = /* Deep/Shallow Atmosphere flag (True/False) */
(PID.TID 0000.0001)                   F
(PID.TID 0000.0001)     ;
(PID.TID 0000.0001) xC =  /* xC(:,1,:,1) : P-point X coord ( deg. or m if cartesian) */
(PID.TID 0000.0001)                -4.081468768806280E+01,      /* I =  1 */
(PID.TID 0000.0001)                -3.957104986057077E+01,      /* I =  2 */
(PID.TID 0000.0001)                -3.832217028656162E+01,      /* I =  3 */
(PID.TID 0000.0001)                -3.706844413107324E+01,      /* I =  4 */
(PID.TID 0000.0001)                -3.581028225779612E+01,      /* I =  5 */
(PID.TID 0000.0001)                -3.454811012006861E+01,      /* I =  6 */
(PID.TID 0000.0001)                -3.328236654497336E+01,      /* I =  7 */
(PID.TID 0000.0001)                -3.201350241727823E+01,      /* I =  8 */
(PID.TID 0000.0001)                -3.074197927113779E+01,      /* I =  9 */
(PID.TID 0000.0001)                -2.946826779826338E+01,      /* I = 10 */
(PID.TID 0000.0001)                -2.819284628214859E+01,      /* I = 11 */
(PID.TID 0000.0001)                -2.691619896217756E+01,      /* I = 12 */
(PID.TID 0000.0001)                -2.563881425705264E+01,      /* I = 13 */
(PID.TID 0000.0001)                -2.436118574294736E+01,      /* I = 14 */
(PID.TID 0000.0001)                -2.308380103782244E+01,      /* I = 15 */
(PID.TID 0000.0001)                -2.180715371785141E+01,      /* I = 16 */
(PID.TID 0000.0001)                -2.053173220173662E+01,      /* I = 17 */
(PID.TID 0000.0001)                -1.925802072886221E+01,      /* I = 18 */
(PID.TID 0000.0001)                -1.798649758272177E+01,      /* I = 19 */
(PID.TID 0000.0001)                -1.671763345502664E+01,      /* I = 20 */
(PID.TID 0000.0001)                -1.545188987993139E+01,      /* I = 21 */
(PID.TID 0000.0001)                -1.418971774220388E+01,      /* I = 22 */
(PID.TID 0000.0001)                -1.293155586892676E+01,      /* I = 23 */
(PID.TID 0000.0001)                -1.167782971343838E+01,      /* I = 24 */
(PID.TID 0000.0001)                -1.042895013942923E+01,      /* I = 25 */
(PID.TID 0000.0001)                -9.185312311937196E+00,      /* I = 26 */
(PID.TID 0000.0001)                -7.947294700425999E+00,      /* I = 27 */
(PID.TID 0000.0001)                -6.715258197621779E+00,      /* I = 28 */
(PID.TID 0000.0001)                -5.489545357070952E+00,      /* I = 29 */
(PID.TID 0000.0001)                -4.270479749729759E+00       /* I = 30 */
(PID.TID 0000.0001)     ;
(PID.TID 0000.0001) yC =  /* yC(1,:,1,:) : P-point Y coord ( deg. or m if cartesian) */
(PID.TID 0000.0001)                -8.146222940368236E+01,      /* J =  1 */
(PID.TID 0000.0001)                -8.113083815286421E+01,      /* J =  2 */
(PID.TID 0000.0001)                -8.079504828233755E+01,      /* J =  3 */
(PID.TID 0000.0001)                -8.045491317322768E+01,      /* J =  4 */
(PID.TID 0000.0001)                -8.011048280590389E+01,      /* J =  5 */
(PID.TID 0000.0001)                -7.976180430515704E+01,      /* J =  6 */
(PID.TID 0000.0001)                -7.940892240526760E+01,      /* J =  7 */
(PID.TID 0000.0001)                -7.905187984845006E+01,      /* J =  8 */
(PID.TID 0000.0001)                -7.869071772754813E+01,      /* J =  9 */
(PID.TID 0000.0001)                -7.832547578199167E+01,      /* J = 10 */
(PID.TID 0000.0001)                -7.795619265432416E+01,      /* J = 11 */
(PID.TID 0000.0001)                -7.758290611340497E+01,      /* J = 12 */
(PID.TID 0000.0001)                -7.720565324926896E+01,      /* J = 13 */
(PID.TID 0000.0001)                -7.682447064385434E+01,      /* J = 14 */
(PID.TID 0000.0001)                -7.643939452107085E+01,      /* J = 15 */
(PID.TID 0000.0001)                -7.605046087901695E+01,      /* J = 16 */
(PID.TID 0000.0001)                -7.565770560699295E+01,      /* J = 17 */
(PID.TID 0000.0001)                -7.526116458910658E+01,      /* J = 18 */
(PID.TID 0000.0001)                -7.486087379640449E+01,      /* J = 19 */
(PID.TID 0000.0001)                -7.445686936886233E+01,      /* J = 20 */
(PID.TID 0000.0001)                -7.404918768854837E+01,      /* J = 21 */
(PID.TID 0000.0001)                -7.363786544493549E+01,      /* J = 22 */
(PID.TID 0000.0001)                -7.322293969328220E+01,      /* J = 23 */
(PID.TID 0000.0001)                -7.280444790682334E+01,      /* J = 24 */
(PID.TID 0000.0001)                -7.238242802328044E+01,      /* J = 25 */
(PID.TID 0000.0001)                -7.195691848614972E+01,      /* J = 26 */
(PID.TID 0000.0001)                -7.152795828082729E+01,      /* J = 27 */
(PID.TID 0000.0001)                -7.109558696482472E+01,      /* J = 28 */
(PID.TID 0000.0001)                -7.065984468855757E+01,      /* J = 29 */
(PID.TID 0000.0001)                -7.022077218177122E+01       /* J = 30 */
(PID.TID 0000.0001)     ;
(PID.TID 0000.0001) rcoord = /* P-point R coordinate (  units of r ) */
(PID.TID 0000.0001)                -5.000000000000000E+00,      /* K =  1 */
(PID.TID 0000.0001)                -1.500000000000000E+01,      /* K =  2 */
(PID.TID 0000.0001)                -2.500000000000000E+01,      /* K =  3 */
(PID.TID 0000.0001)                -3.500000000000000E+01,      /* K =  4 */
(PID.TID 0000.0001)                -4.500000000000000E+01,      /* K =  5 */
(PID.TID 0000.0001)                -5.500000000000000E+01,      /* K =  6 */
(PID.TID 0000.0001)                -6.500000000000000E+01,      /* K =  7 */
(PID.TID 0000.0001)                -7.500500000000000E+01,      /* K =  8 */
(PID.TID 0000.0001)                -8.502499999999999E+01,      /* K =  9 */
(PID.TID 0000.0001)                -9.509500000000000E+01,      /* K = 10 */
(PID.TID 0000.0001)                -1.053100000000000E+02,      /* K = 11 */
(PID.TID 0000.0001)                -1.158700000000000E+02,      /* K = 12 */
(PID.TID 0000.0001)                -1.271500000000000E+02,      /* K = 13 */
(PID.TID 0000.0001)                -1.397400000000000E+02,      /* K = 14 */
(PID.TID 0000.0001)                -1.544700000000000E+02,      /* K = 15 */
(PID.TID 0000.0001)                -1.724000000000000E+02,      /* K = 16 */
(PID.TID 0000.0001)                -1.947350000000000E+02,      /* K = 17 */
(PID.TID 0000.0001)                -2.227100000000000E+02,      /* K = 18 */
(PID.TID 0000.0001)                -2.574700000000000E+02,      /* K = 19 */
(PID.TID 0000.0001)                -2.999300000000000E+02,      /* K = 20 */
(PID.TID 0000.0001)                -3.506800000000000E+02,      /* K = 21 */
(PID.TID 0000.0001)                -4.099300000000000E+02,      /* K = 22 */
(PID.TID 0000.0001)                -4.774700000000000E+02,      /* K = 23 */
(PID.TID 0000.0001)                -5.527100000000000E+02,      /* K = 24 */
(PID.TID 0000.0001)                -6.347350000000000E+02,      /* K = 25 */
(PID.TID 0000.0001)                -7.224000000000000E+02,      /* K = 26 */
(PID.TID 0000.0001)                -8.144700000000000E+02,      /* K = 27 */
(PID.TID 0000.0001)                -9.097400000000000E+02,      /* K = 28 */
(PID.TID 0000.0001)                -1.007155000000000E+03,      /* K = 29 */
(PID.TID 0000.0001)                -1.105905000000000E+03,      /* K = 30 */
(PID.TID 0000.0001)                -1.205535000000000E+03,      /* K = 31 */
(PID.TID 0000.0001)                -1.306205000000000E+03,      /* K = 32 */
(PID.TID 0000.0001)                -1.409150000000000E+03,      /* K = 33 */
(PID.TID 0000.0001)                -1.517095000000000E+03,      /* K = 34 */
(PID.TID 0000.0001)                -1.634175000000000E+03,      /* K = 35 */
(PID.TID 0000.0001)                -1.765135000000000E+03,      /* K = 36 */
(PID.TID 0000.0001)                -1.914150000000000E+03,      /* K = 37 */
(PID.TID 0000.0001)                -2.084035000000000E+03,      /* K = 38 */
(PID.TID 0000.0001)                -2.276225000000000E+03,      /* K = 39 */
(PID.TID 0000.0001)                -2.491250000000000E+03,      /* K = 40 */
(PID.TID 0000.0001)                -2.729250000000000E+03,      /* K = 41 */
(PID.TID 0000.0001)                -2.990250000000000E+03,      /* K = 42 */
(PID.TID 0000.0001)                -3.274250000000000E+03,      /* K = 43 */
(PID.TID 0000.0001)                -3.581250000000000E+03,      /* K = 44 */
(PID.TID 0000.0001)                -3.911250000000000E+03,      /* K = 45 */
(PID.TID 0000.0001)                -4.264250000000000E+03,      /* K = 46 */
(PID.TID 0000.0001)                -4.640250000000000E+03,      /* K = 47 */
(PID.TID 0000.0001)                -5.039250000000000E+03,      /* K = 48 */
(PID.TID 0000.0001)                -5.461250000000000E+03,      /* K = 49 */
(PID.TID 0000.0001)                -5.906250000000000E+03       /* K = 50 */
(PID.TID 0000.0001)     ;
(PID.TID 0000.0001) rF =   /* W-Interf. R coordinate (  units of r ) */
(PID.TID 0000.0001)                 0.000000000000000E+00,      /* K =  1 */
(PID.TID 0000.0001)                -1.000000000000000E+01,      /* K =  2 */
(PID.TID 0000.0001)                -2.000000000000000E+01,      /* K =  3 */
(PID.TID 0000.0001)                -3.000000000000000E+01,      /* K =  4 */
(PID.TID 0000.0001)                -4.000000000000000E+01,      /* K =  5 */
(PID.TID 0000.0001)                -5.000000000000000E+01,      /* K =  6 */
(PID.TID 0000.0001)                -6.000000000000000E+01,      /* K =  7 */
(PID.TID 0000.0001)                -7.000000000000000E+01,      /* K =  8 */
(PID.TID 0000.0001)                -8.001000000000001E+01,      /* K =  9 */
(PID.TID 0000.0001)                -9.004000000000001E+01,      /* K = 10 */
(PID.TID 0000.0001)                -1.001500000000000E+02,      /* K = 11 */
(PID.TID 0000.0001)                -1.104700000000000E+02,      /* K = 12 */
(PID.TID 0000.0001)                -1.212700000000000E+02,      /* K = 13 */
(PID.TID 0000.0001)                -1.330300000000000E+02,      /* K = 14 */
(PID.TID 0000.0001)                -1.464500000000000E+02,      /* K = 15 */
(PID.TID 0000.0001)                -1.624900000000000E+02,      /* K = 16 */
(PID.TID 0000.0001)                -1.823100000000000E+02,      /* K = 17 */
(PID.TID 0000.0001)                -2.071600000000000E+02,      /* K = 18 */
(PID.TID 0000.0001)                -2.382600000000000E+02,      /* K = 19 */
(PID.TID 0000.0001)                -2.766799999999999E+02,      /* K = 20 */
(PID.TID 0000.0001)                -3.231799999999999E+02,      /* K = 21 */
(PID.TID 0000.0001)                -3.781799999999999E+02,      /* K = 22 */
(PID.TID 0000.0001)                -4.416799999999999E+02,      /* K = 23 */
(PID.TID 0000.0001)                -5.132600000000000E+02,      /* K = 24 */
(PID.TID 0000.0001)                -5.921600000000000E+02,      /* K = 25 */
(PID.TID 0000.0001)                -6.773099999999999E+02,      /* K = 26 */
(PID.TID 0000.0001)                -7.674900000000000E+02,      /* K = 27 */
(PID.TID 0000.0001)                -8.614500000000000E+02,      /* K = 28 */
(PID.TID 0000.0001)                -9.580300000000001E+02,      /* K = 29 */
(PID.TID 0000.0001)                -1.056280000000000E+03,      /* K = 30 */
(PID.TID 0000.0001)                -1.155530000000000E+03,      /* K = 31 */
(PID.TID 0000.0001)                -1.255540000000000E+03,      /* K = 32 */
(PID.TID 0000.0001)                -1.356870000000000E+03,      /* K = 33 */
(PID.TID 0000.0001)                -1.461430000000000E+03,      /* K = 34 */
(PID.TID 0000.0001)                -1.572760000000000E+03,      /* K = 35 */
(PID.TID 0000.0001)                -1.695590000000000E+03,      /* K = 36 */
(PID.TID 0000.0001)                -1.834680000000000E+03,      /* K = 37 */
(PID.TID 0000.0001)                -1.993620000000000E+03,      /* K = 38 */
(PID.TID 0000.0001)                -2.174450000000000E+03,      /* K = 39 */
(PID.TID 0000.0001)                -2.378000000000000E+03,      /* K = 40 */
(PID.TID 0000.0001)                -2.604500000000000E+03,      /* K = 41 */
(PID.TID 0000.0001)                -2.854000000000000E+03,      /* K = 42 */
(PID.TID 0000.0001)                -3.126500000000000E+03,      /* K = 43 */
(PID.TID 0000.0001)                -3.422000000000000E+03,      /* K = 44 */
(PID.TID 0000.0001)                -3.740500000000000E+03,      /* K = 45 */
(PID.TID 0000.0001)                -4.082000000000000E+03,      /* K = 46 */
(PID.TID 0000.0001)                -4.446500000000000E+03,      /* K = 47 */
(PID.TID 0000.0001)                -4.834000000000000E+03,      /* K = 48 */
(PID.TID 0000.0001)                -5.244500000000000E+03,      /* K = 49 */
(PID.TID 0000.0001)                -5.678000000000000E+03,      /* K = 50 */
(PID.TID 0000.0001)                -6.134500000000000E+03       /* K = 51 */
(PID.TID 0000.0001)     ;
(PID.TID 0000.0001) deepFacC = /* deep-model grid factor @ cell-Center (-) */
(PID.TID 0000.0001)    50 @  1.000000000000000E+00              /* K =  1: 50 */
(PID.TID 0000.0001)     ;
(PID.TID 0000.0001) deepFacF = /* deep-model grid factor @ W-Interface (-) */
(PID.TID 0000.0001)    51 @  1.000000000000000E+00              /* K =  1: 51 */
(PID.TID 0000.0001)     ;
(PID.TID 0000.0001) rVel2wUnit = /* convert units: rVel -> wSpeed (=1 if z-coord)*/
(PID.TID 0000.0001)    51 @  1.000000000000000E+00              /* K =  1: 51 */
(PID.TID 0000.0001)     ;
(PID.TID 0000.0001) wUnit2rVel = /* convert units: wSpeed -> rVel (=1 if z-coord)*/
(PID.TID 0000.0001)    51 @  1.000000000000000E+00              /* K =  1: 51 */
(PID.TID 0000.0001)     ;
(PID.TID 0000.0001) dBdrRef = /* Vertical grad. of reference buoyancy [(m/s/r)^2] */
(PID.TID 0000.0001)     3 @  0.000000000000000E+00,             /* K =  1:  3 */
(PID.TID 0000.0001)                 2.706065538651213E-04,      /* K =  4 */
(PID.TID 0000.0001)     2 @  0.000000000000000E+00,             /* K =  5:  6 */
(PID.TID 0000.0001)                 2.632794562663490E-04,      /* K =  7 */
(PID.TID 0000.0001)                 2.554318021231947E-04,      /* K =  8 */
(PID.TID 0000.0001)                 0.000000000000000E+00,      /* K =  9 */
(PID.TID 0000.0001)                 2.461524232360562E-04,      /* K = 10 */
(PID.TID 0000.0001)                 2.348694431245364E-04,      /* K = 11 */
(PID.TID 0000.0001)                 0.000000000000000E+00,      /* K = 12 */
(PID.TID 0000.0001)                 2.056847859884567E-04,      /* K = 13 */
(PID.TID 0000.0001)                 1.777764506003336E-04,      /* K = 14 */
(PID.TID 0000.0001)                 0.000000000000000E+00,      /* K = 15 */
(PID.TID 0000.0001)                 1.203533867077665E-04,      /* K = 16 */
(PID.TID 0000.0001)                 9.288540355629585E-05,      /* K = 17 */
(PID.TID 0000.0001)                 7.115862770365155E-05,      /* K = 18 */
(PID.TID 0000.0001)                 5.484365820540037E-05,      /* K = 19 */
(PID.TID 0000.0001)                 4.290935507108109E-05,      /* K = 20 */
(PID.TID 0000.0001)                 6.658747741708151E-05,      /* K = 21 */
(PID.TID 0000.0001)                 0.000000000000000E+00,      /* K = 22 */
(PID.TID 0000.0001)                 2.323718420338827E-05,      /* K = 23 */
(PID.TID 0000.0001)                 1.974682037962757E-05,      /* K = 24 */
(PID.TID 0000.0001)                 1.709468932536602E-05,      /* K = 25 */
(PID.TID 0000.0001)                 0.000000000000000E+00,      /* K = 26 */
(PID.TID 0000.0001)                 1.455436545977052E-05,      /* K = 27 */
(PID.TID 0000.0001)                 0.000000000000000E+00,      /* K = 28 */
(PID.TID 0000.0001)                 1.315287111980149E-05,      /* K = 29 */
(PID.TID 0000.0001)     2 @  0.000000000000000E+00,             /* K = 30: 31 */
(PID.TID 0000.0001)                 1.240968507885233E-05,      /* K = 32 */
(PID.TID 0000.0001)     2 @  0.000000000000000E+00,             /* K = 33: 34 */
(PID.TID 0000.0001)                 1.045141607962718E-05,      /* K = 35 */
(PID.TID 0000.0001)     3 @  0.000000000000000E+00,             /* K = 36: 38 */
(PID.TID 0000.0001)                 6.628797113720784E-06,      /* K = 39 */
(PID.TID 0000.0001)    11 @  0.000000000000000E+00              /* K = 40: 50 */
(PID.TID 0000.0001)     ;
(PID.TID 0000.0001) rotateGrid = /* use rotated grid ( True/False ) */
(PID.TID 0000.0001)                   F
(PID.TID 0000.0001)     ;
(PID.TID 0000.0001) phiEuler = /* Euler angle, rotation about original z-coordinate [rad] */
(PID.TID 0000.0001)                 0.000000000000000E+00
(PID.TID 0000.0001)     ;
(PID.TID 0000.0001) thetaEuler = /* Euler angle, rotation about new x-coordinate [rad] */
(PID.TID 0000.0001)                 0.000000000000000E+00
(PID.TID 0000.0001)     ;
(PID.TID 0000.0001) psiEuler = /* Euler angle, rotation about new z-coordinate [rad] */
(PID.TID 0000.0001)                 0.000000000000000E+00
(PID.TID 0000.0001)     ;
(PID.TID 0000.0001) dxF =  /* dxF(:,1,:,1) ( units: m ) */
(PID.TID 0000.0001)                 2.071152825743187E+04,      /* I =  1 */
(PID.TID 0000.0001)                 2.070365142756831E+04,      /* I =  2 */
(PID.TID 0000.0001)                 2.069635296570141E+04,      /* I =  3 */
(PID.TID 0000.0001)                 2.068965358413176E+04,      /* I =  4 */
(PID.TID 0000.0001)                 2.068357195583360E+04,      /* I =  5 */
(PID.TID 0000.0001)                 2.067812475356784E+04,      /* I =  6 */
(PID.TID 0000.0001)                 2.067332670125947E+04,      /* I =  7 */
(PID.TID 0000.0001)                 2.066919060389092E+04,      /* I =  8 */
(PID.TID 0000.0001)                 2.066572738985245E+04,      /* I =  9 */
(PID.TID 0000.0001)                 2.066294615597989E+04,      /* I = 10 */
(PID.TID 0000.0001)                 2.066085425372315E+04,      /* I = 11 */
(PID.TID 0000.0001)                 2.065945771525925E+04,      /* I = 12 */
(PID.TID 0000.0001)                 2.065874381268158E+04,      /* I = 13 */
(PID.TID 0000.0001)                 2.065874381268158E+04,      /* I = 14 */
(PID.TID 0000.0001)                 2.065945771525925E+04,      /* I = 15 */
(PID.TID 0000.0001)                 2.066085425372316E+04,      /* I = 16 */
(PID.TID 0000.0001)                 2.066294615597989E+04,      /* I = 17 */
(PID.TID 0000.0001)                 2.066572738985245E+04,      /* I = 18 */
(PID.TID 0000.0001)                 2.066919060389088E+04,      /* I = 19 */
(PID.TID 0000.0001)                 2.067332670125956E+04,      /* I = 20 */
(PID.TID 0000.0001)                 2.067812475356780E+04,      /* I = 21 */
(PID.TID 0000.0001)                 2.068357195583360E+04,      /* I = 22 */
(PID.TID 0000.0001)                 2.068965358413182E+04,      /* I = 23 */
(PID.TID 0000.0001)                 2.069635296570133E+04,      /* I = 24 */
(PID.TID 0000.0001)                 2.070365142756836E+04,      /* I = 25 */
(PID.TID 0000.0001)                 2.071152825743182E+04,      /* I = 26 */
(PID.TID 0000.0001)                 2.071996065138743E+04,      /* I = 27 */
(PID.TID 0000.0001)                 2.072892365863983E+04,      /* I = 28 */
(PID.TID 0000.0001)                 2.073839012765668E+04,      /* I = 29 */
(PID.TID 0000.0001)                 2.074833063718403E+04       /* I = 30 */
(PID.TID 0000.0001)     ;
(PID.TID 0000.0001) dxF =  /* dxF(1,:,1,:) ( units: m ) */
(PID.TID 0000.0001)                 2.071152825743187E+04,      /* J =  1 */
(PID.TID 0000.0001)                 2.109117491456033E+04,      /* J =  2 */
(PID.TID 0000.0001)                 2.148525648961724E+04,      /* J =  3 */
(PID.TID 0000.0001)                 2.189377348588603E+04,      /* J =  4 */
(PID.TID 0000.0001)                 2.231672440915243E+04,      /* J =  5 */
(PID.TID 0000.0001)                 2.275410689480659E+04,      /* J =  6 */
(PID.TID 0000.0001)                 2.320591873318126E+04,      /* J =  7 */
(PID.TID 0000.0001)                 2.367215879054831E+04,      /* J =  8 */
(PID.TID 0000.0001)                 2.415282782538908E+04,      /* J =  9 */
(PID.TID 0000.0001)                 2.464792920101809E+04,      /* J = 10 */
(PID.TID 0000.0001)                 2.515746949702995E+04,      /* J = 11 */
(PID.TID 0000.0001)                 2.568145902315334E+04,      /* J = 12 */
(PID.TID 0000.0001)                 2.621991223981432E+04,      /* J = 13 */
(PID.TID 0000.0001)                 2.677284809033052E+04,      /* J = 14 */
(PID.TID 0000.0001)                 2.734029025013979E+04,      /* J = 15 */
(PID.TID 0000.0001)                 2.792226729855568E+04,      /* J = 16 */
(PID.TID 0000.0001)                 2.851881281852892E+04,      /* J = 17 */
(PID.TID 0000.0001)                 2.912996543046302E+04,      /* J = 18 */
(PID.TID 0000.0001)                 2.975576876502299E+04,      /* J = 19 */
(PID.TID 0000.0001)                 3.039627138062681E+04,      /* J = 20 */
(PID.TID 0000.0001)                 3.105152663065675E+04,      /* J = 21 */
(PID.TID 0000.0001)                 3.172159248542454E+04,      /* J = 22 */
(PID.TID 0000.0001)                 3.240653131349731E+04,      /* J = 23 */
(PID.TID 0000.0001)                 3.310640962675057E+04,      /* J = 24 */
(PID.TID 0000.0001)                 3.382129779388320E+04,      /* J = 25 */
(PID.TID 0000.0001)                 3.455126972555294E+04,      /* J = 26 */
(PID.TID 0000.0001)                 3.529640253603521E+04,      /* J = 27 */
(PID.TID 0000.0001)                 3.605677618612848E+04,      /* J = 28 */
(PID.TID 0000.0001)                 3.683247311866502E+04,      /* J = 29 */
(PID.TID 0000.0001)                 3.762357793548112E+04       /* J = 30 */
(PID.TID 0000.0001)     ;
(PID.TID 0000.0001) dyF =  /* dyF(:,1,:,1) ( units: m ) */
(PID.TID 0000.0001)                 3.700742300337598E+04,      /* I =  1 */
(PID.TID 0000.0001)                 3.707905556394973E+04,      /* I =  2 */
(PID.TID 0000.0001)                 3.714471828319018E+04,      /* I =  3 */
(PID.TID 0000.0001)                 3.720441078960103E+04,      /* I =  4 */
(PID.TID 0000.0001)                 3.725813297080282E+04,      /* I =  5 */
(PID.TID 0000.0001)                 3.730588490725751E+04,      /* I =  6 */
(PID.TID 0000.0001)                 3.734766681359038E+04,      /* I =  7 */
(PID.TID 0000.0001)                 3.738347898712025E+04,      /* I =  8 */
(PID.TID 0000.0001)                 3.741332176340629E+04,      /* I =  9 */
(PID.TID 0000.0001)                 3.743719547859261E+04,      /* I = 10 */
(PID.TID 0000.0001)                 3.745510043824806E+04,      /* I = 11 */
(PID.TID 0000.0001)                 3.746703689267323E+04,      /* I = 12 */
(PID.TID 0000.0001)     2 @  3.747300501832417E+04,             /* I = 13: 14 */
(PID.TID 0000.0001)                 3.746703689267323E+04,      /* I = 15 */
(PID.TID 0000.0001)                 3.745510043824806E+04,      /* I = 16 */
(PID.TID 0000.0001)                 3.743719547859261E+04,      /* I = 17 */
(PID.TID 0000.0001)                 3.741332176340628E+04,      /* I = 18 */
(PID.TID 0000.0001)                 3.738347898712024E+04,      /* I = 19 */
(PID.TID 0000.0001)                 3.734766681359040E+04,      /* I = 20 */
(PID.TID 0000.0001)                 3.730588490725750E+04,      /* I = 21 */
(PID.TID 0000.0001)                 3.725813297080281E+04,      /* I = 22 */
(PID.TID 0000.0001)                 3.720441078960103E+04,      /* I = 23 */
(PID.TID 0000.0001)                 3.714471828319017E+04,      /* I = 24 */
(PID.TID 0000.0001)                 3.707905556394973E+04,      /* I = 25 */
(PID.TID 0000.0001)                 3.700742300337599E+04,      /* I = 26 */
(PID.TID 0000.0001)                 3.692982130617692E+04,      /* I = 27 */
(PID.TID 0000.0001)                 3.684625159269555E+04,      /* I = 28 */
(PID.TID 0000.0001)                 3.675671548992459E+04,      /* I = 29 */
(PID.TID 0000.0001)                 3.666121523181524E+04       /* I = 30 */
(PID.TID 0000.0001)     ;
(PID.TID 0000.0001) dyF =  /* dyF(1,:,1,:) ( units: m ) */
(PID.TID 0000.0001)                 3.700742300337598E+04,      /* J =  1 */
(PID.TID 0000.0001)                 3.745555642044499E+04,      /* J =  2 */
(PID.TID 0000.0001)                 3.790206217653974E+04,      /* J =  3 */
(PID.TID 0000.0001)                 3.834684105117956E+04,      /* J =  4 */
(PID.TID 0000.0001)                 3.878979459357282E+04,      /* J =  5 */
(PID.TID 0000.0001)                 3.923082521328924E+04,      /* J =  6 */
(PID.TID 0000.0001)                 3.966983623246408E+04,      /* J =  7 */
(PID.TID 0000.0001)                 4.010673190475840E+04,      /* J =  8 */
(PID.TID 0000.0001)                 4.054141740950450E+04,      /* J =  9 */
(PID.TID 0000.0001)                 4.097379882434454E+04,      /* J = 10 */
(PID.TID 0000.0001)                 4.140378308084428E+04,      /* J = 11 */
(PID.TID 0000.0001)                 4.183127790875583E+04,      /* J = 12 */
(PID.TID 0000.0001)                 4.225619177206317E+04,      /* J = 13 */
(PID.TID 0000.0001)                 4.267843379867976E+04,      /* J = 14 */
(PID.TID 0000.0001)                 4.309791371221616E+04,      /* J = 15 */
(PID.TID 0000.0001)                 4.351454176087940E+04,      /* J = 16 */
(PID.TID 0000.0001)                 4.392822864881465E+04,      /* J = 17 */
(PID.TID 0000.0001)                 4.433888547805120E+04,      /* J = 18 */
(PID.TID 0000.0001)                 4.474642369096899E+04,      /* J = 19 */
(PID.TID 0000.0001)                 4.515075502217317E+04,      /* J = 20 */
(PID.TID 0000.0001)                 4.555179145554101E+04,      /* J = 21 */
(PID.TID 0000.0001)                 4.594944520275577E+04,      /* J = 22 */
(PID.TID 0000.0001)                 4.634362867401398E+04,      /* J = 23 */
(PID.TID 0000.0001)                 4.673425447947427E+04,      /* J = 24 */
(PID.TID 0000.0001)                 4.712123544873745E+04,      /* J = 25 */
(PID.TID 0000.0001)                 4.750448467975499E+04,      /* J = 26 */
(PID.TID 0000.0001)                 4.788391567392174E+04,      /* J = 27 */
(PID.TID 0000.0001)                 4.825944271092693E+04,      /* J = 28 */
(PID.TID 0000.0001)                 4.863098220111143E+04,      /* J = 29 */
(PID.TID 0000.0001)                 4.899845499569884E+04       /* J = 30 */
(PID.TID 0000.0001)     ;
(PID.TID 0000.0001) dxG =  /* dxG(:,1,:,1) ( units: m ) */
(PID.TID 0000.0001)                 2.052711702021451E+04,      /* I =  1 */
(PID.TID 0000.0001)                 2.051953983526162E+04,      /* I =  2 */
(PID.TID 0000.0001)                 2.051251425926268E+04,      /* I =  3 */
(PID.TID 0000.0001)                 2.050606148013825E+04,      /* I =  4 */
(PID.TID 0000.0001)                 2.050020059906299E+04,      /* I =  5 */
(PID.TID 0000.0001)                 2.049494867086169E+04,      /* I =  6 */
(PID.TID 0000.0001)                 2.049032075633103E+04,      /* I =  7 */
(PID.TID 0000.0001)                 2.048632995314923E+04,      /* I =  8 */
(PID.TID 0000.0001)                 2.048298743895549E+04,      /* I =  9 */
(PID.TID 0000.0001)                 2.048030251694177E+04,      /* I = 10 */
(PID.TID 0000.0001)                 2.047828270203973E+04,      /* I = 11 */
(PID.TID 0000.0001)                 2.047693414389448E+04,      /* I = 12 */
(PID.TID 0000.0001)     2 @  2.047624433858785E+04,             /* I = 13: 14 */
(PID.TID 0000.0001)                 2.047693414389443E+04,      /* I = 15 */
(PID.TID 0000.0001)                 2.047828270203978E+04,      /* I = 16 */
(PID.TID 0000.0001)                 2.048030251694177E+04,      /* I = 17 */
(PID.TID 0000.0001)                 2.048298743895548E+04,      /* I = 18 */
(PID.TID 0000.0001)                 2.048632995314927E+04,      /* I = 19 */
(PID.TID 0000.0001)                 2.049032075633093E+04,      /* I = 20 */
(PID.TID 0000.0001)                 2.049494867086174E+04,      /* I = 21 */
(PID.TID 0000.0001)                 2.050020059906297E+04,      /* I = 22 */
(PID.TID 0000.0001)                 2.050606148013830E+04,      /* I = 23 */
(PID.TID 0000.0001)                 2.051251425926268E+04,      /* I = 24 */
(PID.TID 0000.0001)                 2.051953983526163E+04,      /* I = 25 */
(PID.TID 0000.0001)                 2.052711702021443E+04,      /* I = 26 */
(PID.TID 0000.0001)                 2.053522248594683E+04,      /* I = 27 */
(PID.TID 0000.0001)                 2.054383070727552E+04,      /* I = 28 */
(PID.TID 0000.0001)                 2.055291390664790E+04,      /* I = 29 */
(PID.TID 0000.0001)                 2.056244198352907E+04       /* I = 30 */
(PID.TID 0000.0001)     ;
(PID.TID 0000.0001) dxG =  /* dxG(1,:,1,:) ( units: m ) */
(PID.TID 0000.0001)                 2.052711702021451E+04,      /* J =  1 */
(PID.TID 0000.0001)                 2.089954736357391E+04,      /* J =  2 */
(PID.TID 0000.0001)                 2.128641124518697E+04,      /* J =  3 */
(PID.TID 0000.0001)                 2.168771062037700E+04,      /* J =  4 */
(PID.TID 0000.0001)                 2.210344484655194E+04,      /* J =  5 */
(PID.TID 0000.0001)                 2.253361185972884E+04,      /* J =  6 */
(PID.TID 0000.0001)                 2.297820925105574E+04,      /* J =  7 */
(PID.TID 0000.0001)                 2.343723524028478E+04,      /* J =  8 */
(PID.TID 0000.0001)                 2.391068954427550E+04,      /* J =  9 */
(PID.TID 0000.0001)                 2.439857414125275E+04,      /* J = 10 */
(PID.TID 0000.0001)                 2.490089393241153E+04,      /* J = 11 */
(PID.TID 0000.0001)                 2.541765730414359E+04,      /* J = 12 */
(PID.TID 0000.0001)                 2.594887659459613E+04,      /* J = 13 */
(PID.TID 0000.0001)                 2.649456846940333E+04,      /* J = 14 */
(PID.TID 0000.0001)                 2.705475421181358E+04,      /* J = 15 */
(PID.TID 0000.0001)                 2.762945993231310E+04,      /* J = 16 */
(PID.TID 0000.0001)                 2.821871670385097E+04,      /* J = 17 */
(PID.TID 0000.0001)                 2.882256062780631E+04,      /* J = 18 */
(PID.TID 0000.0001)                 2.944103283669238E+04,      /* J = 19 */
(PID.TID 0000.0001)                 3.007417943861200E+04,      /* J = 20 */
(PID.TID 0000.0001)                 3.072205140902393E+04,      /* J = 21 */
(PID.TID 0000.0001)                 3.138470443467240E+04,      /* J = 22 */
(PID.TID 0000.0001)                 3.206219871470027E+04,      /* J = 23 */
(PID.TID 0000.0001)                 3.275459872326910E+04,      /* J = 24 */
(PID.TID 0000.0001)                 3.346197293831744E+04,      /* J = 25 */
(PID.TID 0000.0001)                 3.418439354048331E+04,      /* J = 26 */
(PID.TID 0000.0001)                 3.492193608585089E+04,      /* J = 27 */
(PID.TID 0000.0001)                 3.567467915738818E+04,      /* J = 28 */
(PID.TID 0000.0001)                 3.644270400216877E+04,      /* J = 29 */
(PID.TID 0000.0001)                 3.722609417427087E+04       /* J = 30 */
(PID.TID 0000.0001)     ;
(PID.TID 0000.0001) dyG =  /* dyG(:,1,:,1) ( units: m ) */
(PID.TID 0000.0001)                 3.696936823759973E+04,      /* I =  1 */
(PID.TID 0000.0001)                 3.704398547852144E+04,      /* I =  2 */
(PID.TID 0000.0001)                 3.711263318385338E+04,      /* I =  3 */
(PID.TID 0000.0001)                 3.717531082528212E+04,      /* I =  4 */
(PID.TID 0000.0001)                 3.723201816961422E+04,      /* I =  5 */
(PID.TID 0000.0001)                 3.728275520872145E+04,      /* I =  6 */
(PID.TID 0000.0001)                 3.732752209699158E+04,      /* I =  7 */
(PID.TID 0000.0001)                 3.736631909640826E+04,      /* I =  8 */
(PID.TID 0000.0001)                 3.739914652852553E+04,      /* I =  9 */
(PID.TID 0000.0001)                 3.742600473350589E+04,      /* I = 10 */
(PID.TID 0000.0001)                 3.744689403567852E+04,      /* I = 11 */
(PID.TID 0000.0001)                 3.746181471567877E+04,      /* I = 12 */
(PID.TID 0000.0001)                 3.747076698884368E+04,      /* I = 13 */
(PID.TID 0000.0001)                 3.747376174977726E+04,      /* I = 14 */
(PID.TID 0000.0001)                 3.747076698884368E+04,      /* I = 15 */
(PID.TID 0000.0001)                 3.746181471567877E+04,      /* I = 16 */
(PID.TID 0000.0001)                 3.744689403567852E+04,      /* I = 17 */
(PID.TID 0000.0001)                 3.742600473350589E+04,      /* I = 18 */
(PID.TID 0000.0001)                 3.739914652852552E+04,      /* I = 19 */
(PID.TID 0000.0001)                 3.736631909640826E+04,      /* I = 20 */
(PID.TID 0000.0001)                 3.732752209699157E+04,      /* I = 21 */
(PID.TID 0000.0001)                 3.728275520872146E+04,      /* I = 22 */
(PID.TID 0000.0001)                 3.723201816961422E+04,      /* I = 23 */
(PID.TID 0000.0001)                 3.717531082528211E+04,      /* I = 24 */
(PID.TID 0000.0001)                 3.711263318385338E+04,      /* I = 25 */
(PID.TID 0000.0001)                 3.704398547852145E+04,      /* I = 26 */
(PID.TID 0000.0001)                 3.696936823759972E+04,      /* I = 27 */
(PID.TID 0000.0001)                 3.688878236278851E+04,      /* I = 28 */
(PID.TID 0000.0001)                 3.680222921581766E+04,      /* I = 29 */
(PID.TID 0000.0001)                 3.670971071402137E+04       /* I = 30 */
(PID.TID 0000.0001)     ;
(PID.TID 0000.0001) dyG =  /* dyG(1,:,1,:) ( units: m ) */
(PID.TID 0000.0001)                 3.696936823759973E+04,      /* J =  1 */
(PID.TID 0000.0001)                 3.741746190559281E+04,      /* J =  2 */
(PID.TID 0000.0001)                 3.786390067184393E+04,      /* J =  3 */
(PID.TID 0000.0001)                 3.830858172733455E+04,      /* J =  4 */
(PID.TID 0000.0001)                 3.875140319955796E+04,      /* J =  5 */
(PID.TID 0000.0001)                 3.919226424948571E+04,      /* J =  6 */
(PID.TID 0000.0001)                 3.963106512715793E+04,      /* J =  7 */
(PID.TID 0000.0001)                 4.006770719102380E+04,      /* J =  8 */
(PID.TID 0000.0001)                 4.050209290047463E+04,      /* J =  9 */
(PID.TID 0000.0001)                 4.093412578484027E+04,      /* J = 10 */
(PID.TID 0000.0001)                 4.136371039407872E+04,      /* J = 11 */
(PID.TID 0000.0001)                 4.179075223673176E+04,      /* J = 12 */
(PID.TID 0000.0001)                 4.221515770920290E+04,      /* J = 13 */
(PID.TID 0000.0001)                 4.263683401805614E+04,      /* J = 14 */
(PID.TID 0000.0001)                 4.305568910412182E+04,      /* J = 15 */
(PID.TID 0000.0001)                 4.347163156363047E+04,      /* J = 16 */
(PID.TID 0000.0001)                 4.388457057225752E+04,      /* J = 17 */
(PID.TID 0000.0001)                 4.429441581934092E+04,      /* J = 18 */
(PID.TID 0000.0001)                 4.470107744374240E+04,      /* J = 19 */
(PID.TID 0000.0001)                 4.510446597891348E+04,      /* J = 20 */
(PID.TID 0000.0001)                 4.550449230395439E+04,      /* J = 21 */
(PID.TID 0000.0001)                 4.590106761654920E+04,      /* J = 22 */
(PID.TID 0000.0001)                 4.629410339849156E+04,      /* J = 23 */
(PID.TID 0000.0001)                 4.668351141269982E+04,      /* J = 24 */
(PID.TID 0000.0001)                 4.706920371856177E+04,      /* J = 25 */
(PID.TID 0000.0001)                 4.745109271730031E+04,      /* J = 26 */
(PID.TID 0000.0001)                 4.782909128417812E+04,      /* J = 27 */
(PID.TID 0000.0001)                 4.820311314005602E+04,      /* J = 28 */
(PID.TID 0000.0001)                 4.857307420014453E+04,      /* J = 29 */
(PID.TID 0000.0001)                 4.893889490827491E+04       /* J = 30 */
(PID.TID 0000.0001)     ;
(PID.TID 0000.0001) dxC =  /* dxC(:,1,:,1) ( units: m ) */
(PID.TID 0000.0001)                 2.071567651695695E+04,      /* I =  1 */
(PID.TID 0000.0001)                 2.070751892245589E+04,      /* I =  2 */
(PID.TID 0000.0001)                 2.069992855779408E+04,      /* I =  3 */
(PID.TID 0000.0001)                 2.069292717562287E+04,      /* I =  4 */
(PID.TID 0000.0001)                 2.068653446229046E+04,      /* I =  5 */
(PID.TID 0000.0001)                 2.068076808552306E+04,      /* I =  6 */
(PID.TID 0000.0001)                 2.067564373903614E+04,      /* I =  7 */
(PID.TID 0000.0001)                 2.067117518190149E+04,      /* I =  8 */
(PID.TID 0000.0001)                 2.066737427558298E+04,      /* I =  9 */
(PID.TID 0000.0001)                 2.066425102685107E+04,      /* I = 10 */
(PID.TID 0000.0001)                 2.066181364132844E+04,      /* I = 11 */
(PID.TID 0000.0001)                 2.066006869803818E+04,      /* I = 12 */
(PID.TID 0000.0001)                 2.065902266229015E+04,      /* I = 13 */
(PID.TID 0000.0001)                 2.065863826775786E+04,      /* I = 14 */
(PID.TID 0000.0001)                 2.065902266229016E+04,      /* I = 15 */
(PID.TID 0000.0001)                 2.066006869803813E+04,      /* I = 16 */
(PID.TID 0000.0001)                 2.066181364132850E+04,      /* I = 17 */
(PID.TID 0000.0001)                 2.066425102685108E+04,      /* I = 18 */
(PID.TID 0000.0001)                 2.066737427558298E+04,      /* I = 19 */
(PID.TID 0000.0001)                 2.067117518190149E+04,      /* I = 20 */
(PID.TID 0000.0001)                 2.067564373903615E+04,      /* I = 21 */
(PID.TID 0000.0001)                 2.068076808552304E+04,      /* I = 22 */
(PID.TID 0000.0001)                 2.068653446229045E+04,      /* I = 23 */
(PID.TID 0000.0001)                 2.069292717562287E+04,      /* I = 24 */
(PID.TID 0000.0001)                 2.069992855779413E+04,      /* I = 25 */
(PID.TID 0000.0001)                 2.070751892245584E+04,      /* I = 26 */
(PID.TID 0000.0001)                 2.071567651695691E+04,      /* I = 27 */
(PID.TID 0000.0001)                 2.072437747324421E+04,      /* I = 28 */
(PID.TID 0000.0001)                 2.073359574551806E+04,      /* I = 29 */
(PID.TID 0000.0001)                 2.074330305575613E+04       /* I = 30 */
(PID.TID 0000.0001)     ;
(PID.TID 0000.0001) dxC =  /* dxC(1,:,1,:) ( units: m ) */
(PID.TID 0000.0001)                 2.071567651695695E+04,      /* J =  1 */
(PID.TID 0000.0001)                 2.109563672137949E+04,      /* J =  2 */
(PID.TID 0000.0001)                 2.149002149497106E+04,      /* J =  3 */
(PID.TID 0000.0001)                 2.189882927482529E+04,      /* J =  4 */
(PID.TID 0000.0001)                 2.232205646389843E+04,      /* J =  5 */
(PID.TID 0000.0001)                 2.275969855854128E+04,      /* J =  6 */
(PID.TID 0000.0001)                 2.321175117362029E+04,      /* J =  7 */
(PID.TID 0000.0001)                 2.367821096276529E+04,      /* J =  8 */
(PID.TID 0000.0001)                 2.415907643347346E+04,      /* J =  9 */
(PID.TID 0000.0001)                 2.465434865814045E+04,      /* J = 10 */
(PID.TID 0000.0001)                 2.516403188365780E+04,      /* J = 11 */
(PID.TID 0000.0001)                 2.568813404310613E+04,      /* J = 12 */
(PID.TID 0000.0001)                 2.622666717399572E+04,      /* J = 13 */
(PID.TID 0000.0001)                 2.677964774799169E+04,      /* J = 14 */
(PID.TID 0000.0001)                 2.734709691757753E+04,      /* J = 15 */
(PID.TID 0000.0001)                 2.792904068517491E+04,      /* J = 16 */
(PID.TID 0000.0001)                 2.852551000032625E+04,      /* J = 17 */
(PID.TID 0000.0001)                 2.913654079081990E+04,      /* J = 18 */
(PID.TID 0000.0001)                 2.976217393306023E+04,      /* J = 19 */
(PID.TID 0000.0001)                 3.040245516699173E+04,      /* J = 20 */
(PID.TID 0000.0001)                 3.105743496108396E+04,      /* J = 21 */
(PID.TID 0000.0001)                 3.172716833208323E+04,      /* J = 22 */
(PID.TID 0000.0001)                 3.241171462422546E+04,      /* J = 23 */
(PID.TID 0000.0001)                 3.311113725244482E+04,      /* J = 24 */
(PID.TID 0000.0001)                 3.382550341391024E+04,      /* J = 25 */
(PID.TID 0000.0001)                 3.455488377140061E+04,      /* J = 26 */
(PID.TID 0000.0001)                 3.529935211332738E+04,      /* J = 27 */
(PID.TID 0000.0001)                 3.605898499520765E+04,      /* J = 28 */
(PID.TID 0000.0001)                 3.683386137397906E+04,      /* J = 29 */
(PID.TID 0000.0001)                 3.762406228407349E+04       /* J = 30 */
(PID.TID 0000.0001)     ;
(PID.TID 0000.0001) dyC =  /* dyC(:,1,:,1) ( units: m ) */
(PID.TID 0000.0001)                 3.678277710845771E+04,      /* I =  1 */
(PID.TID 0000.0001)                 3.685438685866048E+04,      /* I =  2 */
(PID.TID 0000.0001)                 3.692002588020908E+04,      /* I =  3 */
(PID.TID 0000.0001)                 3.697969453541307E+04,      /* I =  4 */
(PID.TID 0000.0001)                 3.703339337607873E+04,      /* I =  5 */
(PID.TID 0000.0001)                 3.708112307814123E+04,      /* I =  6 */
(PID.TID 0000.0001)                 3.712288438364359E+04,      /* I =  7 */
(PID.TID 0000.0001)                 3.715867804995441E+04,      /* I =  8 */
(PID.TID 0000.0001)                 3.718850480589901E+04,      /* I =  9 */
(PID.TID 0000.0001)                 3.721236531452968E+04,      /* I = 10 */
(PID.TID 0000.0001)                 3.723026014246432E+04,      /* I = 11 */
(PID.TID 0000.0001)                 3.724218973548726E+04,      /* I = 12 */
(PID.TID 0000.0001)     2 @  3.724815440020872E+04,             /* I = 13: 14 */
(PID.TID 0000.0001)                 3.724218973548726E+04,      /* I = 15 */
(PID.TID 0000.0001)                 3.723026014246432E+04,      /* I = 16 */
(PID.TID 0000.0001)                 3.721236531452968E+04,      /* I = 17 */
(PID.TID 0000.0001)                 3.718850480589901E+04,      /* I = 18 */
(PID.TID 0000.0001)                 3.715867804995440E+04,      /* I = 19 */
(PID.TID 0000.0001)                 3.712288438364359E+04,      /* I = 20 */
(PID.TID 0000.0001)                 3.708112307814122E+04,      /* I = 21 */
(PID.TID 0000.0001)                 3.703339337607873E+04,      /* I = 22 */
(PID.TID 0000.0001)                 3.697969453541307E+04,      /* I = 23 */
(PID.TID 0000.0001)                 3.692002588020908E+04,      /* I = 24 */
(PID.TID 0000.0001)                 3.685438685866047E+04,      /* I = 25 */
(PID.TID 0000.0001)                 3.678277710845772E+04,      /* I = 26 */
(PID.TID 0000.0001)                 3.670519653011381E+04,      /* I = 27 */
(PID.TID 0000.0001)                 3.662164536844059E+04,      /* I = 28 */
(PID.TID 0000.0001)                 3.653212430257830E+04,      /* I = 29 */
(PID.TID 0000.0001)                 3.643663454523116E+04       /* I = 30 */
(PID.TID 0000.0001)     ;
(PID.TID 0000.0001) dyC =  /* dyC(1,:,1,:) ( units: m ) */
(PID.TID 0000.0001)                 3.678277710845771E+04,      /* J =  1 */
(PID.TID 0000.0001)                 3.723168694115569E+04,      /* J =  2 */
(PID.TID 0000.0001)                 3.767901897410101E+04,      /* J =  3 */
(PID.TID 0000.0001)                 3.812467364657602E+04,      /* J =  4 */
(PID.TID 0000.0001)                 3.856855210935249E+04,      /* J =  5 */
(PID.TID 0000.0001)                 3.901055633269680E+04,      /* J =  6 */
(PID.TID 0000.0001)                 3.945058917911859E+04,      /* J =  7 */
(PID.TID 0000.0001)                 3.988855443472220E+04,      /* J =  8 */
(PID.TID 0000.0001)                 4.032435681898361E+04,      /* J =  9 */
(PID.TID 0000.0001)                 4.075790196435841E+04,      /* J = 10 */
(PID.TID 0000.0001)                 4.118909638222960E+04,      /* J = 11 */
(PID.TID 0000.0001)                 4.161784741043697E+04,      /* J = 12 */
(PID.TID 0000.0001)                 4.204406315499045E+04,      /* J = 13 */
(PID.TID 0000.0001)                 4.246765242091182E+04,      /* J = 14 */
(PID.TID 0000.0001)                 4.288852464034393E+04,      /* J = 15 */
(PID.TID 0000.0001)                 4.330658981118225E+04,      /* J = 16 */
(PID.TID 0000.0001)                 4.372175841431943E+04,      /* J = 17 */
(PID.TID 0000.0001)                 4.413394136293020E+04,      /* J = 18 */
(PID.TID 0000.0001)                 4.454304993440304E+04,      /* J = 19 */
(PID.TID 0000.0001)                 4.494899572325061E+04,      /* J = 20 */
(PID.TID 0000.0001)                 4.535169059286820E+04,      /* J = 21 */
(PID.TID 0000.0001)                 4.575104664412256E+04,      /* J = 22 */
(PID.TID 0000.0001)                 4.614697618947234E+04,      /* J = 23 */
(PID.TID 0000.0001)                 4.653939173844085E+04,      /* J = 24 */
(PID.TID 0000.0001)                 4.692820600744408E+04,      /* J = 25 */
(PID.TID 0000.0001)                 4.731333194957835E+04,      /* J = 26 */
(PID.TID 0000.0001)                 4.769468283927006E+04,      /* J = 27 */
(PID.TID 0000.0001)                 4.807217249390641E+04,      /* J = 28 */
(PID.TID 0000.0001)                 4.844571593362943E+04,      /* J = 29 */
(PID.TID 0000.0001)                 4.881523285497380E+04       /* J = 30 */
(PID.TID 0000.0001)     ;
(PID.TID 0000.0001) dxV =  /* dxV(:,1,:,1) ( units: m ) */
(PID.TID 0000.0001)                 2.053110526075532E+04,      /* I =  1 */
(PID.TID 0000.0001)                 2.052326088418283E+04,      /* I =  2 */
(PID.TID 0000.0001)                 2.051595672244828E+04,      /* I =  3 */
(PID.TID 0000.0001)                 2.050921502797681E+04,      /* I =  4 */
(PID.TID 0000.0001)                 2.050305593886370E+04,      /* I =  5 */
(PID.TID 0000.0001)                 2.049749752783181E+04,      /* I =  6 */
(PID.TID 0000.0001)                 2.049255584793284E+04,      /* I =  7 */
(PID.TID 0000.0001)                 2.048824497292525E+04,      /* I =  8 */
(PID.TID 0000.0001)                 2.048457703515834E+04,      /* I =  9 */
(PID.TID 0000.0001)                 2.048156226915133E+04,      /* I = 10 */
(PID.TID 0000.0001)                 2.047920906551970E+04,      /* I = 11 */
(PID.TID 0000.0001)                 2.047752414469434E+04,      /* I = 12 */
(PID.TID 0000.0001)                 2.047651405696554E+04,      /* I = 13 */
(PID.TID 0000.0001)                 2.047614194664622E+04,      /* I = 14 */
(PID.TID 0000.0001)                 2.047651405696559E+04,      /* I = 15 */
(PID.TID 0000.0001)                 2.047752414469430E+04,      /* I = 16 */
(PID.TID 0000.0001)                 2.047920906551971E+04,      /* I = 17 */
(PID.TID 0000.0001)                 2.048156226915138E+04,      /* I = 18 */
(PID.TID 0000.0001)                 2.048457703515829E+04,      /* I = 19 */
(PID.TID 0000.0001)                 2.048824497292535E+04,      /* I = 20 */
(PID.TID 0000.0001)                 2.049255584793274E+04,      /* I = 21 */
(PID.TID 0000.0001)                 2.049749752783187E+04,      /* I = 22 */
(PID.TID 0000.0001)                 2.050305593886373E+04,      /* I = 23 */
(PID.TID 0000.0001)                 2.050921502797675E+04,      /* I = 24 */
(PID.TID 0000.0001)                 2.051595672244826E+04,      /* I = 25 */
(PID.TID 0000.0001)                 2.052326088418290E+04,      /* I = 26 */
(PID.TID 0000.0001)                 2.053110526075532E+04,      /* I = 27 */
(PID.TID 0000.0001)                 2.053946543494557E+04,      /* I = 28 */
(PID.TID 0000.0001)                 2.054831476098181E+04,      /* I = 29 */
(PID.TID 0000.0001)                 2.055762430839241E+04       /* I = 30 */
(PID.TID 0000.0001)     ;
(PID.TID 0000.0001) dxV =  /* dxV(1,:,1,:) ( units: m ) */
(PID.TID 0000.0001)                 2.053110526075532E+04,      /* J =  1 */
(PID.TID 0000.0001)                 2.090385356266093E+04,      /* J =  2 */
(PID.TID 0000.0001)                 2.129102607314009E+04,      /* J =  3 */
(PID.TID 0000.0001)                 2.169262269996662E+04,      /* J =  4 */
(PID.TID 0000.0001)                 2.210864071595607E+04,      /* J =  5 */
(PID.TID 0000.0001)                 2.253907593617405E+04,      /* J =  6 */
(PID.TID 0000.0001)                 2.298392379458377E+04,      /* J =  7 */
(PID.TID 0000.0001)                 2.344318031700113E+04,      /* J =  8 */
(PID.TID 0000.0001)                 2.391684298864163E+04,      /* J =  9 */
(PID.TID 0000.0001)                 2.440491151699962E+04,      /* J = 10 */
(PID.TID 0000.0001)                 2.490738849171163E+04,      /* J = 11 */
(PID.TID 0000.0001)                 2.542427994477456E+04,      /* J = 12 */
(PID.TID 0000.0001)                 2.595559581485789E+04,      /* J = 13 */
(PID.TID 0000.0001)                 2.650135032062733E+04,      /* J = 14 */
(PID.TID 0000.0001)                 2.706156224833991E+04,      /* J = 15 */
(PID.TID 0000.0001)                 2.763625515890197E+04,      /* J = 16 */
(PID.TID 0000.0001)                 2.822545752042790E+04,      /* J = 17 */
(PID.TID 0000.0001)                 2.882920277162976E+04,      /* J = 18 */
(PID.TID 0000.0001)                 2.944752932187136E+04,      /* J = 19 */
(PID.TID 0000.0001)                 3.008048049319959E+04,      /* J = 20 */
(PID.TID 0000.0001)                 3.072810440966728E+04,      /* J = 21 */
(PID.TID 0000.0001)                 3.139045383903842E+04,      /* J = 22 */
(PID.TID 0000.0001)                 3.206758599174654E+04,      /* J = 23 */
(PID.TID 0000.0001)                 3.275956228156967E+04,      /* J = 24 */
(PID.TID 0000.0001)                 3.346644805244220E+04,      /* J = 25 */
(PID.TID 0000.0001)                 3.418831227550044E+04,      /* J = 26 */
(PID.TID 0000.0001)                 3.492522722017510E+04,      /* J = 27 */
(PID.TID 0000.0001)                 3.567726810399632E+04,      /* J = 28 */
(PID.TID 0000.0001)                 3.644451272859776E+04,      /* J = 29 */
(PID.TID 0000.0001)                 3.722704112152557E+04       /* J = 30 */
(PID.TID 0000.0001)     ;
(PID.TID 0000.0001) dyU =  /* dyU(:,1,:,1) ( units: m ) */
(PID.TID 0000.0001)                 3.674473316658630E+04,      /* I =  1 */
(PID.TID 0000.0001)                 3.681932833792822E+04,      /* I =  2 */
(PID.TID 0000.0001)                 3.688795269313092E+04,      /* I =  3 */
(PID.TID 0000.0001)                 3.695060647275718E+04,      /* I =  4 */
(PID.TID 0000.0001)                 3.700729014250917E+04,      /* I =  5 */
(PID.TID 0000.0001)                 3.705800432398131E+04,      /* I =  6 */
(PID.TID 0000.0001)                 3.710274973294064E+04,      /* I =  7 */
(PID.TID 0000.0001)                 3.714152712500728E+04,      /* I =  8 */
(PID.TID 0000.0001)                 3.717433724834998E+04,      /* I =  9 */
(PID.TID 0000.0001)                 3.720118080314009E+04,      /* I = 10 */
(PID.TID 0000.0001)                 3.722205840764935E+04,      /* I = 11 */
(PID.TID 0000.0001)                 3.723697057073888E+04,      /* I = 12 */
(PID.TID 0000.0001)                 3.724591767054543E+04,      /* I = 13 */
(PID.TID 0000.0001)                 3.724891083990022E+04,      /* I = 14 */
(PID.TID 0000.0001)                 3.724591767054542E+04,      /* I = 15 */
(PID.TID 0000.0001)                 3.723697057073889E+04,      /* I = 16 */
(PID.TID 0000.0001)                 3.722205840764935E+04,      /* I = 17 */
(PID.TID 0000.0001)                 3.720118080314008E+04,      /* I = 18 */
(PID.TID 0000.0001)                 3.717433724834998E+04,      /* I = 19 */
(PID.TID 0000.0001)                 3.714152712500728E+04,      /* I = 20 */
(PID.TID 0000.0001)                 3.710274973294063E+04,      /* I = 21 */
(PID.TID 0000.0001)                 3.705800432398131E+04,      /* I = 22 */
(PID.TID 0000.0001)                 3.700729014250917E+04,      /* I = 23 */
(PID.TID 0000.0001)                 3.695060647275716E+04,      /* I = 24 */
(PID.TID 0000.0001)                 3.688795269313094E+04,      /* I = 25 */
(PID.TID 0000.0001)                 3.681932833792821E+04,      /* I = 26 */
(PID.TID 0000.0001)                 3.674473316658630E+04,      /* I = 27 */
(PID.TID 0000.0001)                 3.666416724104654E+04,      /* I = 28 */
(PID.TID 0000.0001)                 3.657763101146962E+04,      /* I = 29 */
(PID.TID 0000.0001)                 3.648512541079492E+04       /* I = 30 */
(PID.TID 0000.0001)     ;
(PID.TID 0000.0001) dyU =  /* dyU(1,:,1,:) ( units: m ) */
(PID.TID 0000.0001)                 3.674473316658630E+04,      /* J =  1 */
(PID.TID 0000.0001)                 3.719361547538896E+04,      /* J =  2 */
(PID.TID 0000.0001)                 3.764089459751266E+04,      /* J =  3 */
(PID.TID 0000.0001)                 3.808646730382765E+04,      /* J =  4 */
(PID.TID 0000.0001)                 3.853023123895088E+04,      /* J =  5 */
(PID.TID 0000.0001)                 3.897208503739593E+04,      /* J =  6 */
(PID.TID 0000.0001)                 3.941192840112046E+04,      /* J =  7 */
(PID.TID 0000.0001)                 3.984966213263487E+04,      /* J =  8 */
(PID.TID 0000.0001)                 4.028518814419441E+04,      /* J =  9 */
(PID.TID 0000.0001)                 4.071840943468107E+04,      /* J = 10 */
(PID.TID 0000.0001)                 4.114923005120406E+04,      /* J = 11 */
(PID.TID 0000.0001)                 4.157755503103340E+04,      /* J = 12 */
(PID.TID 0000.0001)                 4.200329033666767E+04,      /* J = 13 */
(PID.TID 0000.0001)                 4.242634277960793E+04,      /* J = 14 */
(PID.TID 0000.0001)                 4.284661994092684E+04,      /* J = 15 */
(PID.TID 0000.0001)                 4.326403010205203E+04,      /* J = 16 */
(PID.TID 0000.0001)                 4.367848215462093E+04,      /* J = 17 */
(PID.TID 0000.0001)                 4.408988554208750E+04,      /* J = 18 */
(PID.TID 0000.0001)                 4.449815018464295E+04,      /* J = 19 */
(PID.TID 0000.0001)                 4.490318642518511E+04,      /* J = 20 */
(PID.TID 0000.0001)                 4.530490497491705E+04,      /* J = 21 */
(PID.TID 0000.0001)                 4.570321687598708E+04,      /* J = 22 */
(PID.TID 0000.0001)                 4.609803347024994E+04,      /* J = 23 */
(PID.TID 0000.0001)                 4.648926637992392E+04,      /* J = 24 */
(PID.TID 0000.0001)                 4.687682751321772E+04,      /* J = 25 */
(PID.TID 0000.0001)                 4.726062909013533E+04,      /* J = 26 */
(PID.TID 0000.0001)                 4.764058372401170E+04,      /* J = 27 */
(PID.TID 0000.0001)                 4.801660464021451E+04,      /* J = 28 */
(PID.TID 0000.0001)                 4.838860633247659E+04,      /* J = 29 */
(PID.TID 0000.0001)                 4.875650803021456E+04       /* J = 30 */
(PID.TID 0000.0001)     ;
(PID.TID 0000.0001) rA  =  /* rA (:,1,:,1) ( units: m^2 ) */
(PID.TID 0000.0001)                 7.665113621396177E+08,      /* I =  1 */
(PID.TID 0000.0001)                 7.677029697239892E+08,      /* I =  2 */
(PID.TID 0000.0001)                 7.687913877455838E+08,      /* I =  3 */
(PID.TID 0000.0001)                 7.697775979751738E+08,      /* I =  4 */
(PID.TID 0000.0001)                 7.706625466485583E+08,      /* I =  5 */
(PID.TID 0000.0001)                 7.714470546020026E+08,      /* I =  6 */
(PID.TID 0000.0001)                 7.721318586456149E+08,      /* I =  7 */
(PID.TID 0000.0001)                 7.727176271684608E+08,      /* I =  8 */
(PID.TID 0000.0001)                 7.732049082776864E+08,      /* I =  9 */
(PID.TID 0000.0001)                 7.735941717305043E+08,      /* I = 10 */
(PID.TID 0000.0001)                 7.738858051500469E+08,      /* I = 11 */
(PID.TID 0000.0001)                 7.740801100790358E+08,      /* I = 12 */
(PID.TID 0000.0001)                 7.741766386182301E+08,      /* I = 13 */
(PID.TID 0000.0001)                 7.741766369784317E+08,      /* I = 14 */
(PID.TID 0000.0001)                 7.740801094843833E+08,      /* I = 15 */
(PID.TID 0000.0001)                 7.738858062852919E+08,      /* I = 16 */
(PID.TID 0000.0001)                 7.735941726495122E+08,      /* I = 17 */
(PID.TID 0000.0001)                 7.732049061873938E+08,      /* I = 18 */
(PID.TID 0000.0001)                 7.727176277450933E+08,      /* I = 19 */
(PID.TID 0000.0001)                 7.721318658895597E+08,      /* I = 20 */
(PID.TID 0000.0001)                 7.714470531424019E+08,      /* I = 21 */
(PID.TID 0000.0001)                 7.706625470810328E+08,      /* I = 22 */
(PID.TID 0000.0001)                 7.697776024260553E+08,      /* I = 23 */
(PID.TID 0000.0001)                 7.687913844659867E+08,      /* I = 24 */
(PID.TID 0000.0001)                 7.677029712196296E+08,      /* I = 25 */
(PID.TID 0000.0001)                 7.665113646083255E+08,      /* I = 26 */
(PID.TID 0000.0001)                 7.652154604170089E+08,      /* I = 27 */
(PID.TID 0000.0001)                 7.638140926048064E+08,      /* I = 28 */
(PID.TID 0000.0001)                 7.623059927966076E+08,      /* I = 29 */
(PID.TID 0000.0001)                 7.606898330980235E+08       /* I = 30 */
(PID.TID 0000.0001)     ;
(PID.TID 0000.0001) rA  =  /* rA (1,:,1,:) ( units: m^2 ) */
(PID.TID 0000.0001)                 7.665113621396177E+08,      /* J =  1 */
(PID.TID 0000.0001)                 7.900134359449342E+08,      /* J =  2 */
(PID.TID 0000.0001)                 8.143679155417176E+08,      /* J =  3 */
(PID.TID 0000.0001)                 8.395900636155584E+08,      /* J =  4 */
(PID.TID 0000.0001)                 8.656947784023314E+08,      /* J =  5 */
(PID.TID 0000.0001)                 8.926966010402582E+08,      /* J =  6 */
(PID.TID 0000.0001)                 9.206097737377057E+08,      /* J =  7 */
(PID.TID 0000.0001)                 9.494482582794807E+08,      /* J =  8 */
(PID.TID 0000.0001)                 9.792257431806778E+08,      /* J =  9 */
(PID.TID 0000.0001)                 1.009955679131553E+09,      /* J = 10 */
(PID.TID 0000.0001)                 1.041651296044221E+09,      /* J = 11 */
(PID.TID 0000.0001)                 1.074325614369065E+09,      /* J = 12 */
(PID.TID 0000.0001)                 1.107991467925779E+09,      /* J = 13 */
(PID.TID 0000.0001)                 1.142661498173082E+09,      /* J = 14 */
(PID.TID 0000.0001)                 1.178348167164929E+09,      /* J = 15 */
(PID.TID 0000.0001)                 1.215063762235644E+09,      /* J = 16 */
(PID.TID 0000.0001)                 1.252820414073754E+09,      /* J = 17 */
(PID.TID 0000.0001)                 1.291630043617734E+09,      /* J = 18 */
(PID.TID 0000.0001)                 1.331504416619858E+09,      /* J = 19 */
(PID.TID 0000.0001)                 1.372455096362339E+09,      /* J = 20 */
(PID.TID 0000.0001)                 1.414493440828222E+09,      /* J = 21 */
(PID.TID 0000.0001)                 1.457630613639386E+09,      /* J = 22 */
(PID.TID 0000.0001)                 1.501877517761831E+09,      /* J = 23 */
(PID.TID 0000.0001)                 1.547244834049951E+09,      /* J = 24 */
(PID.TID 0000.0001)                 1.593742963439136E+09,      /* J = 25 */
(PID.TID 0000.0001)                 1.641382020566774E+09,      /* J = 26 */
(PID.TID 0000.0001)                 1.690171807481416E+09,      /* J = 27 */
(PID.TID 0000.0001)                 1.740121820832662E+09,      /* J = 28 */
(PID.TID 0000.0001)                 1.791241246411172E+09,      /* J = 29 */
(PID.TID 0000.0001)                 1.843539059771026E+09       /* J = 30 */
(PID.TID 0000.0001)     ;
(PID.TID 0000.0001) rAw =  /* rAw(:,1,:,1) ( units: m^2 ) */
(PID.TID 0000.0001)                 7.658765213139513E+08,      /* I =  1 */
(PID.TID 0000.0001)                 7.671201328724998E+08,      /* I =  2 */
(PID.TID 0000.0001)                 7.682600121490355E+08,      /* I =  3 */
(PID.TID 0000.0001)                 7.692972101823016E+08,      /* I =  4 */
(PID.TID 0000.0001)                 7.702326756407654E+08,      /* I =  5 */
(PID.TID 0000.0001)                 7.710673044850856E+08,      /* I =  6 */
(PID.TID 0000.0001)                 7.718018764844863E+08,      /* I =  7 */
(PID.TID 0000.0001)                 7.724370884091616E+08,      /* I =  8 */
(PID.TID 0000.0001)                 7.729735468223690E+08,      /* I =  9 */
(PID.TID 0000.0001)                 7.734117650170708E+08,      /* I = 10 */
(PID.TID 0000.0001)                 7.737521718456172E+08,      /* I = 11 */
(PID.TID 0000.0001)                 7.739951054308500E+08,      /* I = 12 */
(PID.TID 0000.0001)                 7.741408739107244E+08,      /* I = 13 */
(PID.TID 0000.0001)                 7.741880730050739E+08,      /* I = 14 */
(PID.TID 0000.0001)                 7.741408710636016E+08,      /* I = 15 */
(PID.TID 0000.0001)                 7.739951071427275E+08,      /* I = 16 */
(PID.TID 0000.0001)                 7.737521718095777E+08,      /* I = 17 */
(PID.TID 0000.0001)                 7.734117675938969E+08,      /* I = 18 */
(PID.TID 0000.0001)                 7.729735457051437E+08,      /* I = 19 */
(PID.TID 0000.0001)                 7.724370889497546E+08,      /* I = 20 */
(PID.TID 0000.0001)                 7.718018793856685E+08,      /* I = 21 */
(PID.TID 0000.0001)                 7.710673053320146E+08,      /* I = 22 */
(PID.TID 0000.0001)                 7.702326816053071E+08,      /* I = 23 */
(PID.TID 0000.0001)                 7.692972065242898E+08,      /* I = 24 */
(PID.TID 0000.0001)                 7.682600115363635E+08,      /* I = 25 */
(PID.TID 0000.0001)                 7.671201363863536E+08,      /* I = 26 */
(PID.TID 0000.0001)                 7.658765213499908E+08,      /* I = 27 */
(PID.TID 0000.0001)                 7.645280345158333E+08,      /* I = 28 */
(PID.TID 0000.0001)                 7.630734673343852E+08,      /* I = 29 */
(PID.TID 0000.0001)                 7.615115062009304E+08       /* I = 30 */
(PID.TID 0000.0001)     ;
(PID.TID 0000.0001) rAw =  /* rAw(1,:,1,:) ( units: m^2 ) */
(PID.TID 0000.0001)                 7.658765213139513E+08,      /* J =  1 */
(PID.TID 0000.0001)                 7.893768970448780E+08,      /* J =  2 */
(PID.TID 0000.0001)                 8.137283914516071E+08,      /* J =  3 */
(PID.TID 0000.0001)                 8.389460603348250E+08,      /* J =  4 */
(PID.TID 0000.0001)                 8.650445848102766E+08,      /* J =  5 */
(PID.TID 0000.0001)                 8.920382782103341E+08,      /* J =  6 */
(PID.TID 0000.0001)                 9.199411445401106E+08,      /* J =  7 */
(PID.TID 0000.0001)                 9.487668893433769E+08,      /* J =  8 */
(PID.TID 0000.0001)                 9.785289545527842E+08,      /* J =  9 */
(PID.TID 0000.0001)                 1.009240515336406E+09,      /* J = 10 */
(PID.TID 0000.0001)                 1.040914522930714E+09,      /* J = 11 */
(PID.TID 0000.0001)                 1.073563715488477E+09,      /* J = 12 */
(PID.TID 0000.0001)                 1.107200612276400E+09,      /* J = 13 */
(PID.TID 0000.0001)                 1.141837554111466E+09,      /* J = 14 */
(PID.TID 0000.0001)                 1.177486672294872E+09,      /* J = 15 */
(PID.TID 0000.0001)                 1.214159933192917E+09,      /* J = 16 */
(PID.TID 0000.0001)                 1.251869095602249E+09,      /* J = 17 */
(PID.TID 0000.0001)                 1.290625742284441E+09,      /* J = 18 */
(PID.TID 0000.0001)                 1.330441258846839E+09,      /* J = 19 */
(PID.TID 0000.0001)                 1.371326820624166E+09,      /* J = 20 */
(PID.TID 0000.0001)                 1.413293399742275E+09,      /* J = 21 */
(PID.TID 0000.0001)                 1.456351737475827E+09,      /* J = 22 */
(PID.TID 0000.0001)                 1.500512320083793E+09,      /* J = 23 */
(PID.TID 0000.0001)                 1.545785394792978E+09,      /* J = 24 */
(PID.TID 0000.0001)                 1.592180902277974E+09,      /* J = 25 */
(PID.TID 0000.0001)                 1.639708504465653E+09,      /* J = 26 */
(PID.TID 0000.0001)                 1.688377519501836E+09,      /* J = 27 */
(PID.TID 0000.0001)                 1.738196956421325E+09,      /* J = 28 */
(PID.TID 0000.0001)                 1.789175499722981E+09,      /* J = 29 */
(PID.TID 0000.0001)                 1.841321602441802E+09       /* J = 30 */
(PID.TID 0000.0001)     ;
(PID.TID 0000.0001) rAs =  /* rAs(:,1,:,1) ( units: m^2 ) */
(PID.TID 0000.0001)                 7.550751050606852E+08,      /* I =  1 */
(PID.TID 0000.0001)                 7.562658447772087E+08,      /* I =  2 */
(PID.TID 0000.0001)                 7.573533970032284E+08,      /* I =  3 */
(PID.TID 0000.0001)                 7.583387692957978E+08,      /* I =  4 */
(PID.TID 0000.0001)                 7.592229121974397E+08,      /* I =  5 */
(PID.TID 0000.0001)                 7.600066705467438E+08,      /* I =  6 */
(PID.TID 0000.0001)                 7.606907923080522E+08,      /* I =  7 */
(PID.TID 0000.0001)                 7.612759532224941E+08,      /* I =  8 */
(PID.TID 0000.0001)                 7.617627129118443E+08,      /* I =  9 */
(PID.TID 0000.0001)                 7.621515550445726E+08,      /* I = 10 */
(PID.TID 0000.0001)                 7.624428588466020E+08,      /* I = 11 */
(PID.TID 0000.0001)                 7.626369483673384E+08,      /* I = 12 */
(PID.TID 0000.0001)                 7.627333738515058E+08,      /* I = 13 */
(PID.TID 0000.0001)                 7.627333728604188E+08,      /* I = 14 */
(PID.TID 0000.0001)                 7.626369508901051E+08,      /* I = 15 */
(PID.TID 0000.0001)                 7.624428655319341E+08,      /* I = 16 */
(PID.TID 0000.0001)                 7.621515526659639E+08,      /* I = 17 */
(PID.TID 0000.0001)                 7.617627197953936E+08,      /* I = 18 */
(PID.TID 0000.0001)                 7.612759510961621E+08,      /* I = 19 */
(PID.TID 0000.0001)                 7.606907969030919E+08,      /* I = 20 */
(PID.TID 0000.0001)                 7.600066694295187E+08,      /* I = 21 */
(PID.TID 0000.0001)                 7.592229103594238E+08,      /* I = 22 */
(PID.TID 0000.0001)                 7.583387684488690E+08,      /* I = 23 */
(PID.TID 0000.0001)                 7.573533915792797E+08,      /* I = 24 */
(PID.TID 0000.0001)                 7.562658465071062E+08,      /* I = 25 */
(PID.TID 0000.0001)                 7.550751079979067E+08,      /* I = 26 */
(PID.TID 0000.0001)                 7.537800585200102E+08,      /* I = 27 */
(PID.TID 0000.0001)                 7.523795064624999E+08,      /* I = 28 */
(PID.TID 0000.0001)                 7.508721675027735E+08,      /* I = 29 */
(PID.TID 0000.0001)                 7.492566800675046E+08       /* I = 30 */
(PID.TID 0000.0001)     ;
(PID.TID 0000.0001) rAs =  /* rAs(1,:,1,:) ( units: m^2 ) */
(PID.TID 0000.0001)                 7.550751050606852E+08,      /* J =  1 */
(PID.TID 0000.0001)                 7.781568160584769E+08,      /* J =  2 */
(PID.TID 0000.0001)                 8.020831616625657E+08,      /* J =  3 */
(PID.TID 0000.0001)                 8.268695937660589E+08,      /* J =  4 */
(PID.TID 0000.0001)                 8.525311818286231E+08,      /* J =  5 */
(PID.TID 0000.0001)                 8.790826547724357E+08,      /* J =  6 */
(PID.TID 0000.0001)                 9.065383887828039E+08,      /* J =  7 */
(PID.TID 0000.0001)                 9.349124897125442E+08,      /* J =  8 */
(PID.TID 0000.0001)                 9.642187819277472E+08,      /* J =  9 */
(PID.TID 0000.0001)                 9.944708240750725E+08,      /* J = 10 */
(PID.TID 0000.0001)                 1.025681954725808E+09,      /* J = 11 */
(PID.TID 0000.0001)                 1.057865313008499E+09,      /* J = 12 */
(PID.TID 0000.0001)                 1.091033805921100E+09,      /* J = 13 */
(PID.TID 0000.0001)                 1.125200178247652E+09,      /* J = 14 */
(PID.TID 0000.0001)                 1.160376979600140E+09,      /* J = 15 */
(PID.TID 0000.0001)                 1.196576586510721E+09,      /* J = 16 */
(PID.TID 0000.0001)                 1.233811208089928E+09,      /* J = 17 */
(PID.TID 0000.0001)                 1.272092866313053E+09,      /* J = 18 */
(PID.TID 0000.0001)                 1.311433405822894E+09,      /* J = 19 */
(PID.TID 0000.0001)                 1.351844507714875E+09,      /* J = 20 */
(PID.TID 0000.0001)                 1.393337606051485E+09,      /* J = 21 */
(PID.TID 0000.0001)                 1.435923987908001E+09,      /* J = 22 */
(PID.TID 0000.0001)                 1.479614675036705E+09,      /* J = 23 */
(PID.TID 0000.0001)                 1.524420466465598E+09,      /* J = 24 */
(PID.TID 0000.0001)                 1.570351910729954E+09,      /* J = 25 */
(PID.TID 0000.0001)                 1.617419255741331E+09,      /* J = 26 */
(PID.TID 0000.0001)                 1.665632470339211E+09,      /* J = 27 */
(PID.TID 0000.0001)                 1.715001205152071E+09,      /* J = 28 */
(PID.TID 0000.0001)                 1.765534790867491E+09,      /* J = 29 */
(PID.TID 0000.0001)                 1.817242347954489E+09       /* J = 30 */
(PID.TID 0000.0001)     ;
(PID.TID 0000.0001) globalArea = /* Integrated horizontal Area (m^2) */
(PID.TID 0000.0001)                 3.580138611494433E+14
(PID.TID 0000.0001)     ;
(PID.TID 0000.0001) hasWetCSCorners = /* Domain contains CS corners (True/False) */
(PID.TID 0000.0001)                   F
(PID.TID 0000.0001)     ;
(PID.TID 0000.0001) // =======================================================
(PID.TID 0000.0001) // End of Model config. summary
(PID.TID 0000.0001) // =======================================================
(PID.TID 0000.0001) 
(PID.TID 0000.0001) == Packages configuration : Check & print summary ==
(PID.TID 0000.0001) 
(PID.TID 0000.0001) GGL90_CHECK: #define ALLOW_GGL90
(PID.TID 0000.0001) GGL90_CHECK: Some form of convection has been enabled
(PID.TID 0000.0001) GMREDI_CHECK: #define GMREDI
(PID.TID 0000.0001) GM_AdvForm =     /* if FALSE => use SkewFlux Form */
(PID.TID 0000.0001)                   T
(PID.TID 0000.0001)     ;
(PID.TID 0000.0001) GM_InMomAsStress = /* if TRUE => apply as Eddy Stress */
(PID.TID 0000.0001)                   F
(PID.TID 0000.0001)     ;
(PID.TID 0000.0001) GM_AdvSeparate = /* Calc Bolus & Euler Adv. separately */
(PID.TID 0000.0001)                   F
(PID.TID 0000.0001)     ;
(PID.TID 0000.0001) GM_ExtraDiag =   /* Tensor Extra Diag (line 1&2) non 0 */
(PID.TID 0000.0001)                   T
(PID.TID 0000.0001)     ;
(PID.TID 0000.0001) GM_isopycK =    /* Background Isopyc. Diffusivity [m^2/s] */
(PID.TID 0000.0001)                 1.000000000000000E+03
(PID.TID 0000.0001)     ;
(PID.TID 0000.0001) GM_skewflx*K =  /* Background GM_SkewFlx Diffusivity [m^2/s] */
(PID.TID 0000.0001)                 0.000000000000000E+00
(PID.TID 0000.0001)     ;
(PID.TID 0000.0001) GM_advec*K =    /* Backg. GM-Advec(=Bolus) Diffusivity [m^2/s]*/
(PID.TID 0000.0001)                 1.000000000000000E+03
(PID.TID 0000.0001)     ;
(PID.TID 0000.0001) GM_Kmin_horiz = /* Minimum Horizontal Diffusivity [m^2/s] */
(PID.TID 0000.0001)                 1.000000000000000E+02
(PID.TID 0000.0001)     ;
(PID.TID 0000.0001) GM_Visbeck_alpha = /* Visbeck alpha coeff. [-] */
(PID.TID 0000.0001)                 0.000000000000000E+00
(PID.TID 0000.0001)     ;
(PID.TID 0000.0001) GM_Small_Number =  /* epsilon used in slope calc */
(PID.TID 0000.0001)                 9.999999999999999E-21
(PID.TID 0000.0001)     ;
(PID.TID 0000.0001) GM_slopeSqCutoff = /* Slope^2 cut-off value */
(PID.TID 0000.0001)                 1.000000000000000E+08
(PID.TID 0000.0001)     ;
(PID.TID 0000.0001) GM_taper_scheme =  /* Type of Tapering/Clipping scheme */
(PID.TID 0000.0001)               'stableGmAdjTap                          '
(PID.TID 0000.0001)     ;
(PID.TID 0000.0001) GM_maxSlope =  /* Maximum Slope (Tapering/Clipping) */
(PID.TID 0000.0001)                 4.000000000000000E-03
(PID.TID 0000.0001)     ;
(PID.TID 0000.0001) GM_facTrL2dz = /* Minimum Trans.Layer Thick. (factor of dz) */
(PID.TID 0000.0001)                 1.000000000000000E+00
(PID.TID 0000.0001)     ;
(PID.TID 0000.0001) GM_facTrL2ML = /* Max.Trans.Layer Thick. (factor of MxL Depth)*/
(PID.TID 0000.0001)                 5.000000000000000E+00
(PID.TID 0000.0001)     ;
(PID.TID 0000.0001) GM_maxTransLay = /* Maximum Transition Layer Thickness [m] */
(PID.TID 0000.0001)                 5.000000000000000E+02
(PID.TID 0000.0001)     ;
(PID.TID 0000.0001) GM_UseBVP = /* if TRUE => use bvp a la Ferrari et al. (2010) */
(PID.TID 0000.0001)                   F
(PID.TID 0000.0001)     ;
(PID.TID 0000.0001) GM_BVP_ModeNumber = /* Vertical mode number for BVP wave speed */
(PID.TID 0000.0001)                       1
(PID.TID 0000.0001)     ;
(PID.TID 0000.0001) GM_BVP_cMin = /* Minimum wave speed for BVP [m/s] */
(PID.TID 0000.0001)                 1.000000000000000E-01
(PID.TID 0000.0001)     ;
(PID.TID 0000.0001) GM_useSubMeso = /* if TRUE => use Sub-Meso param. (B.Fox-Kemper) */
(PID.TID 0000.0001)                   F
(PID.TID 0000.0001)     ;
(PID.TID 0000.0001) subMeso_Ceff = /* efficiency coeff. of Mixed-Layer Eddies [-] */
(PID.TID 0000.0001)                 7.000000000000001E-02
(PID.TID 0000.0001)     ;
(PID.TID 0000.0001) subMeso_invTau = /* inverse of Sub-Meso mixing time-scale [/s] */
(PID.TID 0000.0001)                 2.000000000000000E-06
(PID.TID 0000.0001)     ;
(PID.TID 0000.0001) subMeso_LfMin = /* minimum length-scale "Lf" [m] */
(PID.TID 0000.0001)                 1.000000000000000E+03
(PID.TID 0000.0001)     ;
(PID.TID 0000.0001) subMeso_Lmax = /* maximum grid-scale length [m] */
(PID.TID 0000.0001)                 1.100000000000000E+05
(PID.TID 0000.0001)     ;
(PID.TID 0000.0001) EXF_CHECK: #define ALLOW_EXF
(PID.TID 0000.0001) SEAICE_CHECK: #define ALLOW_SEAICE
(PID.TID 0000.0001) SALT_PLUME_CHECK: #define SALT_PLUME
(PID.TID 0000.0001) CTRL_CHECK: #define ALLOW_CTRL
(PID.TID 0000.0001) COST_CHECK: #define ALLOW_COST
(PID.TID 0000.0001) SBO_CHECK: #define ALLOW_SBO
(PID.TID 0000.0001) etaday defined by gencost  28
(PID.TID 0000.0001) GAD_CHECK: #define ALLOW_GENERIC_ADVDIFF
(PID.TID 0000.0001) // =======================================================
(PID.TID 0000.0001) // Check Model config. (CONFIG_CHECK):
(PID.TID 0000.0001) // CONFIG_CHECK : Normal End
(PID.TID 0000.0001) // =======================================================
(PID.TID 0000.0001) 
(PID.TID 0000.0001)  nRecords = 403 ; filePrec =  64 ; fileIter =    192840
(PID.TID 0000.0001)     nDims =   2 , dims:
(PID.TID 0000.0001)    1:  90   1  90
(PID.TID 0000.0001)    2:1170   11170
(PID.TID 0000.0001)     nFlds =  11 , nFl3D =   8 , fields:
(PID.TID 0000.0001)  >Uvel    < >Vvel    < >Theta   < >Salt    < >GuNm1   < >GuNm2   < >GvNm1   < >GvNm2   < >EtaN    < >dEtaHdt < >EtaH    <
(PID.TID 0000.0001) missingVal=  1.00000000000000E+00 ; nTimRec =   1 , timeList:
(PID.TID 0000.0001)   6.942240000000E+08
(PID.TID 0000.0001) READ_MFLDS_3D_RL: read field: "Uvel    ", #   1 in fldList, rec=   1
(PID.TID 0000.0001) READ_MFLDS_3D_RL: read field: "Vvel    ", #   2 in fldList, rec=   2
(PID.TID 0000.0001) READ_MFLDS_3D_RL: read field: "Theta   ", #   3 in fldList, rec=   3
(PID.TID 0000.0001) READ_MFLDS_3D_RL: read field: "Salt    ", #   4 in fldList, rec=   4
(PID.TID 0000.0001) READ_MFLDS_3D_RL: read field: "GuNm1   ", #   5 in fldList, rec=   5
(PID.TID 0000.0001) READ_MFLDS_3D_RL: read field: "GuNm2   ", #   6 in fldList, rec=   6
(PID.TID 0000.0001) READ_MFLDS_3D_RL: read field: "GvNm1   ", #   7 in fldList, rec=   7
(PID.TID 0000.0001) READ_MFLDS_3D_RL: read field: "GvNm2   ", #   8 in fldList, rec=   8
(PID.TID 0000.0001) READ_MFLDS_3D_RL: read field: "EtaN    ", #   9 in fldList, rec= 401
(PID.TID 0000.0001) READ_MFLDS_3D_RL: read field: "dEtaHdt ", #  10 in fldList, rec= 402
(PID.TID 0000.0001) READ_MFLDS_3D_RL: read field: "EtaH    ", #  11 in fldList, rec= 403
(PID.TID 0000.0001) READ_MFLDS_CHECK: - normal end ; reset MFLDS file-name: pickup.0000000001
(PID.TID 0000.0001)  nRecords =   6 ; filePrec =  64 ; fileIter =    192840
(PID.TID 0000.0001)     nDims =   2 , dims:
(PID.TID 0000.0001)    1:  90   1  90
(PID.TID 0000.0001)    2:1170   11170
(PID.TID 0000.0001)     nFlds =   6 , nFl3D =   0 , fields:
(PID.TID 0000.0001)  >siTICE  < >siAREA  < >siHEFF  < >siHSNOW < >siUICE  < >siVICE  <
(PID.TID 0000.0001) missingVal=  1.00000000000000E+00 ; nTimRec =   1 , timeList:
(PID.TID 0000.0001)   6.942240000000E+08
(PID.TID 0000.0001) READ_MFLDS_LEV_RL: read field: "siTICE  ", #   1 in fldList, rec=   1
(PID.TID 0000.0001) READ_MFLDS_3D_RL: read field: "siAREA  ", #   2 in fldList, rec=   2
(PID.TID 0000.0001) READ_MFLDS_3D_RL: read field: "siHEFF  ", #   3 in fldList, rec=   3
(PID.TID 0000.0001) READ_MFLDS_3D_RL: read field: "siHSNOW ", #   4 in fldList, rec=   4
(PID.TID 0000.0001) READ_MFLDS_3D_RL: read field: "siUICE  ", #   5 in fldList, rec=   5
(PID.TID 0000.0001) READ_MFLDS_3D_RL: read field: "siVICE  ", #   6 in fldList, rec=   6
(PID.TID 0000.0001) READ_MFLDS_CHECK: - normal end ; reset MFLDS file-name: pickup_seaice.0000000001
(PID.TID 0000.0001)  ploadbar=  0.00000000000000E+00
(PID.TID 0000.0001) // =======================================================
(PID.TID 0000.0001) // Model current state
(PID.TID 0000.0001) // =======================================================
(PID.TID 0000.0001) 
(PID.TID 0000.0001) %SBO sbo_mass                     =   1.3737561289741E+21
(PID.TID 0000.0001) %SBO sbo_mass_fw                  =   4.3313603608215E+16
(PID.TID 0000.0001) %SBO sbo_zoamc                    =   1.1712417272784E+25
(PID.TID 0000.0001) %SBO sbo_zoamp                    =   2.9265929806492E+30
(PID.TID 0000.0001) whio : create lev 3 rec 221
(PID.TID 0000.0001) whio : create lev 2 rec 221
(PID.TID 0000.0001) SOLVE_FOR_PRESSURE: putPmEinXvector =    F
 cg2d: Sum(rhs),rhsMax =  -6.36393926056195E+01  2.27123055630609E+00
(PID.TID 0000.0001)  ploadbar=  1.01009886745450E+05
 cg2d: Sum(rhs),rhsMax =  -6.34974928928708E+01  2.27499183953223E+00
(PID.TID 0000.0001)  ploadbar=  1.01010710563278E+05
 cg2d: Sum(rhs),rhsMax =  -6.36224350642562E+01  2.26919831372094E+00
(PID.TID 0000.0001)  ploadbar=  1.01011534381107E+05
 cg2d: Sum(rhs),rhsMax =  -6.39407731701180E+01  2.25670151863010E+00
(PID.TID 0000.0001)  ploadbar=  1.01012424565966E+05
 cg2d: Sum(rhs),rhsMax =  -6.44770008101491E+01  2.23680164344475E+00
(PID.TID 0000.0001)  ploadbar=  1.01013314750826E+05
 cg2d: Sum(rhs),rhsMax =  -6.52215647802878E+01  2.21018610160838E+00
(PID.TID 0000.0001)  ploadbar=  1.01014204935685E+05
 cg2d: Sum(rhs),rhsMax =  -6.61118861370992E+01  2.17938329963658E+00
(PID.TID 0000.0001)  ploadbar=  1.01015095120545E+05
 cg2d: Sum(rhs),rhsMax =  -6.70571105104285E+01  2.14765907482088E+00
(PID.TID 0000.0001)  ploadbar=  1.01015985305405E+05
 cg2d: Sum(rhs),rhsMax =  -6.79572085176182E+01  2.11824054546947E+00
(PID.TID 0000.0001)  ploadbar=  1.01016875490264E+05
 cg2d: Sum(rhs),rhsMax =  -6.87474424367557E+01  2.09288028731793E+00
(PID.TID 0000.0001)  ploadbar=  1.01017559921981E+05
 cg2d: Sum(rhs),rhsMax =  -6.94178714646860E+01  2.07160028095825E+00
(PID.TID 0000.0001)  ploadbar=  1.01018244353699E+05
 cg2d: Sum(rhs),rhsMax =  -6.99911318631123E+01  2.05350175569333E+00
(PID.TID 0000.0001)  ploadbar=  1.01018928785416E+05
 cg2d: Sum(rhs),rhsMax =  -7.05708940619301E+01  2.03543335408368E+00
(PID.TID 0000.0001)  ploadbar=  1.01019613217134E+05
 cg2d: Sum(rhs),rhsMax =  -7.12132769158731E+01  2.01580724898173E+00
(PID.TID 0000.0001)  ploadbar=  1.01020297648851E+05
 cg2d: Sum(rhs),rhsMax =  -7.15902671668183E+01  2.00385147784501E+00
(PID.TID 0000.0001)  ploadbar=  1.01020982080568E+05
 cg2d: Sum(rhs),rhsMax =  -7.17232266702221E+01  1.99889092116757E+00
(PID.TID 0000.0001)  ploadbar=  1.01020515482134E+05
 cg2d: Sum(rhs),rhsMax =  -7.18256142511536E+01  1.99488410039120E+00
(PID.TID 0000.0001)  ploadbar=  1.01020048883700E+05
 cg2d: Sum(rhs),rhsMax =  -7.21113626793209E+01  1.98591092826522E+00
(PID.TID 0000.0001)  ploadbar=  1.01019582285266E+05
 cg2d: Sum(rhs),rhsMax =  -7.25634800917400E+01  1.97255424045826E+00
(PID.TID 0000.0001)  ploadbar=  1.01019115686832E+05
 cg2d: Sum(rhs),rhsMax =  -7.31267193246077E+01  1.95645747965364E+00
(PID.TID 0000.0001)  ploadbar=  1.01018649088398E+05
 cg2d: Sum(rhs),rhsMax =  -7.37244605150731E+01  1.93976066960741E+00
(PID.TID 0000.0001)  ploadbar=  1.01018182489963E+05
 cg2d: Sum(rhs),rhsMax =  -7.42148310678993E+01  1.92612260058994E+00
(PID.TID 0000.0001)  ploadbar=  1.01017897262275E+05
 cg2d: Sum(rhs),rhsMax =  -7.48450418035247E+01  1.90908727122948E+00
(PID.TID 0000.0001)  ploadbar=  1.01017612034587E+05
 cg2d: Sum(rhs),rhsMax =  -7.53652336714440E+01  1.89509307326242E+00
(PID.TID 0000.0001)  ploadbar=  1.01017326806899E+05
 cg2d: Sum(rhs),rhsMax =  -7.57972656454363E+01  1.88347614743496E+00
(PID.TID 0000.0001)  ploadbar=  1.01017041579210E+05
 cg2d: Sum(rhs),rhsMax =  -7.62665758895312E+01  1.87108735038999E+00
(PID.TID 0000.0001)  ploadbar=  1.01016756351522E+05
 cg2d: Sum(rhs),rhsMax =  -7.68323118324487E+01  1.85653048069832E+00
(PID.TID 0000.0001)  ploadbar=  1.01016471123834E+05
 cg2d: Sum(rhs),rhsMax =  -7.74927301934983E+01  1.83998151595766E+00
(PID.TID 0000.0001)  ploadbar=  1.01015226684405E+05
 cg2d: Sum(rhs),rhsMax =  -7.82297729171098E+01  1.82195476027439E+00
(PID.TID 0000.0001)  ploadbar=  1.01013982244976E+05
 cg2d: Sum(rhs),rhsMax =  -7.90202593655841E+01  1.80306896654581E+00
(PID.TID 0000.0001)  ploadbar=  1.01012737805547E+05
 cg2d: Sum(rhs),rhsMax =  -7.98369281470970E+01  1.78399504601039E+00
(PID.TID 0000.0001)  ploadbar=  1.01011493366117E+05
 cg2d: Sum(rhs),rhsMax =  -8.06429386191521E+01  1.76556481539113E+00
(PID.TID 0000.0001)  ploadbar=  1.01010248926688E+05
 cg2d: Sum(rhs),rhsMax =  -8.14141804550447E+01  1.74827104087588E+00
(PID.TID 0000.0001)  ploadbar=  1.01009004487259E+05
 cg2d: Sum(rhs),rhsMax =  -8.21238738144641E+01  1.73257465754216E+00
(PID.TID 0000.0001)  ploadbar=  1.01008451653189E+05
 cg2d: Sum(rhs),rhsMax =  -8.22952535638618E+01  1.72834611620116E+00
(PID.TID 0000.0001)  ploadbar=  1.01007898819118E+05
 cg2d: Sum(rhs),rhsMax =  -8.22526255004517E+01  1.72858318562997E+00
(PID.TID 0000.0001)  ploadbar=  1.01007345985047E+05
 cg2d: Sum(rhs),rhsMax =  -8.22034650605810E+01  1.72891772517513E+00
(PID.TID 0000.0001)  ploadbar=  1.01006793150977E+05
 cg2d: Sum(rhs),rhsMax =  -8.21414174901206E+01  1.72948062896543E+00
(PID.TID 0000.0001)  ploadbar=  1.01006240316906E+05
 cg2d: Sum(rhs),rhsMax =  -8.20591388080350E+01  1.73042373017237E+00
(PID.TID 0000.0001)  ploadbar=  1.01005687482836E+05
 cg2d: Sum(rhs),rhsMax =  -8.19193615079452E+01  1.73263806186673E+00
(PID.TID 0000.0001)  ploadbar=  1.01003949274458E+05
 cg2d: Sum(rhs),rhsMax =  -8.17485231276392E+01  1.73556729917355E+00
(PID.TID 0000.0001)  ploadbar=  1.01002211066080E+05
 cg2d: Sum(rhs),rhsMax =  -8.15571402026121E+01  1.73899199487692E+00
(PID.TID 0000.0001)  ploadbar=  1.01000472857703E+05
 cg2d: Sum(rhs),rhsMax =  -8.13686843113808E+01  1.74241050831460E+00
(PID.TID 0000.0001)  ploadbar=  1.00998734649325E+05
 cg2d: Sum(rhs),rhsMax =  -8.12140915312414E+01  1.74515819899814E+00
(PID.TID 0000.0001)  ploadbar=  1.00996996440947E+05
 cg2d: Sum(rhs),rhsMax =  -8.11302707928227E+01  1.74642504862122E+00
(PID.TID 0000.0001)  ploadbar=  1.00995258232570E+05
 cg2d: Sum(rhs),rhsMax =  -8.11112145080820E+01  1.74631105596840E+00
(PID.TID 0000.0001)  ploadbar=  1.00995220295049E+05
 cg2d: Sum(rhs),rhsMax =  -8.11446022007114E+01  1.74507037872569E+00
(PID.TID 0000.0001)  ploadbar=  1.00995182357528E+05
 cg2d: Sum(rhs),rhsMax =  -8.12137283396490E+01  1.74306326512027E+00
(PID.TID 0000.0001)  ploadbar=  1.00995144420007E+05
 cg2d: Sum(rhs),rhsMax =  -8.13045919177848E+01  1.74059375184543E+00
(PID.TID 0000.0001)  ploadbar=  1.00995106482486E+05
 cg2d: Sum(rhs),rhsMax =  -8.14145516374069E+01  1.73772242386282E+00
(PID.TID 0000.0001)  ploadbar=  1.00995068544965E+05
 cg2d: Sum(rhs),rhsMax =  -8.15568062787172E+01  1.73417456027016E+00
(PID.TID 0000.0001)  ploadbar=  1.00995030607444E+05
 cg2d: Sum(rhs),rhsMax =  -8.16947352739638E+01  1.73074432571586E+00
(PID.TID 0000.0001)  ploadbar=  1.00995217602907E+05
 cg2d: Sum(rhs),rhsMax =  -8.18125964406623E+01  1.72775187958654E+00
(PID.TID 0000.0001)  ploadbar=  1.00995404598371E+05
 cg2d: Sum(rhs),rhsMax =  -8.18984577889268E+01  1.72544040931641E+00
(PID.TID 0000.0001)  ploadbar=  1.00995591593835E+05
 cg2d: Sum(rhs),rhsMax =  -8.19691443261939E+01  1.72345006210970E+00
(PID.TID 0000.0001)  ploadbar=  1.00995778589299E+05
 cg2d: Sum(rhs),rhsMax =  -8.20385952779463E+01  1.72148759233452E+00
(PID.TID 0000.0001)  ploadbar=  1.00995965584763E+05
 cg2d: Sum(rhs),rhsMax =  -8.21171628827674E+01  1.71933623724951E+00
(PID.TID 0000.0001)  ploadbar=  1.00996152580227E+05
 cg2d: Sum(rhs),rhsMax =  -8.21717880540231E+01  1.71765748511714E+00
(PID.TID 0000.0001)  ploadbar=  1.00996796836576E+05
 cg2d: Sum(rhs),rhsMax =  -8.19472605493160E+01  1.72178823288756E+00
(PID.TID 0000.0001)  ploadbar=  1.00997441092926E+05
 cg2d: Sum(rhs),rhsMax =  -8.17221202572429E+01  1.72591163827707E+00
(PID.TID 0000.0001)  ploadbar=  1.00998085349276E+05
 cg2d: Sum(rhs),rhsMax =  -8.15493363260234E+01  1.72890366191432E+00
(PID.TID 0000.0001)  ploadbar=  1.00998729605625E+05
 cg2d: Sum(rhs),rhsMax =  -8.14313124093901E+01  1.73070083512375E+00
(PID.TID 0000.0001)  ploadbar=  1.00999373861975E+05
 cg2d: Sum(rhs),rhsMax =  -8.13576790312574E+01  1.73151041423704E+00
(PID.TID 0000.0001)  ploadbar=  1.01000018118325E+05
 cg2d: Sum(rhs),rhsMax =  -8.12601298089758E+01  1.73285993058147E+00
(PID.TID 0000.0001)  ploadbar=  1.01000113562829E+05
 cg2d: Sum(rhs),rhsMax =  -8.11738079577264E+01  1.73399575853739E+00
(PID.TID 0000.0001)  ploadbar=  1.01000209007332E+05
 cg2d: Sum(rhs),rhsMax =  -8.10897694174644E+01  1.73510534699824E+00
(PID.TID 0000.0001)  ploadbar=  1.01000304451836E+05
 cg2d: Sum(rhs),rhsMax =  -8.10031582120554E+01  1.73628962605612E+00
(PID.TID 0000.0001)  ploadbar=  1.01000399896340E+05
 cg2d: Sum(rhs),rhsMax =  -8.09130522943673E+01  1.73756891621993E+00
(PID.TID 0000.0001)  ploadbar=  1.01000495340844E+05
 cg2d: Sum(rhs),rhsMax =  -8.08244123316927E+01  1.73882719234928E+00
(PID.TID 0000.0001)  ploadbar=  1.01000590785348E+05
 cg2d: Sum(rhs),rhsMax =  -8.07329292367182E+01  1.74018342883935E+00
(PID.TID 0000.0001)  ploadbar=  1.01001617682849E+05
 cg2d: Sum(rhs),rhsMax =  -8.04332853763558E+01  1.74607954360284E+00
(PID.TID 0000.0001)  ploadbar=  1.01002644580350E+05
 cg2d: Sum(rhs),rhsMax =  -8.00977158114393E+01  1.75283335275598E+00
(PID.TID 0000.0001)  ploadbar=  1.01003671477851E+05
 cg2d: Sum(rhs),rhsMax =  -7.97767842554713E+01  1.75934732767181E+00
(PID.TID 0000.0001)  ploadbar=  1.01004698375351E+05
 cg2d: Sum(rhs),rhsMax =  -7.94727273624036E+01  1.76556047963545E+00
(PID.TID 0000.0001)  ploadbar=  1.01005725272852E+05
 cg2d: Sum(rhs),rhsMax =  -7.91876324681422E+01  1.77141686749353E+00
(PID.TID 0000.0001)  ploadbar=  1.01006752170353E+05
 cg2d: Sum(rhs),rhsMax =  -7.89669917629111E+01  1.77589755117019E+00
(PID.TID 0000.0001)  ploadbar=  1.01007648246474E+05
 cg2d: Sum(rhs),rhsMax =  -7.89900886673560E+01  1.77492975557355E+00
(PID.TID 0000.0001)  ploadbar=  1.01008544322596E+05
 cg2d: Sum(rhs),rhsMax =  -7.90514195391381E+01  1.77312507146029E+00
(PID.TID 0000.0001)  ploadbar=  1.01009440398718E+05
 cg2d: Sum(rhs),rhsMax =  -7.91443519856804E+01  1.77063421874320E+00
(PID.TID 0000.0001)  ploadbar=  1.01010336474839E+05
 cg2d: Sum(rhs),rhsMax =  -7.92717709759444E+01  1.76739710397949E+00
(PID.TID 0000.0001)  ploadbar=  1.01011232550961E+05
 cg2d: Sum(rhs),rhsMax =  -7.91538964305919E+01  1.76965447954885E+00
(PID.TID 0000.0001)  ploadbar=  1.01012128627083E+05
 cg2d: Sum(rhs),rhsMax =  -7.88605380772752E+01  1.77579955088718E+00
(PID.TID 0000.0001)  ploadbar=  1.01012584927308E+05
 cg2d: Sum(rhs),rhsMax =  -7.85841096389500E+01  1.78153593562504E+00
(PID.TID 0000.0001)  ploadbar=  1.01013041227533E+05
 cg2d: Sum(rhs),rhsMax =  -7.83608362050382E+01  1.78602689910891E+00
(PID.TID 0000.0001)  ploadbar=  1.01013497527758E+05
 cg2d: Sum(rhs),rhsMax =  -7.81927597181509E+01  1.78920862154928E+00
(PID.TID 0000.0001)  ploadbar=  1.01013953827983E+05
 cg2d: Sum(rhs),rhsMax =  -7.80820168119883E+01  1.79101977090661E+00
(PID.TID 0000.0001)  ploadbar=  1.01014410128208E+05
 cg2d: Sum(rhs),rhsMax =  -7.75319953890510E+01  1.80292021808171E+00
(PID.TID 0000.0001)  ploadbar=  1.01014866428433E+05
 cg2d: Sum(rhs),rhsMax =  -7.64211366244183E+01  1.82835746564735E+00
(PID.TID 0000.0001)  ploadbar=  1.01015381708840E+05
 cg2d: Sum(rhs),rhsMax =  -7.53907293854334E+01  1.85260713796892E+00
(PID.TID 0000.0001)  ploadbar=  1.01015896989247E+05
 cg2d: Sum(rhs),rhsMax =  -7.44211143295864E+01  1.87603499014497E+00
(PID.TID 0000.0001)  ploadbar=  1.01016412269654E+05
 cg2d: Sum(rhs),rhsMax =  -7.34781171095313E+01  1.89943407674271E+00
(PID.TID 0000.0001)  ploadbar=  1.01016927550062E+05
 cg2d: Sum(rhs),rhsMax =  -7.25148678698832E+01  1.92402127323582E+00
(PID.TID 0000.0001)  ploadbar=  1.01017442830469E+05
 cg2d: Sum(rhs),rhsMax =  -7.15378413426790E+01  1.94968363032931E+00
(PID.TID 0000.0001)  ploadbar=  1.01017958110876E+05
 cg2d: Sum(rhs),rhsMax =  -7.05859034549367E+01  1.97536860330000E+00
(PID.TID 0000.0001)  ploadbar=  1.01017973438592E+05
 cg2d: Sum(rhs),rhsMax =  -6.96749469517875E+01  2.00058794137952E+00
(PID.TID 0000.0001)  ploadbar=  1.01017988766307E+05
 cg2d: Sum(rhs),rhsMax =  -6.88251856594506E+01  2.02468086303522E+00
(PID.TID 0000.0001)  ploadbar=  1.01018004094023E+05
 cg2d: Sum(rhs),rhsMax =  -6.80604686692665E+01  2.04681992888389E+00
(PID.TID 0000.0001)  ploadbar=  1.01018019421738E+05
 cg2d: Sum(rhs),rhsMax =  -6.74176439007024E+01  2.06572410220467E+00
(PID.TID 0000.0001)  ploadbar=  1.01018034749454E+05
 cg2d: Sum(rhs),rhsMax =  -6.69219415585319E+01  2.08040836901390E+00
(PID.TID 0000.0001)  ploadbar=  1.01018050077170E+05
 cg2d: Sum(rhs),rhsMax =  -6.66142657241741E+01  2.08942977878580E+00
(PID.TID 0000.0001)  ploadbar=  1.01018983920961E+05
 cg2d: Sum(rhs),rhsMax =  -6.65171733426014E+01  2.09191639556978E+00
(PID.TID 0000.0001)  ploadbar=  1.01019917764753E+05
 cg2d: Sum(rhs),rhsMax =  -6.66311125025928E+01  2.08779882164143E+00
(PID.TID 0000.0001)  ploadbar=  1.01020851608545E+05
 cg2d: Sum(rhs),rhsMax =  -6.69332615327412E+01  2.07785692528481E+00
(PID.TID 0000.0001)  ploadbar=  1.01021785452337E+05
 cg2d: Sum(rhs),rhsMax =  -6.73748957888257E+01  2.06374412227052E+00
(PID.TID 0000.0001)  ploadbar=  1.01022719296128E+05
 cg2d: Sum(rhs),rhsMax =  -6.78955835703317E+01  2.04745128553800E+00
(PID.TID 0000.0001)  ploadbar=  1.01023653139920E+05
 cg2d: Sum(rhs),rhsMax =  -6.84608229006252E+01  2.03006152232593E+00
(PID.TID 0000.0001)  ploadbar=  1.01025076405128E+05
 cg2d: Sum(rhs),rhsMax =  -6.90827111129126E+01  2.01127305373307E+00
(PID.TID 0000.0001)  ploadbar=  1.01026499670335E+05
 cg2d: Sum(rhs),rhsMax =  -6.97863656243622E+01  1.99044715798678E+00
(PID.TID 0000.0001)  ploadbar=  1.01027922935542E+05
 cg2d: Sum(rhs),rhsMax =  -7.05824878174406E+01  1.96741869096643E+00
(PID.TID 0000.0001)  ploadbar=  1.01029346200750E+05
 cg2d: Sum(rhs),rhsMax =  -7.14570145255083E+01  1.94273143576755E+00
(PID.TID 0000.0001)  ploadbar=  1.01030769465957E+05
 cg2d: Sum(rhs),rhsMax =  -7.23641058733037E+01  1.91773672684681E+00
(PID.TID 0000.0001)  ploadbar=  1.01032192731164E+05
 cg2d: Sum(rhs),rhsMax =  -7.32587273131165E+01  1.89371220583304E+00
(PID.TID 0000.0001)  ploadbar=  1.01033636514029E+05
 cg2d: Sum(rhs),rhsMax =  -7.41483089330642E+01  1.87041954116458E+00
(PID.TID 0000.0001)  ploadbar=  1.01035080296894E+05
 cg2d: Sum(rhs),rhsMax =  -7.50439349607667E+01  1.84755147279265E+00
(PID.TID 0000.0001)  ploadbar=  1.01036524079758E+05
 cg2d: Sum(rhs),rhsMax =  -7.59524470485636E+01  1.82493343985183E+00
(PID.TID 0000.0001)  ploadbar=  1.01037967862623E+05
 cg2d: Sum(rhs),rhsMax =  -7.68732057750763E+01  1.80258147527304E+00
(PID.TID 0000.0001)  ploadbar=  1.01039411645488E+05
 cg2d: Sum(rhs),rhsMax =  -7.78147550992696E+01  1.78028876044995E+00
(PID.TID 0000.0001)  ploadbar=  1.01040855428352E+05
 cg2d: Sum(rhs),rhsMax =  -7.87796864510027E+01  1.75797697764163E+00
(PID.TID 0000.0001)  ploadbar=  1.01041991999889E+05
 cg2d: Sum(rhs),rhsMax =  -7.97784756606201E+01  1.73543489923829E+00
(PID.TID 0000.0001)  ploadbar=  1.01043128571425E+05
 cg2d: Sum(rhs),rhsMax =  -8.08137577294065E+01  1.71264129244982E+00
(PID.TID 0000.0001)  ploadbar=  1.01044265142961E+05
 cg2d: Sum(rhs),rhsMax =  -8.18809752048871E+01  1.68972891410317E+00
(PID.TID 0000.0001)  ploadbar=  1.01045401714497E+05
 cg2d: Sum(rhs),rhsMax =  -8.28409386739541E+01  1.66952727471727E+00
(PID.TID 0000.0001)  ploadbar=  1.01046538286033E+05
 cg2d: Sum(rhs),rhsMax =  -8.29070575202919E+01  1.66753498080276E+00
(PID.TID 0000.0001)  ploadbar=  1.01047674857569E+05
 cg2d: Sum(rhs),rhsMax =  -8.29523066953870E+01  1.66597856531228E+00
(PID.TID 0000.0001)  ploadbar=  1.01048912970943E+05
 cg2d: Sum(rhs),rhsMax =  -8.29699325181633E+01  1.66498162079295E+00
(PID.TID 0000.0001)  ploadbar=  1.01050151084317E+05
 cg2d: Sum(rhs),rhsMax =  -8.29431775888882E+01  1.66487697498264E+00
(PID.TID 0000.0001)  ploadbar=  1.01051389197691E+05
 cg2d: Sum(rhs),rhsMax =  -8.28631203497280E+01  1.66584111763752E+00
(PID.TID 0000.0001)  ploadbar=  1.01052627311065E+05
 cg2d: Sum(rhs),rhsMax =  -8.27328003860699E+01  1.66781579252222E+00
(PID.TID 0000.0001)  ploadbar=  1.01053865424440E+05
 cg2d: Sum(rhs),rhsMax =  -8.25604519810702E+01  1.67064087191195E+00
(PID.TID 0000.0001)  ploadbar=  1.01055103537814E+05
 cg2d: Sum(rhs),rhsMax =  -8.23585275227717E+01  1.67405341288124E+00
(PID.TID 0000.0001)  ploadbar=  1.01056222874109E+05
 cg2d: Sum(rhs),rhsMax =  -8.21205250068029E+01  1.67819097934313E+00
(PID.TID 0000.0001)  ploadbar=  1.01057342210404E+05
 cg2d: Sum(rhs),rhsMax =  -8.18553198337071E+01  1.68287837060941E+00
(PID.TID 0000.0001)  ploadbar=  1.01058461546699E+05
 cg2d: Sum(rhs),rhsMax =  -8.15757947285868E+01  1.68785870229654E+00
(PID.TID 0000.0001)  ploadbar=  1.01059580882994E+05
 cg2d: Sum(rhs),rhsMax =  -8.12877596140012E+01  1.69301644596058E+00
(PID.TID 0000.0001)  ploadbar=  1.01060700219289E+05
 cg2d: Sum(rhs),rhsMax =  -8.09917449691347E+01  1.69834021369266E+00
(PID.TID 0000.0001)  ploadbar=  1.01061819555584E+05
 cg2d: Sum(rhs),rhsMax =  -8.07583469230228E+01  1.70241702231585E+00
(PID.TID 0000.0001)  ploadbar=  1.01061930850003E+05
 cg2d: Sum(rhs),rhsMax =  -8.04645306450902E+01  1.70783027249045E+00
(PID.TID 0000.0001)  ploadbar=  1.01062042144422E+05
 cg2d: Sum(rhs),rhsMax =  -8.01330167027628E+01  1.71411971081556E+00
(PID.TID 0000.0001)  ploadbar=  1.01062153438842E+05
 cg2d: Sum(rhs),rhsMax =  -7.97739829350832E+01  1.72108617839097E+00
(PID.TID 0000.0001)  ploadbar=  1.01062264733261E+05
 cg2d: Sum(rhs),rhsMax =  -7.94069478452913E+01  1.72831606771246E+00
(PID.TID 0000.0001)  ploadbar=  1.01062376027680E+05
 cg2d: Sum(rhs),rhsMax =  -7.90548269894603E+01  1.73530236070112E+00
(PID.TID 0000.0001)  ploadbar=  1.01062487322100E+05
 cg2d: Sum(rhs),rhsMax =  -7.86968945969795E+01  1.74247539198094E+00
(PID.TID 0000.0001)  ploadbar=  1.01062159977140E+05
 cg2d: Sum(rhs),rhsMax =  -7.83691019732655E+01  1.74903467593293E+00
(PID.TID 0000.0001)  ploadbar=  1.01061832632180E+05
 cg2d: Sum(rhs),rhsMax =  -7.80792845888769E+01  1.75479068149151E+00
(PID.TID 0000.0001)  ploadbar=  1.01061505287220E+05
 cg2d: Sum(rhs),rhsMax =  -7.78024433166997E+01  1.76028822905864E+00
(PID.TID 0000.0001)  ploadbar=  1.01061177942260E+05
 cg2d: Sum(rhs),rhsMax =  -7.75453817833770E+01  1.76536362331895E+00
(PID.TID 0000.0001)  ploadbar=  1.01060850597300E+05
 cg2d: Sum(rhs),rhsMax =  -7.68714386534607E+01  1.78006150337859E+00
(PID.TID 0000.0001)  ploadbar=  1.01060523252340E+05
 cg2d: Sum(rhs),rhsMax =  -7.59297343402591E+01  1.80137542421499E+00
(PID.TID 0000.0001)  ploadbar=  1.01060507317938E+05
 cg2d: Sum(rhs),rhsMax =  -7.49161942880812E+01  1.82498965825402E+00
(PID.TID 0000.0001)  ploadbar=  1.01060491383536E+05
 cg2d: Sum(rhs),rhsMax =  -7.38636507046834E+01  1.85024225583088E+00
(PID.TID 0000.0001)  ploadbar=  1.01060475449135E+05
 cg2d: Sum(rhs),rhsMax =  -7.28017259580895E+01  1.87647843697840E+00
(PID.TID 0000.0001)  ploadbar=  1.01060459514733E+05
 cg2d: Sum(rhs),rhsMax =  -7.17261394275529E+01  1.90386330121643E+00
(PID.TID 0000.0001)  ploadbar=  1.01060443580331E+05
 cg2d: Sum(rhs),rhsMax =  -7.06519162824246E+01  1.93205221006796E+00
(PID.TID 0000.0001)  ploadbar=  1.01060427645930E+05
 cg2d: Sum(rhs),rhsMax =  -6.95701735538571E+01  1.96130733650267E+00
(PID.TID 0000.0001)  ploadbar=  1.01060225530149E+05
 cg2d: Sum(rhs),rhsMax =  -6.84704920262730E+01  1.99198977121816E+00
(PID.TID 0000.0001)  ploadbar=  1.01060023414368E+05
 cg2d: Sum(rhs),rhsMax =  -6.73648998391079E+01  2.02383134535898E+00
(PID.TID 0000.0001)  ploadbar=  1.01059821298588E+05
 cg2d: Sum(rhs),rhsMax =  -6.62704488148539E+01  2.05637153778415E+00
(PID.TID 0000.0001)  ploadbar=  1.01059619182807E+05
 cg2d: Sum(rhs),rhsMax =  -6.52338750421510E+01  2.08812930270480E+00
(PID.TID 0000.0001)  ploadbar=  1.01059417067026E+05
 cg2d: Sum(rhs),rhsMax =  -6.42981413729577E+01  2.11755278193390E+00
(PID.TID 0000.0001)  ploadbar=  1.01059214951246E+05
 cg2d: Sum(rhs),rhsMax =  -6.34767556407762E+01  2.14405060347565E+00
(PID.TID 0000.0001)  ploadbar=  1.01059225595712E+05
 cg2d: Sum(rhs),rhsMax =  -6.27770328251765E+01  2.16710434852461E+00
(PID.TID 0000.0001)  ploadbar=  1.01059236240179E+05
 cg2d: Sum(rhs),rhsMax =  -6.21909461252346E+01  2.18673887593251E+00
(PID.TID 0000.0001)  ploadbar=  1.01059246884646E+05
 cg2d: Sum(rhs),rhsMax =  -6.16929671272182E+01  2.20365822341261E+00
(PID.TID 0000.0001)  ploadbar=  1.01059257529112E+05
 cg2d: Sum(rhs),rhsMax =  -6.12484536827654E+01  2.21896765916078E+00
(PID.TID 0000.0001)  ploadbar=  1.01059268173579E+05
 cg2d: Sum(rhs),rhsMax =  -6.08258215972989E+01  2.23374086810281E+00
(PID.TID 0000.0001)  ploadbar=  1.01059278818046E+05
 cg2d: Sum(rhs),rhsMax =  -6.04228482691816E+01  2.24794232834017E+00
(PID.TID 0000.0001)  ploadbar=  1.01059579434945E+05
 cg2d: Sum(rhs),rhsMax =  -6.00448046417800E+01  2.26134162297189E+00
(PID.TID 0000.0001)  ploadbar=  1.01059880051844E+05
 cg2d: Sum(rhs),rhsMax =  -5.96939147688058E+01  2.27382914327824E+00
(PID.TID 0000.0001)  ploadbar=  1.01060180668743E+05
 cg2d: Sum(rhs),rhsMax =  -5.93820407446451E+01  2.28491546875560E+00
(PID.TID 0000.0001)  ploadbar=  1.01060481285643E+05
 cg2d: Sum(rhs),rhsMax =  -5.91115865918602E+01  2.29445522319415E+00
(PID.TID 0000.0001)  ploadbar=  1.01060781902542E+05
 cg2d: Sum(rhs),rhsMax =  -5.88870330981297E+01  2.30222750635525E+00
(PID.TID 0000.0001)  ploadbar=  1.01061082519441E+05
 cg2d: Sum(rhs),rhsMax =  -5.87141515545443E+01  2.30806937990241E+00
(PID.TID 0000.0001)  ploadbar=  1.01060440369864E+05
 cg2d: Sum(rhs),rhsMax =  -5.85901128744420E+01  2.31204788777267E+00
(PID.TID 0000.0001)  ploadbar=  1.01059798220287E+05
 cg2d: Sum(rhs),rhsMax =  -5.85083027894701E+01  2.31439832337259E+00
(PID.TID 0000.0001)  ploadbar=  1.01059156070709E+05
 cg2d: Sum(rhs),rhsMax =  -5.84558715022779E+01  2.31561125071156E+00
(PID.TID 0000.0001)  ploadbar=  1.01058513921132E+05
 cg2d: Sum(rhs),rhsMax =  -5.84285690573194E+01  2.31584710382553E+00
(PID.TID 0000.0001)  ploadbar=  1.01057871771555E+05
 cg2d: Sum(rhs),rhsMax =  -5.84205867679799E+01  2.31533177297783E+00
(PID.TID 0000.0001)  ploadbar=  1.01057229621978E+05
 cg2d: Sum(rhs),rhsMax =  -5.84151320531003E+01  2.31468081807361E+00
(PID.TID 0000.0001)  ploadbar=  1.01058152794450E+05
 cg2d: Sum(rhs),rhsMax =  -5.84077123789787E+01  2.31406550469337E+00
(PID.TID 0000.0001)  ploadbar=  1.01059075966923E+05
 cg2d: Sum(rhs),rhsMax =  -5.83969672794625E+01  2.31353602469347E+00
(PID.TID 0000.0001)  ploadbar=  1.01059999139395E+05
 cg2d: Sum(rhs),rhsMax =  -5.83854894185956E+01  2.31298577402037E+00
(PID.TID 0000.0001)  ploadbar=  1.01060922311867E+05
 cg2d: Sum(rhs),rhsMax =  -5.83803721949181E+01  2.31212751121320E+00
(PID.TID 0000.0001)  ploadbar=  1.01061845484340E+05
 cg2d: Sum(rhs),rhsMax =  -5.83914372164579E+01  2.31056340680504E+00
(PID.TID 0000.0001)  ploadbar=  1.01062768656812E+05
 cg2d: Sum(rhs),rhsMax =  -5.84215270793264E+01  2.30830884550571E+00
(PID.TID 0000.0001)  ploadbar=  1.01063531774286E+05
 cg2d: Sum(rhs),rhsMax =  -5.84758292630935E+01  2.30515620328034E+00
(PID.TID 0000.0001)  ploadbar=  1.01064294891760E+05
 cg2d: Sum(rhs),rhsMax =  -5.85593253126571E+01  2.30090991017343E+00
(PID.TID 0000.0001)  ploadbar=  1.01065058009234E+05
 cg2d: Sum(rhs),rhsMax =  -5.86742160504317E+01  2.29548790102405E+00
(PID.TID 0000.0001)  ploadbar=  1.01065821126709E+05
 cg2d: Sum(rhs),rhsMax =  -5.88176273801074E+01  2.28900948555465E+00
(PID.TID 0000.0001)  ploadbar=  1.01066584244183E+05
 cg2d: Sum(rhs),rhsMax =  -5.89923083723893E+01  2.28137909197895E+00
(PID.TID 0000.0001)  ploadbar=  1.01067347361657E+05
 cg2d: Sum(rhs),rhsMax =  -5.91970680194805E+01  2.27265089418148E+00
(PID.TID 0000.0001)  ploadbar=  1.01067469434675E+05
 cg2d: Sum(rhs),rhsMax =  -5.94259363866799E+01  2.26306695444249E+00
(PID.TID 0000.0001)  ploadbar=  1.01067591507692E+05
 cg2d: Sum(rhs),rhsMax =  -5.96776708172998E+01  2.25269424744574E+00
(PID.TID 0000.0001)  ploadbar=  1.01067713580709E+05
 cg2d: Sum(rhs),rhsMax =  -5.99534001943761E+01  2.24151722894956E+00
(PID.TID 0000.0001)  ploadbar=  1.01067835653727E+05
 cg2d: Sum(rhs),rhsMax =  -6.02553002265506E+01  2.22948328016573E+00
(PID.TID 0000.0001)  ploadbar=  1.01067957726744E+05
 cg2d: Sum(rhs),rhsMax =  -6.05861498272626E+01  2.21651338679047E+00
(PID.TID 0000.0001)  ploadbar=  1.01068079799762E+05
 cg2d: Sum(rhs),rhsMax =  -6.09462497306623E+01  2.20266779999135E+00
(PID.TID 0000.0001)  ploadbar=  1.01068888736797E+05
 cg2d: Sum(rhs),rhsMax =  -6.13300776688287E+01  2.18817224529751E+00
(PID.TID 0000.0001)  ploadbar=  1.01069697673832E+05
 cg2d: Sum(rhs),rhsMax =  -6.17319702733119E+01  2.17325039370900E+00
(PID.TID 0000.0001)  ploadbar=  1.01070506610867E+05
 cg2d: Sum(rhs),rhsMax =  -6.21447796444411E+01  2.15816593337699E+00
(PID.TID 0000.0001)  ploadbar=  1.01071315547902E+05
 cg2d: Sum(rhs),rhsMax =  -6.25614457266042E+01  2.14316845111854E+00
(PID.TID 0000.0001)  ploadbar=  1.01072124484937E+05
 cg2d: Sum(rhs),rhsMax =  -6.29774127967794E+01  2.12841182892687E+00
(PID.TID 0000.0001)  ploadbar=  1.01072933421972E+05
 cg2d: Sum(rhs),rhsMax =  -6.33948429803611E+01  2.11376282394629E+00
(PID.TID 0000.0001)  ploadbar=  1.01072560508577E+05
 cg2d: Sum(rhs),rhsMax =  -6.38135679301912E+01  2.09922348623592E+00
(PID.TID 0000.0001)  ploadbar=  1.01072187595181E+05
 cg2d: Sum(rhs),rhsMax =  -6.42351555370723E+01  2.08473923504640E+00
(PID.TID 0000.0001)  ploadbar=  1.01071814681786E+05
 cg2d: Sum(rhs),rhsMax =  -6.46620985341164E+01  2.07023040969327E+00
(PID.TID 0000.0001)  ploadbar=  1.01071441768391E+05
 cg2d: Sum(rhs),rhsMax =  -6.50937362124417E+01  2.05572222502907E+00
(PID.TID 0000.0001)  ploadbar=  1.01071068854995E+05
 cg2d: Sum(rhs),rhsMax =  -6.55286408229779E+01  2.04125799323995E+00
(PID.TID 0000.0001)  ploadbar=  1.01070695941600E+05
 cg2d: Sum(rhs),rhsMax =  -6.59595522626111E+01  2.02715154278593E+00
(PID.TID 0000.0001)  ploadbar=  1.01069761110068E+05
 cg2d: Sum(rhs),rhsMax =  -6.63846976119730E+01  2.01344404421171E+00
(PID.TID 0000.0001)  ploadbar=  1.01068826278536E+05
 cg2d: Sum(rhs),rhsMax =  -6.68104997746383E+01  1.99992857134858E+00
(PID.TID 0000.0001)  ploadbar=  1.01067891447005E+05
 cg2d: Sum(rhs),rhsMax =  -6.72367609712031E+01  1.98660607551869E+00
(PID.TID 0000.0001)  ploadbar=  1.01066956615473E+05
 cg2d: Sum(rhs),rhsMax =  -6.76640432941223E+01  1.97345436672191E+00
(PID.TID 0000.0001)  ploadbar=  1.01066021783941E+05
 cg2d: Sum(rhs),rhsMax =  -6.80930712222978E+01  1.96044353047219E+00
(PID.TID 0000.0001)  ploadbar=  1.01065086952409E+05
 cg2d: Sum(rhs),rhsMax =  -6.85232819254474E+01  1.94755744750419E+00
(PID.TID 0000.0001)  ploadbar=  1.01064411192842E+05
 cg2d: Sum(rhs),rhsMax =  -6.89549756034985E+01  1.93478010405546E+00
(PID.TID 0000.0001)  ploadbar=  1.01063735433275E+05
 cg2d: Sum(rhs),rhsMax =  -6.93874652068138E+01  1.92212774118877E+00
(PID.TID 0000.0001)  ploadbar=  1.01063059673708E+05
 cg2d: Sum(rhs),rhsMax =  -6.98196908364988E+01  1.90962500666432E+00
(PID.TID 0000.0001)  ploadbar=  1.01062383914141E+05
 cg2d: Sum(rhs),rhsMax =  -7.02507360916815E+01  1.89729428554939E+00
(PID.TID 0000.0001)  ploadbar=  1.01061708154574E+05
 cg2d: Sum(rhs),rhsMax =  -7.06656687418758E+01  1.88552886608899E+00
(PID.TID 0000.0001)  ploadbar=  1.01061032395007E+05
 cg2d: Sum(rhs),rhsMax =  -7.10839837939050E+01  1.87384960595594E+00
(PID.TID 0000.0001)  ploadbar=  1.01059208684305E+05
 cg2d: Sum(rhs),rhsMax =  -7.15083566531610E+01  1.86217920640834E+00
(PID.TID 0000.0001)  ploadbar=  1.01057384973604E+05
 cg2d: Sum(rhs),rhsMax =  -7.19398075348984E+01  1.85048903350108E+00
(PID.TID 0000.0001)  ploadbar=  1.01055561262902E+05
 cg2d: Sum(rhs),rhsMax =  -7.23787950688496E+01  1.83876769073774E+00
(PID.TID 0000.0001)  ploadbar=  1.01053737552201E+05
 cg2d: Sum(rhs),rhsMax =  -7.28254221238242E+01  1.82701377346879E+00
(PID.TID 0000.0001)  ploadbar=  1.01051913841499E+05
 cg2d: Sum(rhs),rhsMax =  -7.32777624233117E+01  1.81527790336880E+00
(PID.TID 0000.0001)  ploadbar=  1.01050090130797E+05
 cg2d: Sum(rhs),rhsMax =  -7.37308194362760E+01  1.80362733144371E+00
(PID.TID 0000.0001)  ploadbar=  1.01049135529062E+05
 cg2d: Sum(rhs),rhsMax =  -7.41856392566131E+01  1.79203148512114E+00
(PID.TID 0000.0001)  ploadbar=  1.01048180927327E+05
 cg2d: Sum(rhs),rhsMax =  -7.46428841157509E+01  1.78046991384470E+00
(PID.TID 0000.0001)  ploadbar=  1.01047226325591E+05
 cg2d: Sum(rhs),rhsMax =  -7.51028807656215E+01  1.76893200289242E+00
(PID.TID 0000.0001)  ploadbar=  1.01046271723856E+05
 cg2d: Sum(rhs),rhsMax =  -7.55675996690491E+01  1.75736882648210E+00
(PID.TID 0000.0001)  ploadbar=  1.01045317122121E+05
 cg2d: Sum(rhs),rhsMax =  -7.57933842451194E+01  1.75139268698417E+00
(PID.TID 0000.0001)  ploadbar=  1.01044362520385E+05
 cg2d: Sum(rhs),rhsMax =  -7.59572313148177E+01  1.74690598649242E+00
(PID.TID 0000.0001)  ploadbar=  1.01044772393056E+05
 cg2d: Sum(rhs),rhsMax =  -7.61063482400859E+01  1.74280101513867E+00
(PID.TID 0000.0001)  ploadbar=  1.01045182265727E+05
 cg2d: Sum(rhs),rhsMax =  -7.63042618847998E+01  1.73762299980850E+00
(PID.TID 0000.0001)  ploadbar=  1.01045592138397E+05
 cg2d: Sum(rhs),rhsMax =  -7.65406252941156E+01  1.73162315191517E+00
(PID.TID 0000.0001)  ploadbar=  1.01046002011068E+05
 cg2d: Sum(rhs),rhsMax =  -7.68215102627152E+01  1.72467874228659E+00
(PID.TID 0000.0001)  ploadbar=  1.01046411883738E+05
 cg2d: Sum(rhs),rhsMax =  -7.71508590676740E+01  1.71671562302116E+00
(PID.TID 0000.0001)  ploadbar=  1.01046821756409E+05
 cg2d: Sum(rhs),rhsMax =  -7.74483548132643E+01  1.70951470142871E+00
(PID.TID 0000.0001)  ploadbar=  1.01047566950099E+05
 cg2d: Sum(rhs),rhsMax =  -7.76994934104198E+01  1.70336779495680E+00
(PID.TID 0000.0001)  ploadbar=  1.01048312143789E+05
 cg2d: Sum(rhs),rhsMax =  -7.79192197048104E+01  1.69792617819377E+00
(PID.TID 0000.0001)  ploadbar=  1.01049057337479E+05
 cg2d: Sum(rhs),rhsMax =  -7.81685456238442E+01  1.69185721113867E+00
(PID.TID 0000.0001)  ploadbar=  1.01049802531169E+05
 cg2d: Sum(rhs),rhsMax =  -7.84571109787942E+01  1.68496644668060E+00
(PID.TID 0000.0001)  ploadbar=  1.01050547724859E+05
 cg2d: Sum(rhs),rhsMax =  -7.87937061679407E+01  1.67708548208069E+00
(PID.TID 0000.0001)  ploadbar=  1.01051292918549E+05
 cg2d: Sum(rhs),rhsMax =  -7.91213686901328E+01  1.66950694406366E+00
(PID.TID 0000.0001)  ploadbar=  1.01052884073538E+05
 cg2d: Sum(rhs),rhsMax =  -7.94864507498728E+01  1.66124399346234E+00
(PID.TID 0000.0001)  ploadbar=  1.01054475228527E+05
 cg2d: Sum(rhs),rhsMax =  -7.98499476905195E+01  1.65311920248246E+00
(PID.TID 0000.0001)  ploadbar=  1.01056066383516E+05
 cg2d: Sum(rhs),rhsMax =  -8.02361903613464E+01  1.64462798915139E+00
(PID.TID 0000.0001)  ploadbar=  1.01057657538505E+05
 cg2d: Sum(rhs),rhsMax =  -8.06167447780717E+01  1.63635533515750E+00
(PID.TID 0000.0001)  ploadbar=  1.01059248693494E+05
 cg2d: Sum(rhs),rhsMax =  -8.09701760339467E+01  1.62872537315755E+00
(PID.TID 0000.0001)  ploadbar=  1.01060839848483E+05
 cg2d: Sum(rhs),rhsMax =  -8.13077883647105E+01  1.62143973682900E+00
(PID.TID 0000.0001)  ploadbar=  1.01061749616573E+05
 cg2d: Sum(rhs),rhsMax =  -8.15857212461270E+01  1.61535347419536E+00
(PID.TID 0000.0001)  ploadbar=  1.01062659384663E+05
 cg2d: Sum(rhs),rhsMax =  -8.18062210247067E+01  1.61039123783189E+00
(PID.TID 0000.0001)  ploadbar=  1.01063569152753E+05
 cg2d: Sum(rhs),rhsMax =  -8.19785186879195E+01  1.60634703419953E+00
(PID.TID 0000.0001)  ploadbar=  1.01064478920843E+05
 cg2d: Sum(rhs),rhsMax =  -8.21157423751147E+01  1.60294954296087E+00
(PID.TID 0000.0001)  ploadbar=  1.01065388688932E+05
 cg2d: Sum(rhs),rhsMax =  -8.22315284948742E+01  1.59992047434593E+00
(PID.TID 0000.0001)  ploadbar=  1.01066298457022E+05
 cg2d: Sum(rhs),rhsMax =  -8.23421683023416E+01  1.59703878934133E+00
(PID.TID 0000.0001)  ploadbar=  1.01066706312671E+05
 cg2d: Sum(rhs),rhsMax =  -8.24220904512612E+01  1.59479553632659E+00
(PID.TID 0000.0001)  ploadbar=  1.01067114168320E+05
 cg2d: Sum(rhs),rhsMax =  -8.25464178122038E+01  1.59173648272390E+00
(PID.TID 0000.0001)  ploadbar=  1.01067522023968E+05
 cg2d: Sum(rhs),rhsMax =  -8.27277091037506E+01  1.58762691198228E+00
(PID.TID 0000.0001)  ploadbar=  1.01067929879617E+05
 cg2d: Sum(rhs),rhsMax =  -8.29632925435655E+01  1.58252638176235E+00
(PID.TID 0000.0001)  ploadbar=  1.01068337735266E+05
 cg2d: Sum(rhs),rhsMax =  -8.32508103124927E+01  1.57648667910477E+00
(PID.TID 0000.0001)  ploadbar=  1.01068745590915E+05
 cg2d: Sum(rhs),rhsMax =  -8.35239103351093E+01  1.57075896815760E+00
(PID.TID 0000.0001)  ploadbar=  1.01068221942273E+05
 cg2d: Sum(rhs),rhsMax =  -8.37962507455995E+01  1.56507456577756E+00
(PID.TID 0000.0001)  ploadbar=  1.01067698293631E+05
 cg2d: Sum(rhs),rhsMax =  -8.40520337971917E+01  1.55972576626705E+00
(PID.TID 0000.0001)  ploadbar=  1.01067174644989E+05
 cg2d: Sum(rhs),rhsMax =  -8.42796457731357E+01  1.55492228710150E+00
(PID.TID 0000.0001)  ploadbar=  1.01066650996347E+05
 cg2d: Sum(rhs),rhsMax =  -8.44740571952374E+01  1.55074570788811E+00
(PID.TID 0000.0001)  ploadbar=  1.01066127347706E+05
 cg2d: Sum(rhs),rhsMax =  -8.46373772485392E+01  1.54714619185944E+00
(PID.TID 0000.0001)  ploadbar=  1.01065603699064E+05
 cg2d: Sum(rhs),rhsMax =  -8.47605223233956E+01  1.54435337070120E+00
(PID.TID 0000.0001)  ploadbar=  1.01065268419311E+05
 cg2d: Sum(rhs),rhsMax =  -8.48564230516138E+01  1.54211372697273E+00
(PID.TID 0000.0001)  ploadbar=  1.01064933139557E+05
 cg2d: Sum(rhs),rhsMax =  -8.49451665120670E+01  1.54005096458236E+00
(PID.TID 0000.0001)  ploadbar=  1.01064597859804E+05
 cg2d: Sum(rhs),rhsMax =  -8.50392570602194E+01  1.53793335574653E+00
(PID.TID 0000.0001)  ploadbar=  1.01064262580051E+05
 cg2d: Sum(rhs),rhsMax =  -8.51436954031416E+01  1.53566724581390E+00
(PID.TID 0000.0001)  ploadbar=  1.01063927300298E+05
 cg2d: Sum(rhs),rhsMax =  -8.52901108279794E+01  1.53268111657877E+00
(PID.TID 0000.0001)  ploadbar=  1.01063592020545E+05
 cg2d: Sum(rhs),rhsMax =  -8.55296797653918E+01  1.52800497804935E+00
(PID.TID 0000.0001)  ploadbar=  1.01063234565544E+05
 cg2d: Sum(rhs),rhsMax =  -8.58435789400277E+01  1.52199954797116E+00
(PID.TID 0000.0001)  ploadbar=  1.01062877110543E+05
 cg2d: Sum(rhs),rhsMax =  -8.62288326893884E+01  1.51474180003221E+00
(PID.TID 0000.0001)  ploadbar=  1.01062519655542E+05
 cg2d: Sum(rhs),rhsMax =  -8.66807875227960E+01  1.50634187290237E+00
(PID.TID 0000.0001)  ploadbar=  1.01062162200540E+05
 cg2d: Sum(rhs),rhsMax =  -8.71929731126329E+01  1.49694182255979E+00
(PID.TID 0000.0001)  ploadbar=  1.01061804745539E+05
 cg2d: Sum(rhs),rhsMax =  -8.77609372119895E+01  1.48665073308093E+00
(PID.TID 0000.0001)  ploadbar=  1.01061447290538E+05
 cg2d: Sum(rhs),rhsMax =  -8.83832240043339E+01  1.47562547445301E+00
(PID.TID 0000.0001)  ploadbar=  1.01061434724580E+05
 cg2d: Sum(rhs),rhsMax =  -8.90890107595267E+01  1.46341775677739E+00
(PID.TID 0000.0001)  ploadbar=  1.01061422158622E+05
 cg2d: Sum(rhs),rhsMax =  -8.98130198962864E+01  1.45113843261463E+00
(PID.TID 0000.0001)  ploadbar=  1.01061409592664E+05
 cg2d: Sum(rhs),rhsMax =  -9.04828694225424E+01  1.43994141677417E+00
(PID.TID 0000.0001)  ploadbar=  1.01061397026706E+05
 cg2d: Sum(rhs),rhsMax =  -9.12247259199794E+01  1.42779792813792E+00
(PID.TID 0000.0001)  ploadbar=  1.01061384460747E+05
 cg2d: Sum(rhs),rhsMax =  -9.19528554382882E+01  1.41607091259361E+00
(PID.TID 0000.0001)  ploadbar=  1.01061371894789E+05
 cg2d: Sum(rhs),rhsMax =  -9.26954364242650E+01  1.40430464392146E+00
(PID.TID 0000.0001)  ploadbar=  1.01060543662697E+05
 cg2d: Sum(rhs),rhsMax =  -9.34557964479399E+01  1.39245159775260E+00
(PID.TID 0000.0001)  ploadbar=  1.01059715430606E+05
 cg2d: Sum(rhs),rhsMax =  -9.42290133329134E+01  1.38059207529572E+00
(PID.TID 0000.0001)  ploadbar=  1.01058887198514E+05
 cg2d: Sum(rhs),rhsMax =  -9.50128360683815E+01  1.36876404681999E+00
(PID.TID 0000.0001)  ploadbar=  1.01058058966423E+05
 cg2d: Sum(rhs),rhsMax =  -9.58053632659014E+01  1.35699909521383E+00
(PID.TID 0000.0001)  ploadbar=  1.01057230734331E+05
 cg2d: Sum(rhs),rhsMax =  -9.66039489193431E+01  1.34533301880874E+00
(PID.TID 0000.0001)  ploadbar=  1.01056402502239E+05
 cg2d: Sum(rhs),rhsMax =  -9.73321235410875E+01  1.33486085702249E+00
(PID.TID 0000.0001)  ploadbar=  1.01055727605672E+05
 cg2d: Sum(rhs),rhsMax =  -9.80895578070994E+01  1.32417393098924E+00
(PID.TID 0000.0001)  ploadbar=  1.01055052709105E+05
 cg2d: Sum(rhs),rhsMax =  -9.89024366168202E+01  1.31293176376957E+00
(PID.TID 0000.0001)  ploadbar=  1.01054377812538E+05
 cg2d: Sum(rhs),rhsMax =  -9.97890640628829E+01  1.30092294303755E+00
(PID.TID 0000.0001)  ploadbar=  1.01053702915971E+05
 cg2d: Sum(rhs),rhsMax =  -1.01045202074926E+02  1.28442013205674E+00
(PID.TID 0000.0001)  ploadbar=  1.01053028019404E+05
 cg2d: Sum(rhs),rhsMax =  -1.02333443823290E+02  1.26793500280178E+00
(PID.TID 0000.0001)  ploadbar=  1.01052353122837E+05
 cg2d: Sum(rhs),rhsMax =  -1.03570963456186E+02  1.25245142313057E+00
(PID.TID 0000.0001)  ploadbar=  1.01051792559225E+05
 cg2d: Sum(rhs),rhsMax =  -1.04788553465361E+02  1.23754168675503E+00
(PID.TID 0000.0001)  ploadbar=  1.01051231995613E+05
 cg2d: Sum(rhs),rhsMax =  -1.05979534411024E+02  1.22325139517044E+00
(PID.TID 0000.0001)  ploadbar=  1.01050671432002E+05
 cg2d: Sum(rhs),rhsMax =  -1.07159325984384E+02  1.20937065031812E+00
(PID.TID 0000.0001)  ploadbar=  1.01050110868390E+05
 cg2d: Sum(rhs),rhsMax =  -1.08302813066295E+02  1.19615472435360E+00
(PID.TID 0000.0001)  ploadbar=  1.01049550304778E+05
 cg2d: Sum(rhs),rhsMax =  -1.09499757853783E+02  1.18259734132216E+00
(PID.TID 0000.0001)  ploadbar=  1.01048989741166E+05
 cg2d: Sum(rhs),rhsMax =  -1.10728321059226E+02  1.16905153341077E+00
(PID.TID 0000.0001)  ploadbar=  1.01049103599286E+05
 cg2d: Sum(rhs),rhsMax =  -1.11897300449165E+02  1.15646649887192E+00
(PID.TID 0000.0001)  ploadbar=  1.01049217457406E+05
 cg2d: Sum(rhs),rhsMax =  -1.11556886666126E+02  1.15966674327122E+00
(PID.TID 0000.0001)  ploadbar=  1.01049331315526E+05
 cg2d: Sum(rhs),rhsMax =  -1.11222904873791E+02  1.16285665797637E+00
(PID.TID 0000.0001)  ploadbar=  1.01049445173646E+05
 cg2d: Sum(rhs),rhsMax =  -1.10996446858763E+02  1.16496581541054E+00
(PID.TID 0000.0001)  ploadbar=  1.01049559031767E+05
 cg2d: Sum(rhs),rhsMax =  -1.10873709601641E+02  1.16601626414641E+00
(PID.TID 0000.0001)  ploadbar=  1.01049672889887E+05
 cg2d: Sum(rhs),rhsMax =  -1.10882972566915E+02  1.16567146313130E+00
(PID.TID 0000.0001)  ploadbar=  1.01049323099528E+05
 cg2d: Sum(rhs),rhsMax =  -1.10864925374944E+02  1.16560301859678E+00
(PID.TID 0000.0001)  ploadbar=  1.01048973309170E+05
 cg2d: Sum(rhs),rhsMax =  -1.10865505366600E+02  1.16532673264229E+00
(PID.TID 0000.0001)  ploadbar=  1.01048623518812E+05
 cg2d: Sum(rhs),rhsMax =  -1.10922449316082E+02  1.16444760759299E+00
(PID.TID 0000.0001)  ploadbar=  1.01048273728454E+05
 cg2d: Sum(rhs),rhsMax =  -1.11031555730256E+02  1.16301416352853E+00
(PID.TID 0000.0001)  ploadbar=  1.01047923938096E+05
 cg2d: Sum(rhs),rhsMax =  -1.11204402797806E+02  1.16090803721415E+00
(PID.TID 0000.0001)  ploadbar=  1.01047574147737E+05
 cg2d: Sum(rhs),rhsMax =  -1.11488156127902E+02  1.15771694128434E+00
(PID.TID 0000.0001)  ploadbar=  1.01046111787836E+05
 cg2d: Sum(rhs),rhsMax =  -1.11776239897727E+02  1.15454578519519E+00
(PID.TID 0000.0001)  ploadbar=  1.01044649427934E+05
 cg2d: Sum(rhs),rhsMax =  -1.12083981413355E+02  1.15123213227026E+00
(PID.TID 0000.0001)  ploadbar=  1.01043187068032E+05
 cg2d: Sum(rhs),rhsMax =  -1.12417424795654E+02  1.14771496159581E+00
(PID.TID 0000.0001)  ploadbar=  1.01041724708130E+05
 cg2d: Sum(rhs),rhsMax =  -1.12779813582835E+02  1.14396476662959E+00
(PID.TID 0000.0001)  ploadbar=  1.01040262348228E+05
 cg2d: Sum(rhs),rhsMax =  -1.13178011923660E+02  1.13991631086130E+00
(PID.TID 0000.0001)  ploadbar=  1.01038799988327E+05
 cg2d: Sum(rhs),rhsMax =  -1.13629464753165E+02  1.13532337352736E+00
(PID.TID 0000.0001)  ploadbar=  1.01037923058345E+05
 cg2d: Sum(rhs),rhsMax =  -1.13495300825901E+02  1.13655500347121E+00
(PID.TID 0000.0001)  ploadbar=  1.01037046128363E+05
 cg2d: Sum(rhs),rhsMax =  -1.14615722011371E+02  1.12528596204152E+00
(PID.TID 0000.0001)  ploadbar=  1.01036169198381E+05
 cg2d: Sum(rhs),rhsMax =  -1.10890461907652E+02  1.16286983134840E+00
(PID.TID 0000.0001)  ploadbar=  1.01035292268399E+05
 cg2d: Sum(rhs),rhsMax =  -1.06169001280766E+02  1.21429542269910E+00
(PID.TID 0000.0001)  ploadbar=  1.01034415338417E+05
 cg2d: Sum(rhs),rhsMax =  -1.01844032988285E+02  1.26549502557904E+00
(PID.TID 0000.0001)  ploadbar=  1.01033538408435E+05
 cg2d: Sum(rhs),rhsMax =  -9.83490023922336E+01  1.31009992814150E+00
(PID.TID 0000.0001)  ploadbar=  1.01033319028179E+05
 cg2d: Sum(rhs),rhsMax =  -9.58063906593435E+01  1.34450406011591E+00
(PID.TID 0000.0001)  ploadbar=  1.01033099647924E+05
 cg2d: Sum(rhs),rhsMax =  -9.59922012808782E+01  1.34154313157306E+00
(PID.TID 0000.0001)  ploadbar=  1.01032880267668E+05
 cg2d: Sum(rhs),rhsMax =  -9.62510111268264E+01  1.33757715554301E+00
(PID.TID 0000.0001)  ploadbar=  1.01032660887413E+05
 cg2d: Sum(rhs),rhsMax =  -9.64383607624703E+01  1.33461211650242E+00
(PID.TID 0000.0001)  ploadbar=  1.01032441507157E+05
 cg2d: Sum(rhs),rhsMax =  -9.64331012069034E+01  1.33430379557429E+00
(PID.TID 0000.0001)  ploadbar=  1.01032222126901E+05
 cg2d: Sum(rhs),rhsMax =  -9.64750793389246E+01  1.33332387371334E+00
(PID.TID 0000.0001)  ploadbar=  1.01031015167768E+05
 cg2d: Sum(rhs),rhsMax =  -9.66654260976349E+01  1.33027811928056E+00
(PID.TID 0000.0001)  ploadbar=  1.01029808208634E+05
 cg2d: Sum(rhs),rhsMax =  -9.70794073287506E+01  1.32416707888108E+00
(PID.TID 0000.0001)  ploadbar=  1.01028601249500E+05
 cg2d: Sum(rhs),rhsMax =  -9.41113178163658E+01  1.36545654909491E+00
(PID.TID 0000.0001)  ploadbar=  1.01027394290366E+05
 cg2d: Sum(rhs),rhsMax =  -9.13246009267903E+01  1.40661643382845E+00
(PID.TID 0000.0001)  ploadbar=  1.01026187331232E+05
 cg2d: Sum(rhs),rhsMax =  -8.87594389839472E+01  1.44672947675092E+00
(PID.TID 0000.0001)  ploadbar=  1.01024980372098E+05
 cg2d: Sum(rhs),rhsMax =  -8.63765386143558E+01  1.48613909015425E+00
(PID.TID 0000.0001)  ploadbar=  1.01024086577425E+05
 cg2d: Sum(rhs),rhsMax =  -8.41924228519654E+01  1.52421272019531E+00
(PID.TID 0000.0001)  ploadbar=  1.01023192782753E+05
 cg2d: Sum(rhs),rhsMax =  -8.22374018405444E+01  1.55998600135633E+00
(PID.TID 0000.0001)  ploadbar=  1.01022298988080E+05
 cg2d: Sum(rhs),rhsMax =  -8.05354432863149E+01  1.59251064571185E+00
(PID.TID 0000.0001)  ploadbar=  1.01021405193407E+05
 cg2d: Sum(rhs),rhsMax =  -7.93125968067561E+01  1.61664288613188E+00
(PID.TID 0000.0001)  ploadbar=  1.01020511398735E+05
 cg2d: Sum(rhs),rhsMax =  -7.86646535700536E+01  1.62956210065891E+00
(PID.TID 0000.0001)  ploadbar=  1.01019617604062E+05
 cg2d: Sum(rhs),rhsMax =  -7.81574429656700E+01  1.63971359115011E+00
(PID.TID 0000.0001)  ploadbar=  1.01018880016954E+05
 cg2d: Sum(rhs),rhsMax =  -7.76583256497486E+01  1.64979354498870E+00
(PID.TID 0000.0001)  ploadbar=  1.01018142429847E+05
 cg2d: Sum(rhs),rhsMax =  -7.71590146589774E+01  1.65996928232907E+00
(PID.TID 0000.0001)  ploadbar=  1.01017404842739E+05
 cg2d: Sum(rhs),rhsMax =  -7.67122397413389E+01  1.66909020911180E+00
(PID.TID 0000.0001)  ploadbar=  1.01016667255632E+05
 cg2d: Sum(rhs),rhsMax =  -7.65947210341127E+01  1.67105435811318E+00
(PID.TID 0000.0001)  ploadbar=  1.01015929668524E+05
 cg2d: Sum(rhs),rhsMax =  -7.66998392432387E+01  1.66811130931474E+00
(PID.TID 0000.0001)  ploadbar=  1.01015192081417E+05
 cg2d: Sum(rhs),rhsMax =  -7.69372896692690E+01  1.66235911639824E+00
(PID.TID 0000.0001)  ploadbar=  1.01014828593766E+05
 cg2d: Sum(rhs),rhsMax =  -7.73711435157387E+01  1.65248111233417E+00
(PID.TID 0000.0001)  ploadbar=  1.01014465106115E+05
 cg2d: Sum(rhs),rhsMax =  -7.81569760370876E+01  1.63535206748793E+00
(PID.TID 0000.0001)  ploadbar=  1.01014101618464E+05
 cg2d: Sum(rhs),rhsMax =  -7.88288209825035E+01  1.62093323885326E+00
(PID.TID 0000.0001)  ploadbar=  1.01013738130813E+05
 cg2d: Sum(rhs),rhsMax =  -7.94800556336090E+01  1.60719513877050E+00
(PID.TID 0000.0001)  ploadbar=  1.01013374643161E+05
 cg2d: Sum(rhs),rhsMax =  -8.01554601702894E+01  1.59320996594531E+00
(PID.TID 0000.0001)  ploadbar=  1.01013011155510E+05
 cg2d: Sum(rhs),rhsMax =  -7.99459848151468E+01  1.59696712870714E+00
(PID.TID 0000.0001)  ploadbar=  1.01012523228494E+05
 cg2d: Sum(rhs),rhsMax =  -8.04291000207804E+01  1.58698439707145E+00
(PID.TID 0000.0001)  ploadbar=  1.01012035301478E+05
 cg2d: Sum(rhs),rhsMax =  -8.08777734424517E+01  1.57781680998757E+00
(PID.TID 0000.0001)  ploadbar=  1.01011547374462E+05
 cg2d: Sum(rhs),rhsMax =  -8.12772846411319E+01  1.56972109311586E+00
(PID.TID 0000.0001)  ploadbar=  1.01011059447446E+05
 cg2d: Sum(rhs),rhsMax =  -8.16175668733970E+01  1.56285703752177E+00
(PID.TID 0000.0001)  ploadbar=  1.01010571520430E+05
 cg2d: Sum(rhs),rhsMax =  -8.18972442046566E+01  1.55721900226662E+00
(PID.TID 0000.0001)  ploadbar=  1.01010083593413E+05
 cg2d: Sum(rhs),rhsMax =  -8.21204270493433E+01  1.55270944760270E+00
(PID.TID 0000.0001)  ploadbar=  1.01009811659654E+05
 cg2d: Sum(rhs),rhsMax =  -8.22850949287813E+01  1.54933298636113E+00
(PID.TID 0000.0001)  ploadbar=  1.01009539725895E+05
 cg2d: Sum(rhs),rhsMax =  -8.24390306138888E+01  1.54617179705419E+00
(PID.TID 0000.0001)  ploadbar=  1.01009267792136E+05
 cg2d: Sum(rhs),rhsMax =  -8.26410885060324E+01  1.54212302581807E+00
(PID.TID 0000.0001)  ploadbar=  1.01008995858376E+05
 cg2d: Sum(rhs),rhsMax =  -8.29333750720002E+01  1.53641638979153E+00
(PID.TID 0000.0001)  ploadbar=  1.01008723924617E+05
 cg2d: Sum(rhs),rhsMax =  -8.32724733818503E+01  1.52988081060258E+00
(PID.TID 0000.0001)  ploadbar=  1.01008451990858E+05
 cg2d: Sum(rhs),rhsMax =  -8.34605782290763E+01  1.52612447822481E+00
(PID.TID 0000.0001)  ploadbar=  1.01008382831036E+05
 cg2d: Sum(rhs),rhsMax =  -8.34947111499802E+01  1.52515487180442E+00
(PID.TID 0000.0001)  ploadbar=  1.01008313671213E+05
 cg2d: Sum(rhs),rhsMax =  -8.33938961376055E+01  1.52660882152444E+00
(PID.TID 0000.0001)  ploadbar=  1.01008244511391E+05
 cg2d: Sum(rhs),rhsMax =  -8.32790194321422E+01  1.52827639798209E+00
(PID.TID 0000.0001)  ploadbar=  1.01008175351569E+05
 cg2d: Sum(rhs),rhsMax =  -8.32041727957490E+01  1.52916096691680E+00
(PID.TID 0000.0001)  ploadbar=  1.01008106191747E+05
 cg2d: Sum(rhs),rhsMax =  -8.32116963167859E+01  1.52847699488104E+00
(PID.TID 0000.0001)  ploadbar=  1.01008037031924E+05
 cg2d: Sum(rhs),rhsMax =  -8.32844327985381E+01  1.52661827785262E+00
(PID.TID 0000.0001)  ploadbar=  1.01008266635890E+05
 cg2d: Sum(rhs),rhsMax =  -8.34276902814343E+01  1.52349192917579E+00
(PID.TID 0000.0001)  ploadbar=  1.01008496239856E+05
 cg2d: Sum(rhs),rhsMax =  -8.36194006298226E+01  1.51951139302091E+00
(PID.TID 0000.0001)  ploadbar=  1.01008725843821E+05
 cg2d: Sum(rhs),rhsMax =  -8.38370936048351E+01  1.51508649810857E+00
(PID.TID 0000.0001)  ploadbar=  1.01008955447787E+05
 cg2d: Sum(rhs),rhsMax =  -8.40928357251589E+01  1.50999661732316E+00
(PID.TID 0000.0001)  ploadbar=  1.01009185051752E+05
 cg2d: Sum(rhs),rhsMax =  -8.42938323681368E+01  1.50589661920874E+00
(PID.TID 0000.0001)  ploadbar=  1.01009414655718E+05
 cg2d: Sum(rhs),rhsMax =  -8.43911989607979E+01  1.50364526997382E+00
(PID.TID 0000.0001)  ploadbar=  1.01010056195046E+05
 cg2d: Sum(rhs),rhsMax =  -8.43794440616514E+01  1.50331962273212E+00
(PID.TID 0000.0001)  ploadbar=  1.01010697734373E+05
 cg2d: Sum(rhs),rhsMax =  -8.42922092808572E+01  1.50431412145956E+00
(PID.TID 0000.0001)  ploadbar=  1.01011339273701E+05
 cg2d: Sum(rhs),rhsMax =  -8.41842286187663E+01  1.50565147069840E+00
(PID.TID 0000.0001)  ploadbar=  1.01011980813028E+05
 cg2d: Sum(rhs),rhsMax =  -8.41143536795998E+01  1.50627841990195E+00
(PID.TID 0000.0001)  ploadbar=  1.01012622352356E+05
 cg2d: Sum(rhs),rhsMax =  -8.41257535692614E+01  1.50541946141105E+00
(PID.TID 0000.0001)  ploadbar=  1.01013263891684E+05
 cg2d: Sum(rhs),rhsMax =  -8.42208704190839E+01  1.50310426893225E+00
(PID.TID 0000.0001)  ploadbar=  1.01012232561383E+05
 cg2d: Sum(rhs),rhsMax =  -8.44165066730937E+01  1.49903591695490E+00
(PID.TID 0000.0001)  ploadbar=  1.01011201231082E+05
 cg2d: Sum(rhs),rhsMax =  -8.47095959425558E+01  1.49329077345683E+00
(PID.TID 0000.0001)  ploadbar=  1.01010169900781E+05
 cg2d: Sum(rhs),rhsMax =  -8.51406552629034E+01  1.48519171293717E+00
(PID.TID 0000.0001)  ploadbar=  1.01009138570480E+05
 cg2d: Sum(rhs),rhsMax =  -8.57320083095074E+01  1.47442260286803E+00
(PID.TID 0000.0001)  ploadbar=  1.01008107240180E+05
 cg2d: Sum(rhs),rhsMax =  -8.64432575691921E+01  1.46177373077281E+00
(PID.TID 0000.0001)  ploadbar=  1.01007075909879E+05
 cg2d: Sum(rhs),rhsMax =  -8.70332796802523E+01  1.45131121712063E+00
(PID.TID 0000.0001)  ploadbar=  1.01007186082476E+05
 cg2d: Sum(rhs),rhsMax =  -8.74651077791993E+01  1.44355343688494E+00
(PID.TID 0000.0001)  ploadbar=  1.01007296255073E+05
 cg2d: Sum(rhs),rhsMax =  -8.77255158534021E+01  1.43863343448846E+00
(PID.TID 0000.0001)  ploadbar=  1.01007406427669E+05
 cg2d: Sum(rhs),rhsMax =  -8.78679643587666E+01  1.43561880843115E+00
(PID.TID 0000.0001)  ploadbar=  1.01007516600266E+05
 cg2d: Sum(rhs),rhsMax =  -8.79638542055670E+01  1.43332060183676E+00
(PID.TID 0000.0001)  ploadbar=  1.01007626772863E+05
 cg2d: Sum(rhs),rhsMax =  -8.77357691501579E+01  1.43625686444941E+00
(PID.TID 0000.0001)  ploadbar=  1.01007736945460E+05
 cg2d: Sum(rhs),rhsMax =  -8.72799394986135E+01  1.44300691913931E+00
(PID.TID 0000.0001)  ploadbar=  1.01007281256670E+05
 cg2d: Sum(rhs),rhsMax =  -8.69017051943797E+01  1.44857318662702E+00
(PID.TID 0000.0001)  ploadbar=  1.01006825567880E+05
 cg2d: Sum(rhs),rhsMax =  -8.65980043050390E+01  1.45297283064768E+00
(PID.TID 0000.0001)  ploadbar=  1.01006369879090E+05
 cg2d: Sum(rhs),rhsMax =  -8.63579785141405E+01  1.45636020239759E+00
(PID.TID 0000.0001)  ploadbar=  1.01005914190300E+05
 cg2d: Sum(rhs),rhsMax =  -8.61899419241066E+01  1.45857244474167E+00
(PID.TID 0000.0001)  ploadbar=  1.01005458501511E+05
 cg2d: Sum(rhs),rhsMax =  -8.61581265166792E+01  1.45850015341840E+00
(PID.TID 0000.0001)  ploadbar=  1.01005002812721E+05
 cg2d: Sum(rhs),rhsMax =  -8.61272695814114E+01  1.45841792671409E+00
(PID.TID 0000.0001)  ploadbar=  1.01005219681516E+05
 cg2d: Sum(rhs),rhsMax =  -8.61479961227766E+01  1.45745919610235E+00
(PID.TID 0000.0001)  ploadbar=  1.01005436550310E+05
 cg2d: Sum(rhs),rhsMax =  -8.62103579671896E+01  1.45579060882585E+00
(PID.TID 0000.0001)  ploadbar=  1.01005653419105E+05
 cg2d: Sum(rhs),rhsMax =  -8.63098785017112E+01  1.45348784029172E+00
(PID.TID 0000.0001)  ploadbar=  1.01005870287900E+05
 cg2d: Sum(rhs),rhsMax =  -8.38971510880530E+01  1.49463355428118E+00
(PID.TID 0000.0001)  ploadbar=  1.01006087156694E+05
 cg2d: Sum(rhs),rhsMax =  -8.18732736639393E+01  1.53089719427073E+00
(PID.TID 0000.0001)  ploadbar=  1.01006304025489E+05
 cg2d: Sum(rhs),rhsMax =  -8.01650774748197E+01  1.56287096013443E+00
(PID.TID 0000.0001)  ploadbar=  1.01006653888064E+05
 cg2d: Sum(rhs),rhsMax =  -7.87692695692104E+01  1.58994978906085E+00
(PID.TID 0000.0001)  ploadbar=  1.01007003750640E+05
 cg2d: Sum(rhs),rhsMax =  -7.76154170238640E+01  1.61300068543145E+00
(PID.TID 0000.0001)  ploadbar=  1.01007353613215E+05
 cg2d: Sum(rhs),rhsMax =  -7.66907339573168E+01  1.63189252548157E+00
(PID.TID 0000.0001)  ploadbar=  1.01007703475790E+05
 cg2d: Sum(rhs),rhsMax =  -7.59530881270531E+01  1.64721052916203E+00
(PID.TID 0000.0001)  ploadbar=  1.01008053338366E+05
 cg2d: Sum(rhs),rhsMax =  -7.53635881100373E+01  1.65959213240383E+00
(PID.TID 0000.0001)  ploadbar=  1.01008403200941E+05
 cg2d: Sum(rhs),rhsMax =  -7.48417390234015E+01  1.67063138152725E+00
(PID.TID 0000.0001)  ploadbar=  1.01008588573197E+05
 cg2d: Sum(rhs),rhsMax =  -7.43791453783099E+01  1.68045115111626E+00
(PID.TID 0000.0001)  ploadbar=  1.01008773945453E+05
 cg2d: Sum(rhs),rhsMax =  -7.39754824726141E+01  1.68900826574605E+00
(PID.TID 0000.0001)  ploadbar=  1.01008959317708E+05
 cg2d: Sum(rhs),rhsMax =  -7.36367666958549E+01  1.69611970206689E+00
(PID.TID 0000.0001)  ploadbar=  1.01009144689964E+05
 cg2d: Sum(rhs),rhsMax =  -7.34300640686400E+01  1.70018916896037E+00
(PID.TID 0000.0001)  ploadbar=  1.01009330062220E+05
 cg2d: Sum(rhs),rhsMax =  -7.34419707419045E+01  1.69915967047098E+00
(PID.TID 0000.0001)  ploadbar=  1.01009515434476E+05
 cg2d: Sum(rhs),rhsMax =  -7.35765065292682E+01  1.69533764819408E+00
(PID.TID 0000.0001)  ploadbar=  1.01009338117609E+05
 cg2d: Sum(rhs),rhsMax =  -7.38244394752691E+01  1.68896125608827E+00
(PID.TID 0000.0001)  ploadbar=  1.01009160800742E+05
 cg2d: Sum(rhs),rhsMax =  -7.41134801060279E+01  1.68171908579054E+00
(PID.TID 0000.0001)  ploadbar=  1.01008983483875E+05
 cg2d: Sum(rhs),rhsMax =  -7.43486600259322E+01  1.67576315697457E+00
(PID.TID 0000.0001)  ploadbar=  1.01008806167008E+05
 cg2d: Sum(rhs),rhsMax =  -7.45784743051558E+01  1.66997098782172E+00
(PID.TID 0000.0001)  ploadbar=  1.01008628850141E+05
 cg2d: Sum(rhs),rhsMax =  -7.47747501232029E+01  1.66495840288089E+00
(PID.TID 0000.0001)  ploadbar=  1.01008451533274E+05
 cg2d: Sum(rhs),rhsMax =  -7.49395167923535E+01  1.66065729908279E+00
(PID.TID 0000.0001)  ploadbar=  1.01008344920993E+05
 cg2d: Sum(rhs),rhsMax =  -7.50475082151191E+01  1.65761212418940E+00
(PID.TID 0000.0001)  ploadbar=  1.01008238308713E+05
 cg2d: Sum(rhs),rhsMax =  -7.50586212102622E+01  1.65669295700601E+00
(PID.TID 0000.0001)  ploadbar=  1.01008131696432E+05
 cg2d: Sum(rhs),rhsMax =  -7.48415749150700E+01  1.66080247285741E+00
(PID.TID 0000.0001)  ploadbar=  1.01008025084151E+05
 cg2d: Sum(rhs),rhsMax =  -7.47020194235744E+01  1.66319162052988E+00
(PID.TID 0000.0001)  ploadbar=  1.01007918471871E+05
 cg2d: Sum(rhs),rhsMax =  -7.46615444861453E+01  1.66336714159131E+00
(PID.TID 0000.0001)  ploadbar=  1.01007811859590E+05
 cg2d: Sum(rhs),rhsMax =  -7.46830584732083E+01  1.66222913711048E+00
(PID.TID 0000.0001)  ploadbar=  1.01006176724662E+05
 cg2d: Sum(rhs),rhsMax =  -7.47605745537796E+01  1.65989807545839E+00
(PID.TID 0000.0001)  ploadbar=  1.01004541589734E+05
 cg2d: Sum(rhs),rhsMax =  -7.48618690394873E+01  1.65708686481865E+00
(PID.TID 0000.0001)  ploadbar=  1.01002906454807E+05
 cg2d: Sum(rhs),rhsMax =  -7.49822873839319E+01  1.65389995485823E+00
(PID.TID 0000.0001)  ploadbar=  1.01001271319879E+05
 cg2d: Sum(rhs),rhsMax =  -7.51172713224296E+01  1.65043931812971E+00
(PID.TID 0000.0001)  ploadbar=  1.00999636184951E+05
 cg2d: Sum(rhs),rhsMax =  -7.52205005439570E+01  1.64772011146161E+00
(PID.TID 0000.0001)  ploadbar=  1.00998001050023E+05
 cg2d: Sum(rhs),rhsMax =  -7.52878303936430E+01  1.64576465372405E+00
(PID.TID 0000.0001)  ploadbar=  1.00997569634129E+05
 cg2d: Sum(rhs),rhsMax =  -7.43693422635719E+01  1.66556682278121E+00
(PID.TID 0000.0001)  ploadbar=  1.00997138218234E+05
 cg2d: Sum(rhs),rhsMax =  -7.34556273958970E+01  1.68571530609475E+00
(PID.TID 0000.0001)  ploadbar=  1.00996706802340E+05
 cg2d: Sum(rhs),rhsMax =  -7.25867329907345E+01  1.70527255377872E+00
(PID.TID 0000.0001)  ploadbar=  1.00996275386445E+05
 cg2d: Sum(rhs),rhsMax =  -7.17554132206776E+01  1.72435313596954E+00
(PID.TID 0000.0001)  ploadbar=  1.00995843970551E+05
 cg2d: Sum(rhs),rhsMax =  -7.09664871302194E+01  1.74278771868600E+00
(PID.TID 0000.0001)  ploadbar=  1.00995412554656E+05
 cg2d: Sum(rhs),rhsMax =  -7.02166270256166E+01  1.76069212194436E+00
(PID.TID 0000.0001)  ploadbar=  1.00995176021064E+05
 cg2d: Sum(rhs),rhsMax =  -7.07984660357636E+01  1.74554719223251E+00
(PID.TID 0000.0001)  ploadbar=  1.00994939487472E+05
 cg2d: Sum(rhs),rhsMax =  -7.11947734881277E+01  1.73518307736849E+00
(PID.TID 0000.0001)  ploadbar=  1.00994702953881E+05
 cg2d: Sum(rhs),rhsMax =  -7.15218339529406E+01  1.72662322756233E+00
(PID.TID 0000.0001)  ploadbar=  1.00994466420289E+05
 cg2d: Sum(rhs),rhsMax =  -7.18441116733249E+01  1.71826858444205E+00
(PID.TID 0000.0001)  ploadbar=  1.00994229886697E+05
 cg2d: Sum(rhs),rhsMax =  -7.21600552744691E+01  1.71013982103453E+00
(PID.TID 0000.0001)  ploadbar=  1.00993993353105E+05
 cg2d: Sum(rhs),rhsMax =  -7.24582839676220E+01  1.70249857873513E+00
(PID.TID 0000.0001)  ploadbar=  1.00993566290419E+05
 cg2d: Sum(rhs),rhsMax =  -7.27485736817653E+01  1.69510168738015E+00
(PID.TID 0000.0001)  ploadbar=  1.00993139227732E+05
 cg2d: Sum(rhs),rhsMax =  -7.30274642758529E+01  1.68801925391044E+00
(PID.TID 0000.0001)  ploadbar=  1.00992712165046E+05
 cg2d: Sum(rhs),rhsMax =  -7.30116632518074E+01  1.68776503333749E+00
(PID.TID 0000.0001)  ploadbar=  1.00992285102359E+05
 cg2d: Sum(rhs),rhsMax =  -7.28785244141633E+01  1.69021655644086E+00
(PID.TID 0000.0001)  ploadbar=  1.00991858039673E+05
 cg2d: Sum(rhs),rhsMax =  -7.27878532134462E+01  1.69167833237967E+00
(PID.TID 0000.0001)  ploadbar=  1.00991430976987E+05
 cg2d: Sum(rhs),rhsMax =  -7.27438992308232E+01  1.69208441282830E+00
(PID.TID 0000.0001)  ploadbar=  1.00991302255753E+05
 cg2d: Sum(rhs),rhsMax =  -7.27591183519449E+01  1.69112094527917E+00
(PID.TID 0000.0001)  ploadbar=  1.00991173534520E+05
 cg2d: Sum(rhs),rhsMax =  -7.28335989472908E+01  1.68878118044273E+00
(PID.TID 0000.0001)  ploadbar=  1.00991044813287E+05
 cg2d: Sum(rhs),rhsMax =  -7.29622138239985E+01  1.68518981355288E+00
(PID.TID 0000.0001)  ploadbar=  1.00990916092054E+05
 cg2d: Sum(rhs),rhsMax =  -7.31366461128912E+01  1.68055158639722E+00
(PID.TID 0000.0001)  ploadbar=  1.00990787370821E+05
 cg2d: Sum(rhs),rhsMax =  -7.34123056001028E+01  1.67361619212626E+00
(PID.TID 0000.0001)  ploadbar=  1.00990658649588E+05
 cg2d: Sum(rhs),rhsMax =  -7.35872072220074E+01  1.66898717432741E+00
(PID.TID 0000.0001)  ploadbar=  1.00991150435881E+05
 cg2d: Sum(rhs),rhsMax =  -7.34096120552157E+01  1.67233942261739E+00
(PID.TID 0000.0001)  ploadbar=  1.00991642222175E+05
 cg2d: Sum(rhs),rhsMax =  -7.32367117295930E+01  1.67556158360202E+00
(PID.TID 0000.0001)  ploadbar=  1.00992134008468E+05
 cg2d: Sum(rhs),rhsMax =  -7.30926460135930E+01  1.67809267042715E+00
(PID.TID 0000.0001)  ploadbar=  1.00992625794762E+05
 cg2d: Sum(rhs),rhsMax =  -7.29513719934651E+01  1.68052102287289E+00
(PID.TID 0000.0001)  ploadbar=  1.00993117581055E+05
 cg2d: Sum(rhs),rhsMax =  -7.28115976434035E+01  1.68287172807001E+00
(PID.TID 0000.0001)  ploadbar=  1.00993609367349E+05
 cg2d: Sum(rhs),rhsMax =  -7.26733095935059E+01  1.68524725458955E+00
(PID.TID 0000.0001)  ploadbar=  1.00994272671245E+05
 cg2d: Sum(rhs),rhsMax =  -7.25046856201505E+01  1.68838115522618E+00
(PID.TID 0000.0001)  ploadbar=  1.00994935975142E+05
 cg2d: Sum(rhs),rhsMax =  -7.23119031461696E+01  1.69213866337285E+00
(PID.TID 0000.0001)  ploadbar=  1.00995599279039E+05
 cg2d: Sum(rhs),rhsMax =  -7.21367462142214E+01  1.69554349740169E+00
(PID.TID 0000.0001)  ploadbar=  1.00996262582935E+05
 cg2d: Sum(rhs),rhsMax =  -7.20252931860012E+01  1.69749339743220E+00
(PID.TID 0000.0001)  ploadbar=  1.00996925886832E+05
 cg2d: Sum(rhs),rhsMax =  -7.19992520834758E+01  1.69745495122662E+00
(PID.TID 0000.0001)  ploadbar=  1.00997589190729E+05
 cg2d: Sum(rhs),rhsMax =  -7.19684863367626E+01  1.69752212276388E+00
(PID.TID 0000.0001)  ploadbar=  1.00999434833049E+05
 cg2d: Sum(rhs),rhsMax =  -7.19602327760545E+01  1.69704710144264E+00
(PID.TID 0000.0001)  ploadbar=  1.01001280475370E+05
 cg2d: Sum(rhs),rhsMax =  -7.19784761622496E+01  1.69592902141584E+00
(PID.TID 0000.0001)  ploadbar=  1.01003126117691E+05
 cg2d: Sum(rhs),rhsMax =  -7.20203168457109E+01  1.69423438284367E+00
(PID.TID 0000.0001)  ploadbar=  1.01004971760011E+05
 cg2d: Sum(rhs),rhsMax =  -7.20880489185600E+01  1.69191151851952E+00
(PID.TID 0000.0001)  ploadbar=  1.01006817402332E+05
 cg2d: Sum(rhs),rhsMax =  -7.21833161841418E+01  1.68892861100293E+00
(PID.TID 0000.0001)  ploadbar=  1.01008663044653E+05
 cg2d: Sum(rhs),rhsMax =  -7.23159732677959E+01  1.68514040354816E+00
(PID.TID 0000.0001)  ploadbar=  1.01009516014276E+05
 cg2d: Sum(rhs),rhsMax =  -7.24553231966233E+01  1.68125187495683E+00
(PID.TID 0000.0001)  ploadbar=  1.01010368983900E+05
 cg2d: Sum(rhs),rhsMax =  -7.25909433985623E+01  1.67750306690379E+00
(PID.TID 0000.0001)  ploadbar=  1.01011221953524E+05
 cg2d: Sum(rhs),rhsMax =  -7.27162056661173E+01  1.67404354455598E+00
(PID.TID 0000.0001)  ploadbar=  1.01012074923147E+05
 cg2d: Sum(rhs),rhsMax =  -7.28604907358118E+01  1.67019700248364E+00
(PID.TID 0000.0001)  ploadbar=  1.01012927892771E+05
 cg2d: Sum(rhs),rhsMax =  -7.30281111319759E+01  1.66586435151850E+00
(PID.TID 0000.0001)  ploadbar=  1.01013780862395E+05
 cg2d: Sum(rhs),rhsMax =  -7.31552526993058E+01  1.66244096001596E+00
(PID.TID 0000.0001)  ploadbar=  1.01012978704038E+05
 cg2d: Sum(rhs),rhsMax =  -7.32645507450205E+01  1.65940137246754E+00
(PID.TID 0000.0001)  ploadbar=  1.01012176545682E+05
 cg2d: Sum(rhs),rhsMax =  -7.33642497592582E+01  1.65655178159332E+00
(PID.TID 0000.0001)  ploadbar=  1.01011374387326E+05
 cg2d: Sum(rhs),rhsMax =  -7.34725009326869E+01  1.65347821406987E+00
(PID.TID 0000.0001)  ploadbar=  1.01010572228969E+05
 cg2d: Sum(rhs),rhsMax =  -7.36021160314589E+01  1.64989125034935E+00
(PID.TID 0000.0001)  ploadbar=  1.01009770070613E+05
 cg2d: Sum(rhs),rhsMax =  -7.37563593662400E+01  1.64571996282567E+00
(PID.TID 0000.0001)  ploadbar=  1.01008967912257E+05
 cg2d: Sum(rhs),rhsMax =  -7.38915361849760E+01  1.64202815399847E+00
(PID.TID 0000.0001)  ploadbar=  1.01007902221550E+05
 cg2d: Sum(rhs),rhsMax =  -7.39835918928753E+01  1.63933964419299E+00
(PID.TID 0000.0001)  ploadbar=  1.01006836530843E+05
 cg2d: Sum(rhs),rhsMax =  -7.40167850202412E+01  1.63798882265092E+00
(PID.TID 0000.0001)  ploadbar=  1.01005770840136E+05
 cg2d: Sum(rhs),rhsMax =  -7.40252556988750E+01  1.63721106047680E+00
(PID.TID 0000.0001)  ploadbar=  1.01004705149429E+05
 cg2d: Sum(rhs),rhsMax =  -7.40136615063789E+01  1.63689759875499E+00
(PID.TID 0000.0001)  ploadbar=  1.01003639458723E+05
 cg2d: Sum(rhs),rhsMax =  -7.39996531434102E+01  1.63665496406896E+00
(PID.TID 0000.0001)  ploadbar=  1.01002573768016E+05
 cg2d: Sum(rhs),rhsMax =  -7.39605432066926E+01  1.63695331894908E+00
(PID.TID 0000.0001)  ploadbar=  1.01001160029187E+05
 cg2d: Sum(rhs),rhsMax =  -7.38923219061660E+01  1.63787580773134E+00
(PID.TID 0000.0001)  ploadbar=  1.00999746290358E+05
 cg2d: Sum(rhs),rhsMax =  -7.37952044360291E+01  1.63941627930708E+00
(PID.TID 0000.0001)  ploadbar=  1.00998332551530E+05
 cg2d: Sum(rhs),rhsMax =  -7.36741948741451E+01  1.64146380244109E+00
(PID.TID 0000.0001)  ploadbar=  1.00996918812701E+05
 cg2d: Sum(rhs),rhsMax =  -7.35354701604468E+01  1.64388467861628E+00
(PID.TID 0000.0001)  ploadbar=  1.00995505073873E+05
 cg2d: Sum(rhs),rhsMax =  -7.33973681770778E+01  1.64627663997496E+00
(PID.TID 0000.0001)  ploadbar=  1.00994091335044E+05
 cg2d: Sum(rhs),rhsMax =  -7.32704989040990E+01  1.64848225379959E+00
(PID.TID 0000.0001)  ploadbar=  1.00993687957754E+05
 cg2d: Sum(rhs),rhsMax =  -7.31491627901611E+01  1.65061722872142E+00
(PID.TID 0000.0001)  ploadbar=  1.00993284580463E+05
 cg2d: Sum(rhs),rhsMax =  -7.30389835999732E+01  1.65254978778318E+00
(PID.TID 0000.0001)  ploadbar=  1.00992881203173E+05
 cg2d: Sum(rhs),rhsMax =  -7.29387220878938E+01  1.65430394364098E+00
(PID.TID 0000.0001)  ploadbar=  1.00992477825883E+05
 cg2d: Sum(rhs),rhsMax =  -7.28872461557395E+01  1.65499168456997E+00
(PID.TID 0000.0001)  ploadbar=  1.00992074448592E+05
 cg2d: Sum(rhs),rhsMax =  -7.28958405763181E+01  1.65434961447795E+00
(PID.TID 0000.0001)  ploadbar=  1.00991671071302E+05
 cg2d: Sum(rhs),rhsMax =  -7.28699891379528E+01  1.65446974717675E+00
(PID.TID 0000.0001)  ploadbar=  1.00992372901243E+05
 cg2d: Sum(rhs),rhsMax =  -7.28103610675767E+01  1.65533242854174E+00
(PID.TID 0000.0001)  ploadbar=  1.00993074731184E+05
 cg2d: Sum(rhs),rhsMax =  -7.26483081154259E+01  1.65850067675101E+00
(PID.TID 0000.0001)  ploadbar=  1.00993776561125E+05
 cg2d: Sum(rhs),rhsMax =  -7.24370403226718E+01  1.66277769233816E+00
(PID.TID 0000.0001)  ploadbar=  1.00994478391067E+05
 cg2d: Sum(rhs),rhsMax =  -7.22248381773276E+01  1.66706133609353E+00
(PID.TID 0000.0001)  ploadbar=  1.00995180221008E+05
 cg2d: Sum(rhs),rhsMax =  -7.20431815353144E+01  1.67061653635616E+00
(PID.TID 0000.0001)  ploadbar=  1.00995882050949E+05
 cg2d: Sum(rhs),rhsMax =  -7.19286260252404E+01  1.67264677278363E+00
(PID.TID 0000.0001)  ploadbar=  1.00995987467059E+05
 cg2d: Sum(rhs),rhsMax =  -7.20752288768829E+01  1.66863088092007E+00
(PID.TID 0000.0001)  ploadbar=  1.00996092883169E+05
 cg2d: Sum(rhs),rhsMax =  -7.22280914260353E+01  1.66449711877705E+00
(PID.TID 0000.0001)  ploadbar=  1.00996198299279E+05
 cg2d: Sum(rhs),rhsMax =  -7.23853621913282E+01  1.66028211822639E+00
(PID.TID 0000.0001)  ploadbar=  1.00996303715389E+05
 cg2d: Sum(rhs),rhsMax =  -7.25873441188196E+01  1.65505881755275E+00
(PID.TID 0000.0001)  ploadbar=  1.00996409131499E+05
 cg2d: Sum(rhs),rhsMax =  -7.28171766071227E+01  1.64922015802560E+00
(PID.TID 0000.0001)  ploadbar=  1.00996514547609E+05
 cg2d: Sum(rhs),rhsMax =  -7.30302306042926E+01  1.64379331295380E+00
(PID.TID 0000.0001)  ploadbar=  1.00997443992891E+05
 cg2d: Sum(rhs),rhsMax =  -7.32309231616972E+01  1.63866733851602E+00
(PID.TID 0000.0001)  ploadbar=  1.00998373438173E+05
 cg2d: Sum(rhs),rhsMax =  -7.34202628749301E+01  1.63381219477095E+00
(PID.TID 0000.0001)  ploadbar=  1.00999302883455E+05
 cg2d: Sum(rhs),rhsMax =  -7.35999340834359E+01  1.62918099620314E+00
(PID.TID 0000.0001)  ploadbar=  1.01000232328737E+05
 cg2d: Sum(rhs),rhsMax =  -7.37725804903989E+01  1.62470978795317E+00
(PID.TID 0000.0001)  ploadbar=  1.01001161774019E+05
 cg2d: Sum(rhs),rhsMax =  -7.39394350633513E+01  1.62037023920633E+00
(PID.TID 0000.0001)  ploadbar=  1.01002091219301E+05
 cg2d: Sum(rhs),rhsMax =  -7.40911874854621E+01  1.61641411576830E+00
(PID.TID 0000.0001)  ploadbar=  1.01005213665892E+05
 cg2d: Sum(rhs),rhsMax =  -7.42338901167239E+01  1.61269412197001E+00
(PID.TID 0000.0001)  ploadbar=  1.01008336112482E+05
 cg2d: Sum(rhs),rhsMax =  -7.43723467120477E+01  1.60910308238405E+00
(PID.TID 0000.0001)  ploadbar=  1.01011458559073E+05
 cg2d: Sum(rhs),rhsMax =  -7.45041191427166E+01  1.60568855853440E+00
(PID.TID 0000.0001)  ploadbar=  1.01014581005664E+05
 cg2d: Sum(rhs),rhsMax =  -7.45887894475965E+01  1.60331586266663E+00
(PID.TID 0000.0001)  ploadbar=  1.01017703452255E+05
 cg2d: Sum(rhs),rhsMax =  -7.47049395776618E+01  1.60028761250611E+00
(PID.TID 0000.0001)  ploadbar=  1.01020825898845E+05
 cg2d: Sum(rhs),rhsMax =  -7.48065455149935E+01  1.59755364236589E+00
(PID.TID 0000.0001)  ploadbar=  1.01022076509501E+05
 cg2d: Sum(rhs),rhsMax =  -7.49012810312646E+01  1.59494008829337E+00
(PID.TID 0000.0001)  ploadbar=  1.01023327120156E+05
 cg2d: Sum(rhs),rhsMax =  -7.50020972220736E+01  1.59216637336224E+00
(PID.TID 0000.0001)  ploadbar=  1.01024577730811E+05
 cg2d: Sum(rhs),rhsMax =  -7.50789831325899E+01  1.58986387638760E+00
(PID.TID 0000.0001)  ploadbar=  1.01025828341467E+05
 cg2d: Sum(rhs),rhsMax =  -7.48288721956145E+01  1.59445872360227E+00
(PID.TID 0000.0001)  ploadbar=  1.01027078952122E+05
 cg2d: Sum(rhs),rhsMax =  -7.46036125850248E+01  1.59850545341451E+00
(PID.TID 0000.0001)  ploadbar=  1.01028329562777E+05
 cg2d: Sum(rhs),rhsMax =  -7.43076015540342E+01  1.60413531637107E+00
(PID.TID 0000.0001)  ploadbar=  1.01030123630907E+05
 cg2d: Sum(rhs),rhsMax =  -7.40527939409457E+01  1.60894301569782E+00
(PID.TID 0000.0001)  ploadbar=  1.01031917699036E+05
 cg2d: Sum(rhs),rhsMax =  -7.38360242273717E+01  1.61297655599185E+00
(PID.TID 0000.0001)  ploadbar=  1.01033711767165E+05
 cg2d: Sum(rhs),rhsMax =  -7.36579536673971E+01  1.61620238879678E+00
(PID.TID 0000.0001)  ploadbar=  1.01035505835295E+05
 cg2d: Sum(rhs),rhsMax =  -7.35469666481537E+01  1.61797842359972E+00
(PID.TID 0000.0001)  ploadbar=  1.01037299903424E+05
 cg2d: Sum(rhs),rhsMax =  -7.34809387907949E+01  1.61877940535206E+00
(PID.TID 0000.0001)  ploadbar=  1.01039093971553E+05
 cg2d: Sum(rhs),rhsMax =  -7.34173417985832E+01  1.61954706377626E+00
(PID.TID 0000.0001)  ploadbar=  1.01039805291666E+05
 cg2d: Sum(rhs),rhsMax =  -7.33383249707701E+01  1.62066794707756E+00
(PID.TID 0000.0001)  ploadbar=  1.01040516611778E+05
 cg2d: Sum(rhs),rhsMax =  -7.32416249219658E+01  1.62219637301819E+00
(PID.TID 0000.0001)  ploadbar=  1.01041227931890E+05
 cg2d: Sum(rhs),rhsMax =  -7.31281411970714E+01  1.62411845457073E+00
(PID.TID 0000.0001)  ploadbar=  1.01041939252002E+05
 cg2d: Sum(rhs),rhsMax =  -7.29999834292751E+01  1.62638179379543E+00
(PID.TID 0000.0001)  ploadbar=  1.01042650572114E+05
 cg2d: Sum(rhs),rhsMax =  -7.28638845736166E+01  1.62883192096476E+00
(PID.TID 0000.0001)  ploadbar=  1.01043361892226E+05
 cg2d: Sum(rhs),rhsMax =  -7.27306772861852E+01  1.63125643043720E+00
(PID.TID 0000.0001)  ploadbar=  1.01043076522375E+05
 cg2d: Sum(rhs),rhsMax =  -7.27973410784284E+01  1.62923186431250E+00
(PID.TID 0000.0001)  ploadbar=  1.01042791152524E+05
 cg2d: Sum(rhs),rhsMax =  -7.30893393026461E+01  1.62221769283381E+00
(PID.TID 0000.0001)  ploadbar=  1.01042505782673E+05
 cg2d: Sum(rhs),rhsMax =  -7.33741918478201E+01  1.61543729906089E+00
(PID.TID 0000.0001)  ploadbar=  1.01042220412822E+05
 cg2d: Sum(rhs),rhsMax =  -7.36696997195688E+01  1.60849292806652E+00
(PID.TID 0000.0001)  ploadbar=  1.01041935042971E+05
 cg2d: Sum(rhs),rhsMax =  -7.39410599262636E+01  1.60213791270344E+00
(PID.TID 0000.0001)  ploadbar=  1.01041649673120E+05
 cg2d: Sum(rhs),rhsMax =  -7.42060306689184E+01  1.59595472784373E+00
(PID.TID 0000.0001)  ploadbar=  1.01041555708217E+05
 cg2d: Sum(rhs),rhsMax =  -7.44692241465893E+01  1.58983840353853E+00
(PID.TID 0000.0001)  ploadbar=  1.01041461743314E+05
 cg2d: Sum(rhs),rhsMax =  -7.47176924411752E+01  1.58406310741769E+00
(PID.TID 0000.0001)  ploadbar=  1.01041367778411E+05
 cg2d: Sum(rhs),rhsMax =  -7.49349037507791E+01  1.57896778933461E+00
(PID.TID 0000.0001)  ploadbar=  1.01041273813508E+05
 cg2d: Sum(rhs),rhsMax =  -7.51090968496476E+01  1.57478445326678E+00
(PID.TID 0000.0001)  ploadbar=  1.01041179848605E+05
 cg2d: Sum(rhs),rhsMax =  -7.52292476231060E+01  1.57172424326909E+00
(PID.TID 0000.0001)  ploadbar=  1.01041085883702E+05
 cg2d: Sum(rhs),rhsMax =  -7.53578339786136E+01  1.56850768554292E+00
(PID.TID 0000.0001)  ploadbar=  1.01041933638959E+05
 cg2d: Sum(rhs),rhsMax =  -7.55887482007752E+01  1.56319435896775E+00
(PID.TID 0000.0001)  ploadbar=  1.01042781394216E+05
 cg2d: Sum(rhs),rhsMax =  -7.58835220133008E+01  1.55661122405503E+00
(PID.TID 0000.0001)  ploadbar=  1.01043629149473E+05
 cg2d: Sum(rhs),rhsMax =  -7.62528852758605E+01  1.54857033364017E+00
(PID.TID 0000.0001)  ploadbar=  1.01044476904730E+05
 cg2d: Sum(rhs),rhsMax =  -7.67203765304947E+01  1.53864178975002E+00
(PID.TID 0000.0001)  ploadbar=  1.01045324659988E+05
 cg2d: Sum(rhs),rhsMax =  -7.73077102797656E+01  1.52646078979782E+00
(PID.TID 0000.0001)  ploadbar=  1.01046172415245E+05
 cg2d: Sum(rhs),rhsMax =  -7.79692329006174E+01  1.51300422803716E+00
(PID.TID 0000.0001)  ploadbar=  1.01047186479165E+05
 cg2d: Sum(rhs),rhsMax =  -7.86706324088140E+01  1.49899330902899E+00
(PID.TID 0000.0001)  ploadbar=  1.01048200543086E+05
 cg2d: Sum(rhs),rhsMax =  -7.93693995203385E+01  1.48525526100346E+00
(PID.TID 0000.0001)  ploadbar=  1.01049214607006E+05
 cg2d: Sum(rhs),rhsMax =  -8.00181030900380E+01  1.47265098927927E+00
(PID.TID 0000.0001)  ploadbar=  1.01050228670927E+05
 cg2d: Sum(rhs),rhsMax =  -8.05780062699980E+01  1.46183068724860E+00
(PID.TID 0000.0001)  ploadbar=  1.01051242734848E+05
 cg2d: Sum(rhs),rhsMax =  -8.10259418309434E+01  1.45313401824384E+00
(PID.TID 0000.0001)  ploadbar=  1.01052256798768E+05
 cg2d: Sum(rhs),rhsMax =  -8.11337099382333E+01  1.45061406225594E+00
(PID.TID 0000.0001)  ploadbar=  1.01053097242186E+05
 cg2d: Sum(rhs),rhsMax =  -8.05875096205157E+01  1.45987161559799E+00
(PID.TID 0000.0001)  ploadbar=  1.01053937685603E+05
 cg2d: Sum(rhs),rhsMax =  -8.00423340636218E+01  1.46924952849854E+00
(PID.TID 0000.0001)  ploadbar=  1.01054778129020E+05
 cg2d: Sum(rhs),rhsMax =  -7.94615609937809E+01  1.47942713844105E+00
(PID.TID 0000.0001)  ploadbar=  1.01055618572438E+05
 cg2d: Sum(rhs),rhsMax =  -7.88226886036941E+01  1.49085327804020E+00
(PID.TID 0000.0001)  ploadbar=  1.01056459015855E+05
 cg2d: Sum(rhs),rhsMax =  -7.82556500949987E+01  1.50108128522122E+00
(PID.TID 0000.0001)  ploadbar=  1.01057299459273E+05
 cg2d: Sum(rhs),rhsMax =  -7.76976375481981E+01  1.51124896632877E+00
(PID.TID 0000.0001)  ploadbar=  1.01058293878541E+05
 cg2d: Sum(rhs),rhsMax =  -7.71909993346596E+01  1.52051276936287E+00
(PID.TID 0000.0001)  ploadbar=  1.01059288297810E+05
 cg2d: Sum(rhs),rhsMax =  -7.67305686572211E+01  1.52893421955006E+00
(PID.TID 0000.0001)  ploadbar=  1.01060282717079E+05
 cg2d: Sum(rhs),rhsMax =  -7.63188414379860E+01  1.53643008692629E+00
(PID.TID 0000.0001)  ploadbar=  1.01061277136347E+05
 cg2d: Sum(rhs),rhsMax =  -7.59532932563599E+01  1.54301850241104E+00
(PID.TID 0000.0001)  ploadbar=  1.01062271555616E+05
 cg2d: Sum(rhs),rhsMax =  -7.56300016525962E+01  1.54874802238780E+00
(PID.TID 0000.0001)  ploadbar=  1.01063265974885E+05
 cg2d: Sum(rhs),rhsMax =  -7.53273923447138E+01  1.55415187002472E+00
(PID.TID 0000.0001)  ploadbar=  1.01063887630204E+05
 cg2d: Sum(rhs),rhsMax =  -7.50203982231500E+01  1.55973727681933E+00
(PID.TID 0000.0001)  ploadbar=  1.01064509285523E+05
 cg2d: Sum(rhs),rhsMax =  -7.47537028184366E+01  1.56456536122481E+00
(PID.TID 0000.0001)  ploadbar=  1.01065130940842E+05
 cg2d: Sum(rhs),rhsMax =  -7.45194525958433E+01  1.56877790377920E+00
(PID.TID 0000.0001)  ploadbar=  1.01065752596161E+05
 cg2d: Sum(rhs),rhsMax =  -7.43099947336390E+01  1.57251867181903E+00
(PID.TID 0000.0001)  ploadbar=  1.01066374251480E+05
 cg2d: Sum(rhs),rhsMax =  -7.41176941036512E+01  1.57593769820460E+00
(PID.TID 0000.0001)  ploadbar=  1.01066995906799E+05
 cg2d: Sum(rhs),rhsMax =  -7.38581793939254E+01  1.58080169613457E+00
(PID.TID 0000.0001)  ploadbar=  1.01068030985796E+05
 cg2d: Sum(rhs),rhsMax =  -7.44349432617994E+01  1.56787479352017E+00
(PID.TID 0000.0001)  ploadbar=  1.01069066064793E+05
 cg2d: Sum(rhs),rhsMax =  -7.54786061987842E+01  1.54551900199764E+00
(PID.TID 0000.0001)  ploadbar=  1.01070101143790E+05
 cg2d: Sum(rhs),rhsMax =  -7.66414941813670E+01  1.52138700889983E+00
(PID.TID 0000.0001)  ploadbar=  1.01071136222787E+05
 cg2d: Sum(rhs),rhsMax =  -7.78760326238351E+01  1.49658109294998E+00
(PID.TID 0000.0001)  ploadbar=  1.01072171301784E+05
 cg2d: Sum(rhs),rhsMax =  -7.91332413780411E+01  1.47210931666320E+00
(PID.TID 0000.0001)  ploadbar=  1.01073206380781E+05
 cg2d: Sum(rhs),rhsMax =  -8.04006445975235E+01  1.44827081573723E+00
(PID.TID 0000.0001)  ploadbar=  1.01074601373780E+05
 cg2d: Sum(rhs),rhsMax =  -8.15580229412111E+01  1.42714074300268E+00
(PID.TID 0000.0001)  ploadbar=  1.01075996366779E+05
 cg2d: Sum(rhs),rhsMax =  -8.25901525846069E+01  1.40877722495095E+00
(PID.TID 0000.0001)  ploadbar=  1.01077391359777E+05
 cg2d: Sum(rhs),rhsMax =  -8.35023522864705E+01  1.39290327999000E+00
(PID.TID 0000.0001)  ploadbar=  1.01078786352776E+05
 cg2d: Sum(rhs),rhsMax =  -8.29865031326442E+01  1.40110883020767E+00
(PID.TID 0000.0001)  ploadbar=  1.01080181345775E+05
 cg2d: Sum(rhs),rhsMax =  -8.21928009233783E+01  1.41421196605078E+00
(PID.TID 0000.0001)  ploadbar=  1.01081576338773E+05
 cg2d: Sum(rhs),rhsMax =  -8.14707248331213E+01  1.42628806501311E+00
(PID.TID 0000.0001)  ploadbar=  1.01082180847726E+05
 cg2d: Sum(rhs),rhsMax =  -8.08070882620026E+01  1.43750810537722E+00
(PID.TID 0000.0001)  ploadbar=  1.01082785356679E+05
 cg2d: Sum(rhs),rhsMax =  -8.01875228055441E+01  1.44808152150908E+00
(PID.TID 0000.0001)  ploadbar=  1.01083389865632E+05
 cg2d: Sum(rhs),rhsMax =  -7.96071427503326E+01  1.45805816122075E+00
(PID.TID 0000.0001)  ploadbar=  1.01083994374585E+05
 cg2d: Sum(rhs),rhsMax =  -7.90609496339550E+01  1.46750021531552E+00
(PID.TID 0000.0001)  ploadbar=  1.01084598883538E+05
 cg2d: Sum(rhs),rhsMax =  -7.85461721807410E+01  1.47643490008926E+00
(PID.TID 0000.0001)  ploadbar=  1.01085203392491E+05
 cg2d: Sum(rhs),rhsMax =  -7.79798183958662E+01  1.48649902484526E+00
(PID.TID 0000.0001)  ploadbar=  1.01085876466224E+05
 cg2d: Sum(rhs),rhsMax =  -7.73905495674535E+01  1.49717561722897E+00
(PID.TID 0000.0001)  ploadbar=  1.01086549539957E+05
 cg2d: Sum(rhs),rhsMax =  -7.68302764396687E+01  1.50746360913223E+00
(PID.TID 0000.0001)  ploadbar=  1.01087222613690E+05
 cg2d: Sum(rhs),rhsMax =  -7.62980559425511E+01  1.51735912637315E+00
(PID.TID 0000.0001)  ploadbar=  1.01087895687423E+05
 cg2d: Sum(rhs),rhsMax =  -7.57922370289990E+01  1.52687033993219E+00
(PID.TID 0000.0001)  ploadbar=  1.01088568761156E+05
 cg2d: Sum(rhs),rhsMax =  -7.53093835219219E+01  1.53604538997487E+00
(PID.TID 0000.0001)  ploadbar=  1.01089241834889E+05
 cg2d: Sum(rhs),rhsMax =  -7.48256421768367E+01  1.54535832505607E+00
(PID.TID 0000.0001)  ploadbar=  1.01088694311032E+05
 cg2d: Sum(rhs),rhsMax =  -7.43279186414919E+01  1.55508577224091E+00
(PID.TID 0000.0001)  ploadbar=  1.01088146787176E+05
 cg2d: Sum(rhs),rhsMax =  -7.38080761392346E+01  1.56541198200489E+00
(PID.TID 0000.0001)  ploadbar=  1.01087599263319E+05
 cg2d: Sum(rhs),rhsMax =  -7.32685651108930E+01  1.57630482741276E+00
(PID.TID 0000.0001)  ploadbar=  1.01087051739463E+05
 cg2d: Sum(rhs),rhsMax =  -7.27254399585208E+01  1.58743532148326E+00
(PID.TID 0000.0001)  ploadbar=  1.01086504215607E+05
 cg2d: Sum(rhs),rhsMax =  -7.23802373406368E+01  1.59436043425533E+00
(PID.TID 0000.0001)  ploadbar=  1.01085956691750E+05
 cg2d: Sum(rhs),rhsMax =  -7.25327993636471E+01  1.59040631419500E+00
(PID.TID 0000.0001)  ploadbar=  1.01085289453685E+05
 cg2d: Sum(rhs),rhsMax =  -7.25769562847607E+01  1.58887173187651E+00
(PID.TID 0000.0001)  ploadbar=  1.01084622215621E+05
 cg2d: Sum(rhs),rhsMax =  -7.25674525991681E+01  1.58853984232136E+00
(PID.TID 0000.0001)  ploadbar=  1.01083954977556E+05
 cg2d: Sum(rhs),rhsMax =  -7.25648741923239E+01  1.58807703243433E+00
(PID.TID 0000.0001)  ploadbar=  1.01083287739491E+05
 cg2d: Sum(rhs),rhsMax =  -7.25933750726364E+01  1.58694849117298E+00
(PID.TID 0000.0001)  ploadbar=  1.01082620501426E+05
 cg2d: Sum(rhs),rhsMax =  -7.27127149734113E+01  1.58384747479206E+00
(PID.TID 0000.0001)  ploadbar=  1.01081953263362E+05
 cg2d: Sum(rhs),rhsMax =  -7.29392206691605E+01  1.57839601851740E+00
(PID.TID 0000.0001)  ploadbar=  1.01081310934051E+05
 cg2d: Sum(rhs),rhsMax =  -7.33558812425973E+01  1.56885929341025E+00
(PID.TID 0000.0001)  ploadbar=  1.01080668604740E+05
 cg2d: Sum(rhs),rhsMax =  -7.39359399829222E+01  1.55594057927459E+00
(PID.TID 0000.0001)  ploadbar=  1.01080026275429E+05
 cg2d: Sum(rhs),rhsMax =  -7.46090731484609E+01  1.54125084755401E+00
(PID.TID 0000.0001)  ploadbar=  1.01079383946119E+05
 cg2d: Sum(rhs),rhsMax =  -7.53315145595999E+01  1.52577193949750E+00
(PID.TID 0000.0001)  ploadbar=  1.01078741616808E+05
 cg2d: Sum(rhs),rhsMax =  -7.60712422879137E+01  1.51018780858985E+00
(PID.TID 0000.0001)  ploadbar=  1.01078099287497E+05
 cg2d: Sum(rhs),rhsMax =  -7.56015054237115E+01  1.51883489442413E+00
(PID.TID 0000.0001)  ploadbar=  1.01077135315459E+05
 cg2d: Sum(rhs),rhsMax =  -7.48849388508432E+01  1.53263819480723E+00
(PID.TID 0000.0001)  ploadbar=  1.01076171343420E+05
 cg2d: Sum(rhs),rhsMax =  -7.42234912978420E+01  1.54556971957801E+00
(PID.TID 0000.0001)  ploadbar=  1.01075207371382E+05
 cg2d: Sum(rhs),rhsMax =  -7.36017580828509E+01  1.55789864874279E+00
(PID.TID 0000.0001)  ploadbar=  1.01074243399343E+05
 cg2d: Sum(rhs),rhsMax =  -7.29970954354863E+01  1.57007094548774E+00
(PID.TID 0000.0001)  ploadbar=  1.01073279427305E+05
 cg2d: Sum(rhs),rhsMax =  -7.23805154602578E+01  1.58270166366796E+00
(PID.TID 0000.0001)  ploadbar=  1.01072315455266E+05
 cg2d: Sum(rhs),rhsMax =  -7.17554859936903E+01  1.59573802050811E+00
(PID.TID 0000.0001)  ploadbar=  1.01071801707993E+05
 cg2d: Sum(rhs),rhsMax =  -7.11349124786748E+01  1.60890214137666E+00
(PID.TID 0000.0001)  ploadbar=  1.01071287960721E+05
 cg2d: Sum(rhs),rhsMax =  -7.21113639082294E+01  1.58636876595706E+00
(PID.TID 0000.0001)  ploadbar=  1.01070774213448E+05
 cg2d: Sum(rhs),rhsMax =  -7.31206609539764E+01  1.56372936735055E+00
(PID.TID 0000.0001)  ploadbar=  1.01070260466175E+05
 cg2d: Sum(rhs),rhsMax =  -7.41414175790689E+01  1.54145823490713E+00
(PID.TID 0000.0001)  ploadbar=  1.01069746718902E+05
 cg2d: Sum(rhs),rhsMax =  -7.51566773212822E+01  1.51989123075200E+00
(PID.TID 0000.0001)  ploadbar=  1.01069232971630E+05
 cg2d: Sum(rhs),rhsMax =  -7.60698201251769E+01  1.50093851763663E+00
(PID.TID 0000.0001)  ploadbar=  1.01070592397653E+05
 cg2d: Sum(rhs),rhsMax =  -7.68608668065061E+01  1.48481193535572E+00
(PID.TID 0000.0001)  ploadbar=  1.01071951823676E+05
 cg2d: Sum(rhs),rhsMax =  -7.75273548683288E+01  1.47139108036879E+00
(PID.TID 0000.0001)  ploadbar=  1.01073311249699E+05
 cg2d: Sum(rhs),rhsMax =  -7.80787981138572E+01  1.46035997962792E+00
(PID.TID 0000.0001)  ploadbar=  1.01074670675722E+05
 cg2d: Sum(rhs),rhsMax =  -7.84948997163251E+01  1.45199031659446E+00
(PID.TID 0000.0001)  ploadbar=  1.01076030101745E+05
 cg2d: Sum(rhs),rhsMax =  -7.88827719046627E+01  1.44422730044439E+00
(PID.TID 0000.0001)  ploadbar=  1.01077389527768E+05
 cg2d: Sum(rhs),rhsMax =  -7.86488838296268E+01  1.44790437577113E+00
(PID.TID 0000.0001)  ploadbar=  1.01078453210284E+05
 cg2d: Sum(rhs),rhsMax =  -7.81716331877222E+01  1.45612562645594E+00
(PID.TID 0000.0001)  ploadbar=  1.01079516892800E+05
 cg2d: Sum(rhs),rhsMax =  -7.76986308544766E+01  1.46436785255170E+00
(PID.TID 0000.0001)  ploadbar=  1.01080580575317E+05
 cg2d: Sum(rhs),rhsMax =  -7.72147254897835E+01  1.47291646853023E+00
(PID.TID 0000.0001)  ploadbar=  1.01081644257833E+05
 cg2d: Sum(rhs),rhsMax =  -7.75035266574165E+01  1.46679336324898E+00
(PID.TID 0000.0001)  ploadbar=  1.01082707940349E+05
 cg2d: Sum(rhs),rhsMax =  -7.79565551894889E+01  1.45762577289706E+00
(PID.TID 0000.0001)  ploadbar=  1.01083771622865E+05
 cg2d: Sum(rhs),rhsMax =  -7.84446294712881E+01  1.44796741457410E+00
(PID.TID 0000.0001)  ploadbar=  1.01084557799130E+05
 cg2d: Sum(rhs),rhsMax =  -7.88805348660955E+01  1.43942519321762E+00
(PID.TID 0000.0001)  ploadbar=  1.01085343975394E+05
 cg2d: Sum(rhs),rhsMax =  -7.81787365792070E+01  1.45184305259199E+00
(PID.TID 0000.0001)  ploadbar=  1.01086130151659E+05
 cg2d: Sum(rhs),rhsMax =  -7.75412100308505E+01  1.46330952704915E+00
(PID.TID 0000.0001)  ploadbar=  1.01086916327923E+05
 cg2d: Sum(rhs),rhsMax =  -7.69589391297293E+01  1.47394005766270E+00
(PID.TID 0000.0001)  ploadbar=  1.01087702504188E+05
 cg2d: Sum(rhs),rhsMax =  -7.64188007678705E+01  1.48393931511934E+00
(PID.TID 0000.0001)  ploadbar=  1.01088488680452E+05
 cg2d: Sum(rhs),rhsMax =  -7.58894516356219E+01  1.49387414877096E+00
(PID.TID 0000.0001)  ploadbar=  1.01088141120850E+05
 cg2d: Sum(rhs),rhsMax =  -7.53713658153368E+01  1.50372730015138E+00
(PID.TID 0000.0001)  ploadbar=  1.01087793561248E+05
 cg2d: Sum(rhs),rhsMax =  -7.48611898794755E+01  1.51356131803625E+00
(PID.TID 0000.0001)  ploadbar=  1.01087446001646E+05
 cg2d: Sum(rhs),rhsMax =  -7.43615537283451E+01  1.52331973021307E+00
(PID.TID 0000.0001)  ploadbar=  1.01087098442044E+05
 cg2d: Sum(rhs),rhsMax =  -7.38787588303863E+01  1.53286615011577E+00
(PID.TID 0000.0001)  ploadbar=  1.01086750882442E+05
 cg2d: Sum(rhs),rhsMax =  -7.34225860290202E+01  1.54198669230511E+00
(PID.TID 0000.0001)  ploadbar=  1.01086403322840E+05
 cg2d: Sum(rhs),rhsMax =  -7.29967958480823E+01  1.55062486795522E+00
(PID.TID 0000.0001)  ploadbar=  1.01084754634727E+05
 cg2d: Sum(rhs),rhsMax =  -7.26221920200079E+01  1.55830754615654E+00
(PID.TID 0000.0001)  ploadbar=  1.01083105946614E+05
 cg2d: Sum(rhs),rhsMax =  -7.23087810104086E+01  1.56478216526219E+00
(PID.TID 0000.0001)  ploadbar=  1.01081457258501E+05
 cg2d: Sum(rhs),rhsMax =  -7.20609869851996E+01  1.56991688642725E+00
(PID.TID 0000.0001)  ploadbar=  1.01079808570388E+05
 cg2d: Sum(rhs),rhsMax =  -7.19372097868493E+01  1.57240217611635E+00
(PID.TID 0000.0001)  ploadbar=  1.01078159882275E+05
 cg2d: Sum(rhs),rhsMax =  -7.24628987308024E+01  1.56080561374878E+00
(PID.TID 0000.0001)  ploadbar=  1.01076511194162E+05
 cg2d: Sum(rhs),rhsMax =  -7.27881236544554E+01  1.55360561507032E+00
(PID.TID 0000.0001)  ploadbar=  1.01074940063146E+05
 cg2d: Sum(rhs),rhsMax =  -7.31183542580927E+01  1.54632450234452E+00
(PID.TID 0000.0001)  ploadbar=  1.01073368932129E+05
 cg2d: Sum(rhs),rhsMax =  -7.34490230980911E+01  1.53905979862516E+00
(PID.TID 0000.0001)  ploadbar=  1.01071797801113E+05
 cg2d: Sum(rhs),rhsMax =  -7.37675834396173E+01  1.53206625226036E+00
(PID.TID 0000.0001)  ploadbar=  1.01070226670097E+05
 cg2d: Sum(rhs),rhsMax =  -7.40580284602811E+01  1.52566462586515E+00
(PID.TID 0000.0001)  ploadbar=  1.01068655539081E+05
 cg2d: Sum(rhs),rhsMax =  -7.43116965671177E+01  1.52001479033488E+00
(PID.TID 0000.0001)  ploadbar=  1.01067084408065E+05
 cg2d: Sum(rhs),rhsMax =  -7.43859620608706E+01  1.51809122177180E+00
(PID.TID 0000.0001)  ploadbar=  1.01065520475315E+05
 cg2d: Sum(rhs),rhsMax =  -7.46223882012917E+01  1.51290810673956E+00
(PID.TID 0000.0001)  ploadbar=  1.01063956542565E+05
 cg2d: Sum(rhs),rhsMax =  -7.49183777116859E+01  1.50658665713528E+00
(PID.TID 0000.0001)  ploadbar=  1.01062392609814E+05
 cg2d: Sum(rhs),rhsMax =  -7.52696698189154E+01  1.49923694005340E+00
(PID.TID 0000.0001)  ploadbar=  1.01060828677064E+05
 cg2d: Sum(rhs),rhsMax =  -7.55921615422658E+01  1.49254341507824E+00
(PID.TID 0000.0001)  ploadbar=  1.01059264744314E+05
 cg2d: Sum(rhs),rhsMax =  -7.59017002209047E+01  1.48617272132040E+00
(PID.TID 0000.0001)  ploadbar=  1.01057700811564E+05
 cg2d: Sum(rhs),rhsMax =  -7.61756481229753E+01  1.48052713591013E+00
(PID.TID 0000.0001)  ploadbar=  1.01058365519147E+05
 cg2d: Sum(rhs),rhsMax =  -7.58304927175798E+01  1.48694234089008E+00
(PID.TID 0000.0001)  ploadbar=  1.01059030226730E+05
 cg2d: Sum(rhs),rhsMax =  -7.52619088245825E+01  1.49782693683401E+00
(PID.TID 0000.0001)  ploadbar=  1.01059694934313E+05
 cg2d: Sum(rhs),rhsMax =  -7.46282898284146E+01  1.51016662218593E+00
(PID.TID 0000.0001)  ploadbar=  1.01060359641897E+05
 cg2d: Sum(rhs),rhsMax =  -7.40338736955241E+01  1.52188250119320E+00
(PID.TID 0000.0001)  ploadbar=  1.01061024349480E+05
 cg2d: Sum(rhs),rhsMax =  -7.35051132929107E+01  1.53239084996421E+00
(PID.TID 0000.0001)  ploadbar=  1.01061689057063E+05
 cg2d: Sum(rhs),rhsMax =  -7.30998723948211E+01  1.54048343745004E+00
(PID.TID 0000.0001)  ploadbar=  1.01063808913747E+05
 cg2d: Sum(rhs),rhsMax =  -7.28317962677079E+01  1.54578056383107E+00
(PID.TID 0000.0001)  ploadbar=  1.01065928770430E+05
 cg2d: Sum(rhs),rhsMax =  -7.26972093496225E+01  1.54829218944006E+00
(PID.TID 0000.0001)  ploadbar=  1.01068048627114E+05
 cg2d: Sum(rhs),rhsMax =  -7.27735454911779E+01  1.54633671179576E+00
(PID.TID 0000.0001)  ploadbar=  1.01070168483798E+05
 cg2d: Sum(rhs),rhsMax =  -7.29741965704166E+01  1.54176857859504E+00
(PID.TID 0000.0001)  ploadbar=  1.01072288340482E+05
 cg2d: Sum(rhs),rhsMax =  -7.33031139679996E+01  1.53454345857150E+00
(PID.TID 0000.0001)  ploadbar=  1.01074408197165E+05
 cg2d: Sum(rhs),rhsMax =  -7.36482445340453E+01  1.52701866054905E+00
(PID.TID 0000.0001)  ploadbar=  1.01075107250117E+05
 cg2d: Sum(rhs),rhsMax =  -7.39748665246416E+01  1.51991388752127E+00
(PID.TID 0000.0001)  ploadbar=  1.01075806303068E+05
 cg2d: Sum(rhs),rhsMax =  -7.42616748703063E+01  1.51365130661870E+00
(PID.TID 0000.0001)  ploadbar=  1.01076505356020E+05
 cg2d: Sum(rhs),rhsMax =  -7.45005668821081E+01  1.50836990685265E+00
(PID.TID 0000.0001)  ploadbar=  1.01077204408971E+05
 cg2d: Sum(rhs),rhsMax =  -7.46977683479181E+01  1.50392159800958E+00
(PID.TID 0000.0001)  ploadbar=  1.01077903461923E+05
 cg2d: Sum(rhs),rhsMax =  -7.48703573728593E+01  1.49994476873261E+00
(PID.TID 0000.0001)  ploadbar=  1.01078602514874E+05
 cg2d: Sum(rhs),rhsMax =  -7.49655075792345E+01  1.49757965111220E+00
(PID.TID 0000.0001)  ploadbar=  1.01079164083469E+05
 cg2d: Sum(rhs),rhsMax =  -7.50235569073464E+01  1.49600453774964E+00
(PID.TID 0000.0001)  ploadbar=  1.01079725652063E+05
 cg2d: Sum(rhs),rhsMax =  -7.51350570289714E+01  1.49340831509638E+00
(PID.TID 0000.0001)  ploadbar=  1.01080287220658E+05
 cg2d: Sum(rhs),rhsMax =  -7.53282141970073E+01  1.48923700139521E+00
(PID.TID 0000.0001)  ploadbar=  1.01080848789253E+05
 cg2d: Sum(rhs),rhsMax =  -7.55971570927399E+01  1.48362552782689E+00
(PID.TID 0000.0001)  ploadbar=  1.01081410357848E+05
 cg2d: Sum(rhs),rhsMax =  -7.59278933900787E+01  1.47687433437355E+00
(PID.TID 0000.0001)  ploadbar=  1.01081971926443E+05
 cg2d: Sum(rhs),rhsMax =  -7.62851976619769E+01  1.46965718802211E+00
(PID.TID 0000.0001)  ploadbar=  1.01082644169216E+05
 cg2d: Sum(rhs),rhsMax =  -7.66178105816366E+01  1.46296187352627E+00
(PID.TID 0000.0001)  ploadbar=  1.01083316411990E+05
 cg2d: Sum(rhs),rhsMax =  -7.68944732120176E+01  1.45736454565950E+00
(PID.TID 0000.0001)  ploadbar=  1.01083988654763E+05
 cg2d: Sum(rhs),rhsMax =  -7.70925434141179E+01  1.45326645265139E+00
(PID.TID 0000.0001)  ploadbar=  1.01084660897537E+05
 cg2d: Sum(rhs),rhsMax =  -7.72044293255321E+01  1.45078177910114E+00
(PID.TID 0000.0001)  ploadbar=  1.01085333140311E+05
 cg2d: Sum(rhs),rhsMax =  -7.72416896914632E+01  1.44967538482945E+00
(PID.TID 0000.0001)  ploadbar=  1.01086005383084E+05
 cg2d: Sum(rhs),rhsMax =  -7.72416095658433E+01  1.44929601562985E+00
(PID.TID 0000.0001)  ploadbar=  1.01085508674435E+05
 cg2d: Sum(rhs),rhsMax =  -7.72490371747347E+01  1.44879446157739E+00
(PID.TID 0000.0001)  ploadbar=  1.01085011965787E+05
 cg2d: Sum(rhs),rhsMax =  -7.73028315957889E+01  1.44743808096719E+00
(PID.TID 0000.0001)  ploadbar=  1.01084515257138E+05
 cg2d: Sum(rhs),rhsMax =  -7.74153115974960E+01  1.44499719116269E+00
(PID.TID 0000.0001)  ploadbar=  1.01084018548489E+05
 cg2d: Sum(rhs),rhsMax =  -7.76356724686687E+01  1.44056392614422E+00
(PID.TID 0000.0001)  ploadbar=  1.01083521839840E+05
 cg2d: Sum(rhs),rhsMax =  -7.80377460914331E+01  1.43281060082303E+00
(PID.TID 0000.0001)  ploadbar=  1.01083025131191E+05
 cg2d: Sum(rhs),rhsMax =  -7.85160685726538E+01  1.42370492921960E+00
(PID.TID 0000.0001)  ploadbar=  1.01083241680365E+05
 cg2d: Sum(rhs),rhsMax =  -7.90211988877710E+01  1.41417990023885E+00
(PID.TID 0000.0001)  ploadbar=  1.01083458229539E+05
 cg2d: Sum(rhs),rhsMax =  -7.95137824164669E+01  1.40494721356187E+00
(PID.TID 0000.0001)  ploadbar=  1.01083674778713E+05
 cg2d: Sum(rhs),rhsMax =  -7.96459242153259E+01  1.40209480439262E+00
(PID.TID 0000.0001)  ploadbar=  1.01083891327887E+05
 cg2d: Sum(rhs),rhsMax =  -7.94739190034032E+01  1.40455264660535E+00
(PID.TID 0000.0001)  ploadbar=  1.01084107877061E+05
 cg2d: Sum(rhs),rhsMax =  -7.94094514593041E+01  1.40505645864715E+00
(PID.TID 0000.0001)  ploadbar=  1.01084324426235E+05
 cg2d: Sum(rhs),rhsMax =  -7.94588152396536E+01  1.40357292154195E+00
(PID.TID 0000.0001)  ploadbar=  1.01084214018831E+05
 cg2d: Sum(rhs),rhsMax =  -7.95386409501309E+01  1.40157594321156E+00
(PID.TID 0000.0001)  ploadbar=  1.01084103611428E+05
 cg2d: Sum(rhs),rhsMax =  -7.94722459042448E+01  1.40217455899468E+00
(PID.TID 0000.0001)  ploadbar=  1.01083993204025E+05
 cg2d: Sum(rhs),rhsMax =  -7.93770384714817E+01  1.40329282537295E+00
(PID.TID 0000.0001)  ploadbar=  1.01083882796622E+05
 cg2d: Sum(rhs),rhsMax =  -7.92546828255185E+01  1.40490051025759E+00
(PID.TID 0000.0001)  ploadbar=  1.01083772389218E+05
 cg2d: Sum(rhs),rhsMax =  -7.91367602259656E+01  1.40643757373468E+00
(PID.TID 0000.0001)  ploadbar=  1.01083661981815E+05
 cg2d: Sum(rhs),rhsMax =  -7.90333406900497E+01  1.40773186707596E+00
(PID.TID 0000.0001)  ploadbar=  1.01083797359954E+05
 cg2d: Sum(rhs),rhsMax =  -7.89368790524853E+01  1.40891193307752E+00
(PID.TID 0000.0001)  ploadbar=  1.01083932738092E+05
 cg2d: Sum(rhs),rhsMax =  -7.88503786196239E+01  1.40992057695571E+00
(PID.TID 0000.0001)  ploadbar=  1.01084068116230E+05
 cg2d: Sum(rhs),rhsMax =  -7.87736080975720E+01  1.41075971178932E+00
(PID.TID 0000.0001)  ploadbar=  1.01084203494369E+05
 cg2d: Sum(rhs),rhsMax =  -7.87047376009514E+01  1.41145692146582E+00
(PID.TID 0000.0001)  ploadbar=  1.01084338872507E+05
 cg2d: Sum(rhs),rhsMax =  -7.86403315713179E+01  1.41207012673272E+00
(PID.TID 0000.0001)  ploadbar=  1.01084474250646E+05
 cg2d: Sum(rhs),rhsMax =  -7.85822059795048E+01  1.41259981555488E+00
(PID.TID 0000.0001)  ploadbar=  1.01083923930261E+05
 cg2d: Sum(rhs),rhsMax =  -7.85283144048024E+01  1.41307961380264E+00
(PID.TID 0000.0001)  ploadbar=  1.01083373609875E+05
 cg2d: Sum(rhs),rhsMax =  -7.84648217818352E+01  1.41375554440363E+00
(PID.TID 0000.0001)  ploadbar=  1.01082823289490E+05
 cg2d: Sum(rhs),rhsMax =  -7.83951642320326E+01  1.41456048937333E+00
(PID.TID 0000.0001)  ploadbar=  1.01082272969105E+05
 cg2d: Sum(rhs),rhsMax =  -7.83118410795855E+01  1.41562506116944E+00
(PID.TID 0000.0001)  ploadbar=  1.01081722648720E+05
 cg2d: Sum(rhs),rhsMax =  -7.83735296518784E+01  1.41407812426080E+00
(PID.TID 0000.0001)  ploadbar=  1.01081172328334E+05
 cg2d: Sum(rhs),rhsMax =  -7.85037662524538E+01  1.41128500821195E+00
(PID.TID 0000.0001)  ploadbar=  1.01080458736695E+05
 cg2d: Sum(rhs),rhsMax =  -7.86826043270078E+01  1.40761317908765E+00
(PID.TID 0000.0001)  ploadbar=  1.01079745145055E+05
 cg2d: Sum(rhs),rhsMax =  -7.88927771216366E+01  1.40338120334831E+00
(PID.TID 0000.0001)  ploadbar=  1.01079031553415E+05
 cg2d: Sum(rhs),rhsMax =  -7.91144116795437E+01  1.39894828220312E+00
(PID.TID 0000.0001)  ploadbar=  1.01078317961775E+05
 cg2d: Sum(rhs),rhsMax =  -7.93290108742892E+01  1.39463994370774E+00
(PID.TID 0000.0001)  ploadbar=  1.01077604370135E+05
 cg2d: Sum(rhs),rhsMax =  -7.95251592329064E+01  1.39064739717830E+00
(PID.TID 0000.0001)  ploadbar=  1.01076890778496E+05
 cg2d: Sum(rhs),rhsMax =  -7.95561761385943E+01  1.38957976301989E+00
(PID.TID 0000.0001)  ploadbar=  1.01075661769660E+05
 cg2d: Sum(rhs),rhsMax =  -7.94889927103538E+01  1.39024895802236E+00
(PID.TID 0000.0001)  ploadbar=  1.01074432760825E+05
 cg2d: Sum(rhs),rhsMax =  -7.94066658148018E+01  1.39120144906867E+00
(PID.TID 0000.0001)  ploadbar=  1.01073203751990E+05
 cg2d: Sum(rhs),rhsMax =  -7.93247654736039E+01  1.39216024131278E+00
(PID.TID 0000.0001)  ploadbar=  1.01071974743155E+05
 cg2d: Sum(rhs),rhsMax =  -7.92541839701086E+01  1.39292969065243E+00
(PID.TID 0000.0001)  ploadbar=  1.01070745734320E+05
 cg2d: Sum(rhs),rhsMax =  -7.92040739364666E+01  1.39334438114914E+00
(PID.TID 0000.0001)  ploadbar=  1.01069516725484E+05
 cg2d: Sum(rhs),rhsMax =  -7.91499016832149E+01  1.39383372475572E+00
(PID.TID 0000.0001)  ploadbar=  1.01068671553139E+05
 cg2d: Sum(rhs),rhsMax =  -7.90946151350017E+01  1.39434214198814E+00
(PID.TID 0000.0001)  ploadbar=  1.01067826380793E+05
 cg2d: Sum(rhs),rhsMax =  -7.90255096543111E+01  1.39508938312835E+00
(PID.TID 0000.0001)  ploadbar=  1.01066981208447E+05
 cg2d: Sum(rhs),rhsMax =  -7.89272859443263E+01  1.39634316576503E+00
(PID.TID 0000.0001)  ploadbar=  1.01066136036101E+05
 cg2d: Sum(rhs),rhsMax =  -7.87812838797553E+01  1.39843552481679E+00
(PID.TID 0000.0001)  ploadbar=  1.01065290863755E+05
 cg2d: Sum(rhs),rhsMax =  -7.85685099829607E+01  1.40171242684723E+00
(PID.TID 0000.0001)  ploadbar=  1.01064445691409E+05
 cg2d: Sum(rhs),rhsMax =  -7.83145768495096E+01  1.40577307905185E+00
(PID.TID 0000.0001)  ploadbar=  1.01063985439184E+05
 cg2d: Sum(rhs),rhsMax =  -7.79832278857826E+01  1.41128417566378E+00
(PID.TID 0000.0001)  ploadbar=  1.01063525186959E+05
 cg2d: Sum(rhs),rhsMax =  -7.75650376736239E+01  1.41844995487025E+00
(PID.TID 0000.0001)  ploadbar=  1.01063064934733E+05
 cg2d: Sum(rhs),rhsMax =  -7.71583739853298E+01  1.42549788535182E+00
(PID.TID 0000.0001)  ploadbar=  1.01062604682508E+05
 cg2d: Sum(rhs),rhsMax =  -7.69410021706367E+01  1.42910983174702E+00
(PID.TID 0000.0001)  ploadbar=  1.01062144430282E+05
 cg2d: Sum(rhs),rhsMax =  -7.68794519778502E+01  1.42984599993074E+00
(PID.TID 0000.0001)  ploadbar=  1.01061684178057E+05
 cg2d: Sum(rhs),rhsMax =  -7.68892484767400E+01  1.42923112073449E+00
(PID.TID 0000.0001)  ploadbar=  1.01061323178530E+05
 cg2d: Sum(rhs),rhsMax =  -7.69022984099086E+01  1.42852849702716E+00
(PID.TID 0000.0001)  ploadbar=  1.01060962179003E+05
 cg2d: Sum(rhs),rhsMax =  -7.69198587623405E+01  1.42771254603430E+00
(PID.TID 0000.0001)  ploadbar=  1.01060601179476E+05
 cg2d: Sum(rhs),rhsMax =  -7.69440107240210E+01  1.42674247172866E+00
(PID.TID 0000.0001)  ploadbar=  1.01060240179949E+05
 cg2d: Sum(rhs),rhsMax =  -7.69736261286463E+01  1.42563539892968E+00
(PID.TID 0000.0001)  ploadbar=  1.01059879180422E+05
 cg2d: Sum(rhs),rhsMax =  -7.69995673082958E+01  1.42455749012287E+00
(PID.TID 0000.0001)  ploadbar=  1.01059518180895E+05
 cg2d: Sum(rhs),rhsMax =  -7.68900939059430E+01  1.42600357055544E+00
(PID.TID 0000.0001)  ploadbar=  1.01059196101286E+05
 cg2d: Sum(rhs),rhsMax =  -7.66681307863370E+01  1.42955892990416E+00
(PID.TID 0000.0001)  ploadbar=  1.01058874021676E+05
 cg2d: Sum(rhs),rhsMax =  -7.63853186571058E+01  1.43428380275733E+00
(PID.TID 0000.0001)  ploadbar=  1.01058551942067E+05
 cg2d: Sum(rhs),rhsMax =  -7.60433966516863E+01  1.44016480537772E+00
(PID.TID 0000.0001)  ploadbar=  1.01058229862457E+05
 cg2d: Sum(rhs),rhsMax =  -7.59492956002972E+01  1.44137903450516E+00
(PID.TID 0000.0001)  ploadbar=  1.01057907782848E+05
 cg2d: Sum(rhs),rhsMax =  -7.59973419869441E+01  1.43989568813964E+00
(PID.TID 0000.0001)  ploadbar=  1.01057585703238E+05
 cg2d: Sum(rhs),rhsMax =  -7.60339106784930E+01  1.43862708764202E+00
(PID.TID 0000.0001)  ploadbar=  1.01057533362643E+05
 cg2d: Sum(rhs),rhsMax =  -7.60595089763285E+01  1.43755885536987E+00
(PID.TID 0000.0001)  ploadbar=  1.01057481022049E+05
 cg2d: Sum(rhs),rhsMax =  -7.60868627567247E+01  1.43644465743672E+00
(PID.TID 0000.0001)  ploadbar=  1.01057428681454E+05
 cg2d: Sum(rhs),rhsMax =  -7.61325681232275E+01  1.43496821175778E+00
(PID.TID 0000.0001)  ploadbar=  1.01057376340859E+05
 cg2d: Sum(rhs),rhsMax =  -7.62037254054363E+01  1.43299530966457E+00
(PID.TID 0000.0001)  ploadbar=  1.01057324000264E+05
 cg2d: Sum(rhs),rhsMax =  -7.63081011439548E+01  1.43038254251876E+00
(PID.TID 0000.0001)  ploadbar=  1.01057271659669E+05
 cg2d: Sum(rhs),rhsMax =  -7.63791279186062E+01  1.42841249373550E+00
(PID.TID 0000.0001)  ploadbar=  1.01057496868366E+05
 cg2d: Sum(rhs),rhsMax =  -7.60822371212695E+01  1.43335309955460E+00
(PID.TID 0000.0001)  ploadbar=  1.01057722077062E+05
 cg2d: Sum(rhs),rhsMax =  -7.58705107709883E+01  1.43672415452292E+00
(PID.TID 0000.0001)  ploadbar=  1.01057947285758E+05
 cg2d: Sum(rhs),rhsMax =  -7.58402919055556E+01  1.43666900402576E+00
(PID.TID 0000.0001)  ploadbar=  1.01058172494454E+05
 cg2d: Sum(rhs),rhsMax =  -7.57747327935493E+01  1.43727921031392E+00
(PID.TID 0000.0001)  ploadbar=  1.01058397703150E+05
 cg2d: Sum(rhs),rhsMax =  -7.58973222303463E+01  1.43431565836825E+00
(PID.TID 0000.0001)  ploadbar=  1.01058622911846E+05
 cg2d: Sum(rhs),rhsMax =  -7.60354370900898E+01  1.43103451515913E+00
(PID.TID 0000.0001)  ploadbar=  1.01058934046051E+05
 cg2d: Sum(rhs),rhsMax =  -7.61199287000395E+01  1.42873383095922E+00
(PID.TID 0000.0001)  ploadbar=  1.01059245180256E+05
 cg2d: Sum(rhs),rhsMax =  -7.61892577382646E+01  1.42668234206661E+00
(PID.TID 0000.0001)  ploadbar=  1.01059556314461E+05
 cg2d: Sum(rhs),rhsMax =  -7.62435326004929E+01  1.42487055042680E+00
(PID.TID 0000.0001)  ploadbar=  1.01059867448665E+05
 cg2d: Sum(rhs),rhsMax =  -7.61563165428624E+01  1.42565209024899E+00
(PID.TID 0000.0001)  ploadbar=  1.01060178582870E+05
 cg2d: Sum(rhs),rhsMax =  -7.61757772124171E+01  1.42437939684213E+00
(PID.TID 0000.0001)  ploadbar=  1.01060489717075E+05
 cg2d: Sum(rhs),rhsMax =  -7.59044730419841E+01  1.42857542318569E+00
(PID.TID 0000.0001)  ploadbar=  1.01061365889884E+05
 cg2d: Sum(rhs),rhsMax =  -7.58099104286848E+01  1.42947306655526E+00
(PID.TID 0000.0001)  ploadbar=  1.01062242062693E+05
 cg2d: Sum(rhs),rhsMax =  -7.61178165956103E+01  1.42281885512499E+00
(PID.TID 0000.0001)  ploadbar=  1.01063118235502E+05
 cg2d: Sum(rhs),rhsMax =  -7.64203840769056E+01  1.41632184018271E+00
(PID.TID 0000.0001)  ploadbar=  1.01063994408311E+05
 cg2d: Sum(rhs),rhsMax =  -7.67203099455820E+01  1.40992561688723E+00
(PID.TID 0000.0001)  ploadbar=  1.01064870581120E+05
 cg2d: Sum(rhs),rhsMax =  -7.70273666558278E+01  1.40344775036095E+00
(PID.TID 0000.0001)  ploadbar=  1.01065746753929E+05
 cg2d: Sum(rhs),rhsMax =  -7.74136988560015E+01  1.39560322557781E+00
(PID.TID 0000.0001)  ploadbar=  1.01066322470980E+05
 cg2d: Sum(rhs),rhsMax =  -7.78162669653490E+01  1.38755594556645E+00
(PID.TID 0000.0001)  ploadbar=  1.01066898188031E+05
 cg2d: Sum(rhs),rhsMax =  -7.82335290687824E+01  1.37933927991976E+00
(PID.TID 0000.0001)  ploadbar=  1.01067473905082E+05
 cg2d: Sum(rhs),rhsMax =  -7.86660055073981E+01  1.37095066641470E+00
(PID.TID 0000.0001)  ploadbar=  1.01068049622134E+05
 cg2d: Sum(rhs),rhsMax =  -7.89842038734674E+01  1.36463135179336E+00
(PID.TID 0000.0001)  ploadbar=  1.01068625339185E+05
 cg2d: Sum(rhs),rhsMax =  -7.92366784194561E+01  1.35949450509694E+00
(PID.TID 0000.0001)  ploadbar=  1.01069201056236E+05
 cg2d: Sum(rhs),rhsMax =  -7.94491141535858E+01  1.35513051275855E+00
(PID.TID 0000.0001)  ploadbar=  1.01068503020724E+05
 cg2d: Sum(rhs),rhsMax =  -7.96261435056753E+01  1.35144458755255E+00
(PID.TID 0000.0001)  ploadbar=  1.01067804985212E+05
 cg2d: Sum(rhs),rhsMax =  -7.97863976954299E+01  1.34810718609797E+00
(PID.TID 0000.0001)  ploadbar=  1.01067106949701E+05
 cg2d: Sum(rhs),rhsMax =  -7.99421567919517E+01  1.34490283165607E+00
(PID.TID 0000.0001)  ploadbar=  1.01066408914189E+05
 cg2d: Sum(rhs),rhsMax =  -8.00900079691611E+01  1.34188234163423E+00
(PID.TID 0000.0001)  ploadbar=  1.01065710878677E+05
 cg2d: Sum(rhs),rhsMax =  -8.02800638072690E+01  1.33820423967402E+00
(PID.TID 0000.0001)  ploadbar=  1.01065012843166E+05
 cg2d: Sum(rhs),rhsMax =  -8.03970143634199E+01  1.33571592630174E+00
(PID.TID 0000.0001)  ploadbar=  1.01065579141623E+05
 cg2d: Sum(rhs),rhsMax =  -8.05325138134812E+01  1.33288453066692E+00
(PID.TID 0000.0001)  ploadbar=  1.01066145440080E+05
 cg2d: Sum(rhs),rhsMax =  -8.06858651888447E+01  1.32972042850670E+00
(PID.TID 0000.0001)  ploadbar=  1.01066711738537E+05
 cg2d: Sum(rhs),rhsMax =  -8.08541095330602E+01  1.32626930478730E+00
(PID.TID 0000.0001)  ploadbar=  1.01067278036994E+05
 cg2d: Sum(rhs),rhsMax =  -8.10324114966667E+01  1.32260624045212E+00
(PID.TID 0000.0001)  ploadbar=  1.01067844335451E+05
 cg2d: Sum(rhs),rhsMax =  -8.12138957331301E+01  1.31883982954920E+00
(PID.TID 0000.0001)  ploadbar=  1.01068410633908E+05
 cg2d: Sum(rhs),rhsMax =  -8.13229206206478E+01  1.31631359386965E+00
(PID.TID 0000.0001)  ploadbar=  1.01069754451575E+05
 cg2d: Sum(rhs),rhsMax =  -8.15373119988514E+01  1.31214357729776E+00
(PID.TID 0000.0001)  ploadbar=  1.01071098269242E+05
 cg2d: Sum(rhs),rhsMax =  -8.17291218253643E+01  1.30839982599561E+00
(PID.TID 0000.0001)  ploadbar=  1.01072442086909E+05
 cg2d: Sum(rhs),rhsMax =  -8.19004901771180E+01  1.30503969902085E+00
(PID.TID 0000.0001)  ploadbar=  1.01073785904577E+05
 cg2d: Sum(rhs),rhsMax =  -8.20594135696988E+01  1.30192590933903E+00
(PID.TID 0000.0001)  ploadbar=  1.01075129722244E+05
 cg2d: Sum(rhs),rhsMax =  -8.22105231485047E+01  1.29897537992127E+00
(PID.TID 0000.0001)  ploadbar=  1.01076473539911E+05
 cg2d: Sum(rhs),rhsMax =  -8.23523232790475E+01  1.29621766771071E+00
(PID.TID 0000.0001)  ploadbar=  1.01076271380659E+05
 cg2d: Sum(rhs),rhsMax =  -8.24836056420971E+01  1.29366771592055E+00
(PID.TID 0000.0001)  ploadbar=  1.01076069221407E+05
 cg2d: Sum(rhs),rhsMax =  -8.26047347488961E+01  1.29131652525010E+00
(PID.TID 0000.0001)  ploadbar=  1.01075867062156E+05
 cg2d: Sum(rhs),rhsMax =  -8.27127196081877E+01  1.28920666364936E+00
(PID.TID 0000.0001)  ploadbar=  1.01075664902904E+05
 cg2d: Sum(rhs),rhsMax =  -8.28037486052986E+01  1.28739265144368E+00
(PID.TID 0000.0001)  ploadbar=  1.01075462743652E+05
 cg2d: Sum(rhs),rhsMax =  -8.28735086521822E+01  1.28593816976053E+00
(PID.TID 0000.0001)  ploadbar=  1.01075260584401E+05
 cg2d: Sum(rhs),rhsMax =  -8.28969288339173E+01  1.28523119094906E+00
(PID.TID 0000.0001)  ploadbar=  1.01074254091532E+05
 cg2d: Sum(rhs),rhsMax =  -8.28936688011411E+01  1.28496192673278E+00
(PID.TID 0000.0001)  ploadbar=  1.01073247598663E+05
 cg2d: Sum(rhs),rhsMax =  -8.28683723708598E+01  1.28505599337102E+00
(PID.TID 0000.0001)  ploadbar=  1.01072241105795E+05
 cg2d: Sum(rhs),rhsMax =  -8.28204600145396E+01  1.28551999881646E+00
(PID.TID 0000.0001)  ploadbar=  1.01071234612926E+05
 cg2d: Sum(rhs),rhsMax =  -8.27501594526681E+01  1.28634651822886E+00
(PID.TID 0000.0001)  ploadbar=  1.01070228120057E+05
 cg2d: Sum(rhs),rhsMax =  -8.26387396075184E+01  1.28782654639167E+00
(PID.TID 0000.0001)  ploadbar=  1.01069221627189E+05
 cg2d: Sum(rhs),rhsMax =  -8.25279566314992E+01  1.28929593730675E+00
(PID.TID 0000.0001)  ploadbar=  1.01068798223003E+05
 cg2d: Sum(rhs),rhsMax =  -8.24233101906018E+01  1.29066732160303E+00
(PID.TID 0000.0001)  ploadbar=  1.01068374818817E+05
 cg2d: Sum(rhs),rhsMax =  -8.23025129175852E+01  1.29228762261418E+00
(PID.TID 0000.0001)  ploadbar=  1.01067951414631E+05
 cg2d: Sum(rhs),rhsMax =  -8.21641096110156E+01  1.29417681732001E+00
(PID.TID 0000.0001)  ploadbar=  1.01067528010444E+05
 cg2d: Sum(rhs),rhsMax =  -8.20022760150101E+01  1.29642301904308E+00
(PID.TID 0000.0001)  ploadbar=  1.01067104606258E+05
 cg2d: Sum(rhs),rhsMax =  -8.18092927093662E+01  1.29914782010139E+00
(PID.TID 0000.0001)  ploadbar=  1.01066681202072E+05
 cg2d: Sum(rhs),rhsMax =  -8.15833821196111E+01  1.30243600411386E+00
(PID.TID 0000.0001)  ploadbar=  1.01065163704410E+05
 cg2d: Sum(rhs),rhsMax =  -8.15132123851639E+01  1.30326656326265E+00
(PID.TID 0000.0001)  ploadbar=  1.01063646206747E+05
 cg2d: Sum(rhs),rhsMax =  -8.14144566124404E+01  1.30457354146766E+00
(PID.TID 0000.0001)  ploadbar=  1.01062128709085E+05
 cg2d: Sum(rhs),rhsMax =  -8.13065156928025E+01  1.30604488128810E+00
(PID.TID 0000.0001)  ploadbar=  1.01060611211422E+05
 cg2d: Sum(rhs),rhsMax =  -8.11954700045628E+01  1.30757961543196E+00
(PID.TID 0000.0001)  ploadbar=  1.01059093713760E+05
 cg2d: Sum(rhs),rhsMax =  -8.10864978708006E+01  1.30908978485184E+00
(PID.TID 0000.0001)  ploadbar=  1.01057576216098E+05
 cg2d: Sum(rhs),rhsMax =  -8.10024125361456E+01  1.31020202601965E+00
(PID.TID 0000.0001)  ploadbar=  1.01057825060987E+05
 cg2d: Sum(rhs),rhsMax =  -8.09374106255837E+01  1.31100314074414E+00
(PID.TID 0000.0001)  ploadbar=  1.01058073905877E+05
 cg2d: Sum(rhs),rhsMax =  -8.08863064861077E+01  1.31157331860247E+00
(PID.TID 0000.0001)  ploadbar=  1.01058322750767E+05
 cg2d: Sum(rhs),rhsMax =  -8.08417048517290E+01  1.31202896215975E+00
(PID.TID 0000.0001)  ploadbar=  1.01058571595656E+05
 cg2d: Sum(rhs),rhsMax =  -8.07951237283459E+01  1.31250453675643E+00
(PID.TID 0000.0001)  ploadbar=  1.01058820440546E+05
 cg2d: Sum(rhs),rhsMax =  -8.07377910652112E+01  1.31314379982989E+00
(PID.TID 0000.0001)  ploadbar=  1.01059069285436E+05
 cg2d: Sum(rhs),rhsMax =  -8.06681239381104E+01  1.31399472892470E+00
(PID.TID 0000.0001)  ploadbar=  1.01059468948495E+05
 cg2d: Sum(rhs),rhsMax =  -8.05996698095216E+01  1.31483458243616E+00
(PID.TID 0000.0001)  ploadbar=  1.01059868611554E+05
 cg2d: Sum(rhs),rhsMax =  -8.05418711991862E+01  1.31550555353069E+00
(PID.TID 0000.0001)  ploadbar=  1.01060268274613E+05
 cg2d: Sum(rhs),rhsMax =  -8.05133131564049E+01  1.31569929468213E+00
(PID.TID 0000.0001)  ploadbar=  1.01060667937673E+05
 cg2d: Sum(rhs),rhsMax =  -8.04847974208454E+01  1.31588559045430E+00
(PID.TID 0000.0001)  ploadbar=  1.01061067600732E+05
 cg2d: Sum(rhs),rhsMax =  -8.05262977175732E+01  1.31491576431583E+00
(PID.TID 0000.0001)  ploadbar=  1.01061467263791E+05
 cg2d: Sum(rhs),rhsMax =  -8.05568516051599E+01  1.31409672446007E+00
(PID.TID 0000.0001)  ploadbar=  1.01060064957541E+05
 cg2d: Sum(rhs),rhsMax =  -8.05857744421355E+01  1.31327298627169E+00
(PID.TID 0000.0001)  ploadbar=  1.01058662651292E+05
 cg2d: Sum(rhs),rhsMax =  -8.05991502336461E+01  1.31266898673886E+00
(PID.TID 0000.0001)  ploadbar=  1.01057260345042E+05
 cg2d: Sum(rhs),rhsMax =  -8.07183017088205E+01  1.31030536242044E+00
(PID.TID 0000.0001)  ploadbar=  1.01055858038793E+05
 cg2d: Sum(rhs),rhsMax =  -8.08159185486062E+01  1.30824785085737E+00
(PID.TID 0000.0001)  ploadbar=  1.01054455732543E+05
 cg2d: Sum(rhs),rhsMax =  -8.08430684056972E+01  1.30728021874946E+00
(PID.TID 0000.0001)  ploadbar=  1.01053053426294E+05
 cg2d: Sum(rhs),rhsMax =  -8.08291907199566E+01  1.30702432815857E+00
(PID.TID 0000.0001)  ploadbar=  1.01051635466751E+05
 cg2d: Sum(rhs),rhsMax =  -8.08038312667018E+01  1.30699756843845E+00
(PID.TID 0000.0001)  ploadbar=  1.01050217507208E+05
 cg2d: Sum(rhs),rhsMax =  -8.07661627593848E+01  1.30721173924326E+00
(PID.TID 0000.0001)  ploadbar=  1.01048799547666E+05
 cg2d: Sum(rhs),rhsMax =  -8.07215742249207E+01  1.30757762165567E+00
(PID.TID 0000.0001)  ploadbar=  1.01047381588123E+05
 cg2d: Sum(rhs),rhsMax =  -8.07540021583237E+01  1.30672991493599E+00
(PID.TID 0000.0001)  ploadbar=  1.01045963628580E+05
 cg2d: Sum(rhs),rhsMax =  -8.08315115945079E+01  1.30518722993266E+00
(PID.TID 0000.0001)  ploadbar=  1.01044545669038E+05
 cg2d: Sum(rhs),rhsMax =  -8.09013839863048E+01  1.30377988866186E+00
(PID.TID 0000.0001)  ploadbar=  1.01044066425975E+05
 cg2d: Sum(rhs),rhsMax =  -8.09154844563548E+01  1.30327805809779E+00
(PID.TID 0000.0001)  ploadbar=  1.01043587182913E+05
 cg2d: Sum(rhs),rhsMax =  -8.08292343858675E+01  1.30439542217008E+00
(PID.TID 0000.0001)  ploadbar=  1.01043107939850E+05
 cg2d: Sum(rhs),rhsMax =  -8.06718865977539E+01  1.30666386780561E+00
(PID.TID 0000.0001)  ploadbar=  1.01042628696788E+05
 cg2d: Sum(rhs),rhsMax =  -8.04838996610055E+01  1.30943672543658E+00
(PID.TID 0000.0001)  ploadbar=  1.01042149453725E+05
 cg2d: Sum(rhs),rhsMax =  -8.03947618830414E+01  1.31060185808846E+00
(PID.TID 0000.0001)  ploadbar=  1.01041670210663E+05
 cg2d: Sum(rhs),rhsMax =  -8.02637826485181E+01  1.31247872297984E+00
(PID.TID 0000.0001)  ploadbar=  1.01041686990095E+05
 cg2d: Sum(rhs),rhsMax =  -8.01014947592720E+01  1.31489718227284E+00
(PID.TID 0000.0001)  ploadbar=  1.01041703769527E+05
 cg2d: Sum(rhs),rhsMax =  -7.99643292030362E+01  1.31693133541402E+00
(PID.TID 0000.0001)  ploadbar=  1.01041720548960E+05
 cg2d: Sum(rhs),rhsMax =  -7.98819730215799E+01  1.31808153223003E+00
(PID.TID 0000.0001)  ploadbar=  1.01041737328392E+05
 cg2d: Sum(rhs),rhsMax =  -7.98755919521788E+01  1.31798607372078E+00
(PID.TID 0000.0001)  ploadbar=  1.01041754107825E+05
 cg2d: Sum(rhs),rhsMax =  -8.00248408989385E+01  1.31532641656449E+00
(PID.TID 0000.0001)  ploadbar=  1.01041770887257E+05
 cg2d: Sum(rhs),rhsMax =  -8.02712630823302E+01  1.31104988937637E+00
(PID.TID 0000.0001)  ploadbar=  1.01042964656445E+05
 cg2d: Sum(rhs),rhsMax =  -8.05507788940871E+01  1.30622055905120E+00
(PID.TID 0000.0001)  ploadbar=  1.01044158425632E+05
 cg2d: Sum(rhs),rhsMax =  -8.08560332125186E+01  1.30096428306607E+00
(PID.TID 0000.0001)  ploadbar=  1.01045352194819E+05
 cg2d: Sum(rhs),rhsMax =  -8.11795845322570E+01  1.29540613938457E+00
(PID.TID 0000.0001)  ploadbar=  1.01046545964007E+05
 cg2d: Sum(rhs),rhsMax =  -8.15279383538141E+01  1.28944593828530E+00
(PID.TID 0000.0001)  ploadbar=  1.01047739733194E+05
 cg2d: Sum(rhs),rhsMax =  -8.19049952048849E+01  1.28302874369019E+00
(PID.TID 0000.0001)  ploadbar=  1.01048933502381E+05
 cg2d: Sum(rhs),rhsMax =  -8.20489259967037E+01  1.28033712203989E+00
(PID.TID 0000.0001)  ploadbar=  1.01050796568339E+05
 cg2d: Sum(rhs),rhsMax =  -8.20982531311074E+01  1.27916417944061E+00
(PID.TID 0000.0001)  ploadbar=  1.01052659634297E+05
 cg2d: Sum(rhs),rhsMax =  -8.21318268172819E+01  1.27827202277706E+00
(PID.TID 0000.0001)  ploadbar=  1.01054522700256E+05
 cg2d: Sum(rhs),rhsMax =  -8.21640822913524E+01  1.27743212117351E+00
(PID.TID 0000.0001)  ploadbar=  1.01056385766214E+05
 cg2d: Sum(rhs),rhsMax =  -8.22077324633629E+01  1.27644040991084E+00
(PID.TID 0000.0001)  ploadbar=  1.01058248832172E+05
 cg2d: Sum(rhs),rhsMax =  -8.22723718123455E+01  1.27514284428812E+00
(PID.TID 0000.0001)  ploadbar=  1.01060111898130E+05
 cg2d: Sum(rhs),rhsMax =  -8.24262852359506E+01  1.27248520584702E+00
(PID.TID 0000.0001)  ploadbar=  1.01061742330815E+05
 cg2d: Sum(rhs),rhsMax =  -8.23592465512053E+01  1.27325656251017E+00
(PID.TID 0000.0001)  ploadbar=  1.01063372763500E+05
 cg2d: Sum(rhs),rhsMax =  -8.20627153076980E+01  1.27760168790768E+00
(PID.TID 0000.0001)  ploadbar=  1.01065003196185E+05
 cg2d: Sum(rhs),rhsMax =  -8.17944498234459E+01  1.28154117287952E+00
(PID.TID 0000.0001)  ploadbar=  1.01066633628870E+05
 cg2d: Sum(rhs),rhsMax =  -8.15495544266408E+01  1.28513957210774E+00
(PID.TID 0000.0001)  ploadbar=  1.01068264061555E+05
 cg2d: Sum(rhs),rhsMax =  -8.13259078512332E+01  1.28842101221700E+00
(PID.TID 0000.0001)  ploadbar=  1.01069894494240E+05
 cg2d: Sum(rhs),rhsMax =  -8.11493022908567E+01  1.29099483431956E+00
(PID.TID 0000.0001)  ploadbar=  1.01070321501862E+05
 cg2d: Sum(rhs),rhsMax =  -8.09913293199397E+01  1.29330104144100E+00
(PID.TID 0000.0001)  ploadbar=  1.01070748509484E+05
 cg2d: Sum(rhs),rhsMax =  -8.08441981441362E+01  1.29545848902896E+00
(PID.TID 0000.0001)  ploadbar=  1.01071175517106E+05
 cg2d: Sum(rhs),rhsMax =  -8.06925143643404E+01  1.29770475016902E+00
(PID.TID 0000.0001)  ploadbar=  1.01071602524728E+05
 cg2d: Sum(rhs),rhsMax =  -8.05235601830861E+01  1.30023761456411E+00
(PID.TID 0000.0001)  ploadbar=  1.01072029532350E+05
 cg2d: Sum(rhs),rhsMax =  -8.03312582228085E+01  1.30315629386838E+00
(PID.TID 0000.0001)  ploadbar=  1.01072456539972E+05
 cg2d: Sum(rhs),rhsMax =  -8.00511497642886E+01  1.30748843388084E+00
(PID.TID 0000.0001)  ploadbar=  1.01073729460970E+05
 cg2d: Sum(rhs),rhsMax =  -7.97508793715097E+01  1.31214301067812E+00
(PID.TID 0000.0001)  ploadbar=  1.01075002381969E+05
 cg2d: Sum(rhs),rhsMax =  -7.94161232061325E+01  1.31736066340741E+00
(PID.TID 0000.0001)  ploadbar=  1.01076275302967E+05
 cg2d: Sum(rhs),rhsMax =  -7.90402968605358E+01  1.32326390923958E+00
(PID.TID 0000.0001)  ploadbar=  1.01077548223966E+05
 cg2d: Sum(rhs),rhsMax =  -7.86196723455539E+01  1.32992895751617E+00
(PID.TID 0000.0001)  ploadbar=  1.01078821144964E+05
 cg2d: Sum(rhs),rhsMax =  -7.81502747211554E+01  1.33744264531365E+00
(PID.TID 0000.0001)  ploadbar=  1.01080094065963E+05
 cg2d: Sum(rhs),rhsMax =  -7.76854656344518E+01  1.34499774529944E+00
(PID.TID 0000.0001)  ploadbar=  1.01080066865373E+05
 cg2d: Sum(rhs),rhsMax =  -7.71905884170235E+01  1.35319970054962E+00
(PID.TID 0000.0001)  ploadbar=  1.01080039664782E+05
 cg2d: Sum(rhs),rhsMax =  -7.66589847770852E+01  1.36218553253636E+00
(PID.TID 0000.0001)  ploadbar=  1.01080012464192E+05
 cg2d: Sum(rhs),rhsMax =  -7.61034733099234E+01  1.37174788889527E+00
(PID.TID 0000.0001)  ploadbar=  1.01079985263602E+05
 cg2d: Sum(rhs),rhsMax =  -7.55348547798274E+01  1.38170285160807E+00
(PID.TID 0000.0001)  ploadbar=  1.01079958063012E+05
 cg2d: Sum(rhs),rhsMax =  -7.49624329202388E+01  1.39188623166713E+00
(PID.TID 0000.0001)  ploadbar=  1.01079930862422E+05
 cg2d: Sum(rhs),rhsMax =  -7.43904989550400E+01  1.40221587663642E+00
(PID.TID 0000.0001)  ploadbar=  1.01079400343692E+05
 cg2d: Sum(rhs),rhsMax =  -7.38039857143331E+01  1.41297782719795E+00
(PID.TID 0000.0001)  ploadbar=  1.01078869824963E+05
 cg2d: Sum(rhs),rhsMax =  -7.31990021503760E+01  1.42425893723469E+00
(PID.TID 0000.0001)  ploadbar=  1.01078339306233E+05
 cg2d: Sum(rhs),rhsMax =  -7.25748849316830E+01  1.43609091101347E+00
(PID.TID 0000.0001)  ploadbar=  1.01077808787504E+05
 cg2d: Sum(rhs),rhsMax =  -7.19306911224849E+01  1.44851234528238E+00
(PID.TID 0000.0001)  ploadbar=  1.01077278268774E+05
 cg2d: Sum(rhs),rhsMax =  -7.12651432447895E+01  1.46157258341552E+00
(PID.TID 0000.0001)  ploadbar=  1.01076747750045E+05
 cg2d: Sum(rhs),rhsMax =  -7.05748016251887E+01  1.47545927784524E+00
(PID.TID 0000.0001)  ploadbar=  1.01076482304981E+05
 cg2d: Sum(rhs),rhsMax =  -6.98795966737068E+01  1.48978605470572E+00
(PID.TID 0000.0001)  ploadbar=  1.01076216859916E+05
 cg2d: Sum(rhs),rhsMax =  -6.91900221901889E+01  1.50433833437288E+00
(PID.TID 0000.0001)  ploadbar=  1.01075951414852E+05
 cg2d: Sum(rhs),rhsMax =  -6.85169569438019E+01  1.51887305727285E+00
(PID.TID 0000.0001)  ploadbar=  1.01075685969788E+05
 cg2d: Sum(rhs),rhsMax =  -6.78710793723949E+01  1.53313394862370E+00
(PID.TID 0000.0001)  ploadbar=  1.01075420524724E+05
 cg2d: Sum(rhs),rhsMax =  -6.72624676447726E+01  1.54685844441295E+00
(PID.TID 0000.0001)  ploadbar=  1.01075155079660E+05
 cg2d: Sum(rhs),rhsMax =  -6.66899677976065E+01  1.55994349761212E+00
(PID.TID 0000.0001)  ploadbar=  1.01074560683551E+05
 cg2d: Sum(rhs),rhsMax =  -6.61482738098764E+01  1.57246899818321E+00
(PID.TID 0000.0001)  ploadbar=  1.01073966287441E+05
 cg2d: Sum(rhs),rhsMax =  -6.56385653834794E+01  1.58436804084467E+00
(PID.TID 0000.0001)  ploadbar=  1.01073371891332E+05
 cg2d: Sum(rhs),rhsMax =  -6.51684863347217E+01  1.59541492202230E+00
(PID.TID 0000.0001)  ploadbar=  1.01072777495223E+05
 cg2d: Sum(rhs),rhsMax =  -6.47419591100059E+01  1.60546912666176E+00
(PID.TID 0000.0001)  ploadbar=  1.01072183099114E+05
 cg2d: Sum(rhs),rhsMax =  -6.43606290118323E+01  1.61444458827147E+00
(PID.TID 0000.0001)  ploadbar=  1.01071588703005E+05
 cg2d: Sum(rhs),rhsMax =  -6.40286272222289E+01  1.62231727956609E+00
(PID.TID 0000.0001)  ploadbar=  1.01070485035033E+05
 cg2d: Sum(rhs),rhsMax =  -6.37450944098701E+01  1.62906930096470E+00
(PID.TID 0000.0001)  ploadbar=  1.01069381367061E+05
 cg2d: Sum(rhs),rhsMax =  -6.35132168820566E+01  1.63457911459923E+00
(PID.TID 0000.0001)  ploadbar=  1.01068277699090E+05
 cg2d: Sum(rhs),rhsMax =  -6.33326678819297E+01  1.63882479309169E+00
(PID.TID 0000.0001)  ploadbar=  1.01067174031118E+05
 cg2d: Sum(rhs),rhsMax =  -6.31977973399589E+01  1.64192561419875E+00
(PID.TID 0000.0001)  ploadbar=  1.01066070363146E+05
 cg2d: Sum(rhs),rhsMax =  -6.31009491873646E+01  1.64406136631706E+00
(PID.TID 0000.0001)  ploadbar=  1.01064966695175E+05
 cg2d: Sum(rhs),rhsMax =  -6.30392324671925E+01  1.64530205459297E+00
(PID.TID 0000.0001)  ploadbar=  1.01064870717161E+05
 cg2d: Sum(rhs),rhsMax =  -6.30036731924723E+01  1.64587186377084E+00
(PID.TID 0000.0001)  ploadbar=  1.01064774739148E+05
 cg2d: Sum(rhs),rhsMax =  -6.29959242784643E+01  1.64571913655958E+00
(PID.TID 0000.0001)  ploadbar=  1.01064678761135E+05
 cg2d: Sum(rhs),rhsMax =  -6.30131418725975E+01  1.64491483640868E+00
(PID.TID 0000.0001)  ploadbar=  1.01064582783122E+05
 cg2d: Sum(rhs),rhsMax =  -6.30505133938763E+01  1.64358105075280E+00
(PID.TID 0000.0001)  ploadbar=  1.01064486805108E+05
 cg2d: Sum(rhs),rhsMax =  -6.31058923540506E+01  1.64177439669159E+00
(PID.TID 0000.0001)  ploadbar=  1.01064390827095E+05
 cg2d: Sum(rhs),rhsMax =  -6.31776957635858E+01  1.63957232237996E+00
(PID.TID 0000.0001)  ploadbar=  1.01064498451587E+05
 cg2d: Sum(rhs),rhsMax =  -6.32587881412854E+01  1.63715796075013E+00
(PID.TID 0000.0001)  ploadbar=  1.01064606076078E+05
 cg2d: Sum(rhs),rhsMax =  -6.33533871021070E+01  1.63441943941977E+00
(PID.TID 0000.0001)  ploadbar=  1.01064713700570E+05
 cg2d: Sum(rhs),rhsMax =  -6.34551460982652E+01  1.63151300044243E+00
(PID.TID 0000.0001)  ploadbar=  1.01064821325061E+05
 cg2d: Sum(rhs),rhsMax =  -6.35577506383174E+01  1.62859321555573E+00
(PID.TID 0000.0001)  ploadbar=  1.01064928949553E+05
 cg2d: Sum(rhs),rhsMax =  -6.36566548178867E+01  1.62576688229240E+00
(PID.TID 0000.0001)  ploadbar=  1.01065036574044E+05
 cg2d: Sum(rhs),rhsMax =  -6.37414616348684E+01  1.62322702336380E+00
(PID.TID 0000.0001)  ploadbar=  1.01065396407990E+05
 cg2d: Sum(rhs),rhsMax =  -6.38186156353908E+01  1.62080109606904E+00
(PID.TID 0000.0001)  ploadbar=  1.01065756241936E+05
 cg2d: Sum(rhs),rhsMax =  -6.38839714697405E+01  1.61858860859644E+00
(PID.TID 0000.0001)  ploadbar=  1.01066116075882E+05
 cg2d: Sum(rhs),rhsMax =  -6.39330442717953E+01  1.61669375515699E+00
(PID.TID 0000.0001)  ploadbar=  1.01066475909828E+05
 cg2d: Sum(rhs),rhsMax =  -6.39656639046335E+01  1.61511613858719E+00
(PID.TID 0000.0001)  ploadbar=  1.01066835743774E+05
 cg2d: Sum(rhs),rhsMax =  -6.39826102481122E+01  1.61382724520811E+00
(PID.TID 0000.0001)  ploadbar=  1.01067195577720E+05
 cg2d: Sum(rhs),rhsMax =  -6.40170466414521E+01  1.61217065884537E+00
(PID.TID 0000.0001)  ploadbar=  1.01067726597111E+05
 cg2d: Sum(rhs),rhsMax =  -6.40543256171633E+01  1.61051307696383E+00
(PID.TID 0000.0001)  ploadbar=  1.01068257616503E+05
 cg2d: Sum(rhs),rhsMax =  -6.40912694725062E+01  1.60892703564449E+00
(PID.TID 0000.0001)  ploadbar=  1.01068788635894E+05
 cg2d: Sum(rhs),rhsMax =  -6.41299431412378E+01  1.60735266540384E+00
(PID.TID 0000.0001)  ploadbar=  1.01069319655285E+05
 cg2d: Sum(rhs),rhsMax =  -6.41704419941939E+01  1.60577857538115E+00
(PID.TID 0000.0001)  ploadbar=  1.01069850674676E+05
 cg2d: Sum(rhs),rhsMax =  -6.42148513875396E+01  1.60414494478478E+00
(PID.TID 0000.0001)  ploadbar=  1.01070381694067E+05
 cg2d: Sum(rhs),rhsMax =  -6.42554832706092E+01  1.60260076921904E+00
(PID.TID 0000.0001)  ploadbar=  1.01070616515185E+05
 cg2d: Sum(rhs),rhsMax =  -6.43010269075762E+01  1.60091866292853E+00
(PID.TID 0000.0001)  ploadbar=  1.01070851336303E+05
 cg2d: Sum(rhs),rhsMax =  -6.43458819067685E+01  1.59923198069614E+00
(PID.TID 0000.0001)  ploadbar=  1.01071086157421E+05
 cg2d: Sum(rhs),rhsMax =  -6.43882077820465E+01  1.59758302997507E+00
(PID.TID 0000.0001)  ploadbar=  1.01071320978539E+05
 cg2d: Sum(rhs),rhsMax =  -6.44303364117423E+01  1.59591027976389E+00
(PID.TID 0000.0001)  ploadbar=  1.01071555799657E+05
 cg2d: Sum(rhs),rhsMax =  -6.37046384481960E+01  1.61342331966887E+00
(PID.TID 0000.0001)  ploadbar=  1.01071790620775E+05
 cg2d: Sum(rhs),rhsMax =  -6.24723724388089E+01  1.64459691186084E+00
(PID.TID 0000.0001)  ploadbar=  1.01072157285476E+05
 cg2d: Sum(rhs),rhsMax =  -6.11928496837220E+01  1.67834303477719E+00
(PID.TID 0000.0001)  ploadbar=  1.01072523950178E+05
 cg2d: Sum(rhs),rhsMax =  -5.98606301810296E+01  1.71505694329658E+00
(PID.TID 0000.0001)  ploadbar=  1.01072890614880E+05
 cg2d: Sum(rhs),rhsMax =  -5.84279171718566E+01  1.75646951783383E+00
(PID.TID 0000.0001)  ploadbar=  1.01073257279581E+05
 cg2d: Sum(rhs),rhsMax =  -5.68870185294608E+01  1.80338994652312E+00
(PID.TID 0000.0001)  ploadbar=  1.01073623944283E+05
 cg2d: Sum(rhs),rhsMax =  -5.52613739896466E+01  1.85575667366337E+00
(PID.TID 0000.0001)  ploadbar=  1.01073990608985E+05
 cg2d: Sum(rhs),rhsMax =  -5.37613964649850E+01  1.90680457161800E+00
(PID.TID 0000.0001)  ploadbar=  1.01074588390674E+05
 cg2d: Sum(rhs),rhsMax =  -5.23005759115557E+01  1.95928326909008E+00
(PID.TID 0000.0001)  ploadbar=  1.01075186172363E+05
 cg2d: Sum(rhs),rhsMax =  -5.08857064323683E+01  2.01292052392388E+00
(PID.TID 0000.0001)  ploadbar=  1.01075783954053E+05
 cg2d: Sum(rhs),rhsMax =  -4.95568224389896E+01  2.06599170637771E+00
(PID.TID 0000.0001)  ploadbar=  1.01076381735742E+05
 cg2d: Sum(rhs),rhsMax =  -4.84823294978772E+01  2.11079941198715E+00
(PID.TID 0000.0001)  ploadbar=  1.01076979517431E+05
 cg2d: Sum(rhs),rhsMax =  -4.78421014200674E+01  2.13799182702117E+00
(PID.TID 0000.0001)  ploadbar=  1.01077577299121E+05
 cg2d: Sum(rhs),rhsMax =  -4.73509521609832E+01  2.15918459854977E+00
(PID.TID 0000.0001)  ploadbar=  1.01079120518597E+05
 cg2d: Sum(rhs),rhsMax =  -4.68588763652638E+01  2.18093941218670E+00
(PID.TID 0000.0001)  ploadbar=  1.01080663738074E+05
 cg2d: Sum(rhs),rhsMax =  -4.62793165032922E+01  2.20738550728978E+00
(PID.TID 0000.0001)  ploadbar=  1.01082206957551E+05
 cg2d: Sum(rhs),rhsMax =  -4.55973390233430E+01  2.23957642415078E+00
(PID.TID 0000.0001)  ploadbar=  1.01083750177028E+05
 cg2d: Sum(rhs),rhsMax =  -4.48394698492829E+01  2.27663749911315E+00
(PID.TID 0000.0001)  ploadbar=  1.01085293396505E+05
 cg2d: Sum(rhs),rhsMax =  -4.40822187062625E+01  2.31497686076435E+00
(PID.TID 0000.0001)  ploadbar=  1.01086836615981E+05
 cg2d: Sum(rhs),rhsMax =  -4.33552838711433E+01  2.35296157596870E+00
(PID.TID 0000.0001)  ploadbar=  1.01087362639198E+05
 cg2d: Sum(rhs),rhsMax =  -4.27505058278506E+01  2.38534562125672E+00
(PID.TID 0000.0001)  ploadbar=  1.01087888662415E+05
 cg2d: Sum(rhs),rhsMax =  -4.22912667520117E+01  2.41026657960002E+00
(PID.TID 0000.0001)  ploadbar=  1.01088414685632E+05
 cg2d: Sum(rhs),rhsMax =  -4.19724281147748E+01  2.42751073067779E+00
(PID.TID 0000.0001)  ploadbar=  1.01088940708849E+05
 cg2d: Sum(rhs),rhsMax =  -4.17707625537655E+01  2.43808123399257E+00
(PID.TID 0000.0001)  ploadbar=  1.01089466732066E+05
 cg2d: Sum(rhs),rhsMax =  -4.16352006257486E+01  2.44478191733082E+00
(PID.TID 0000.0001)  ploadbar=  1.01089992755283E+05
 cg2d: Sum(rhs),rhsMax =  -4.15509062184060E+01  2.44856073601926E+00
(PID.TID 0000.0001)  ploadbar=  1.01089010222588E+05
 cg2d: Sum(rhs),rhsMax =  -4.14218813107296E+01  2.45505194659806E+00
(PID.TID 0000.0001)  ploadbar=  1.01088027689894E+05
 cg2d: Sum(rhs),rhsMax =  -4.12534950578913E+01  2.46397352430406E+00
(PID.TID 0000.0001)  ploadbar=  1.01087045157200E+05
 cg2d: Sum(rhs),rhsMax =  -4.10619839022824E+01  2.47439567836286E+00
(PID.TID 0000.0001)  ploadbar=  1.01086062624506E+05
 cg2d: Sum(rhs),rhsMax =  -4.08695003548339E+01  2.48499663347946E+00
(PID.TID 0000.0001)  ploadbar=  1.01085080091811E+05
 cg2d: Sum(rhs),rhsMax =  -4.06664997338090E+01  2.49634537948922E+00
(PID.TID 0000.0001)  ploadbar=  1.01084097559117E+05
 cg2d: Sum(rhs),rhsMax =  -4.05415135379353E+01  2.50292571585457E+00
(PID.TID 0000.0001)  ploadbar=  1.01083947224312E+05
 cg2d: Sum(rhs),rhsMax =  -4.04880152600131E+01  2.50504792853194E+00
(PID.TID 0000.0001)  ploadbar=  1.01083796889506E+05
 cg2d: Sum(rhs),rhsMax =  -4.05092744164035E+01  2.50246876399204E+00
(PID.TID 0000.0001)  ploadbar=  1.01083646554701E+05
 cg2d: Sum(rhs),rhsMax =  -4.05884556115951E+01  2.49623320423053E+00
(PID.TID 0000.0001)  ploadbar=  1.01083496219896E+05
 cg2d: Sum(rhs),rhsMax =  -4.07150993257387E+01  2.48701716620432E+00
(PID.TID 0000.0001)  ploadbar=  1.01083345885091E+05
 cg2d: Sum(rhs),rhsMax =  -4.08689866112041E+01  2.47609057621849E+00
(PID.TID 0000.0001)  ploadbar=  1.01083195550286E+05
 cg2d: Sum(rhs),rhsMax =  -4.09555586393877E+01  2.46938564256241E+00
(PID.TID 0000.0001)  ploadbar=  1.01082952337915E+05
 cg2d: Sum(rhs),rhsMax =  -4.10294445064056E+01  2.46355430906624E+00
(PID.TID 0000.0001)  ploadbar=  1.01082709125544E+05
 cg2d: Sum(rhs),rhsMax =  -4.11003253702833E+01  2.45799898439000E+00
(PID.TID 0000.0001)  ploadbar=  1.01082465913174E+05
 cg2d: Sum(rhs),rhsMax =  -4.11676566797207E+01  2.45273995073814E+00
(PID.TID 0000.0001)  ploadbar=  1.01082222700803E+05
 cg2d: Sum(rhs),rhsMax =  -4.12397692862119E+01  2.44727363758200E+00
(PID.TID 0000.0001)  ploadbar=  1.01081979488433E+05
 cg2d: Sum(rhs),rhsMax =  -4.13311743939927E+01  2.44073722486354E+00
(PID.TID 0000.0001)  ploadbar=  1.01081736276062E+05
 cg2d: Sum(rhs),rhsMax =  -4.14120939206091E+01  2.43486143119203E+00
(PID.TID 0000.0001)  ploadbar=  1.01081417971938E+05
 cg2d: Sum(rhs),rhsMax =  -4.14904913686091E+01  2.42915957953061E+00
(PID.TID 0000.0001)  ploadbar=  1.01081099667813E+05
 cg2d: Sum(rhs),rhsMax =  -4.15785656653384E+01  2.42290542815685E+00
(PID.TID 0000.0001)  ploadbar=  1.01080781363688E+05
 cg2d: Sum(rhs),rhsMax =  -4.16858423873352E+01  2.41554422782818E+00
(PID.TID 0000.0001)  ploadbar=  1.01080463059564E+05
 cg2d: Sum(rhs),rhsMax =  -4.18215934463648E+01  2.40655316888655E+00
(PID.TID 0000.0001)  ploadbar=  1.01080144755439E+05
 cg2d: Sum(rhs),rhsMax =  -4.19938660512802E+01  2.39550484758861E+00
(PID.TID 0000.0001)  ploadbar=  1.01079826451314E+05
 cg2d: Sum(rhs),rhsMax =  -4.21882622287191E+01  2.38333654981266E+00
(PID.TID 0000.0001)  ploadbar=  1.01078690949841E+05
 cg2d: Sum(rhs),rhsMax =  -4.24000842317630E+01  2.37034261311211E+00
(PID.TID 0000.0001)  ploadbar=  1.01077555448368E+05
 cg2d: Sum(rhs),rhsMax =  -4.26256456220291E+01  2.35675199149646E+00
(PID.TID 0000.0001)  ploadbar=  1.01076419946895E+05
 cg2d: Sum(rhs),rhsMax =  -4.28589530079941E+01  2.34290768709647E+00
(PID.TID 0000.0001)  ploadbar=  1.01075284445422E+05
 cg2d: Sum(rhs),rhsMax =  -4.30912721630413E+01  2.32928379640326E+00
(PID.TID 0000.0001)  ploadbar=  1.01074148943949E+05
 cg2d: Sum(rhs),rhsMax =  -4.33180226993796E+01  2.31611156947635E+00
(PID.TID 0000.0001)  ploadbar=  1.01073013442476E+05
 cg2d: Sum(rhs),rhsMax =  -4.35440362442888E+01  2.30306032734361E+00
(PID.TID 0000.0001)  ploadbar=  1.01071170097209E+05
 cg2d: Sum(rhs),rhsMax =  -4.37564528712572E+01  2.29078773449945E+00
(PID.TID 0000.0001)  ploadbar=  1.01069326751941E+05
 cg2d: Sum(rhs),rhsMax =  -4.39624835939481E+01  2.27889399509715E+00
(PID.TID 0000.0001)  ploadbar=  1.01067483406673E+05
 cg2d: Sum(rhs),rhsMax =  -4.41622405490163E+01  2.26736089402334E+00
(PID.TID 0000.0001)  ploadbar=  1.01065640061405E+05
 cg2d: Sum(rhs),rhsMax =  -4.43393610795809E+01  2.25700921369550E+00
(PID.TID 0000.0001)  ploadbar=  1.01063796716138E+05
 cg2d: Sum(rhs),rhsMax =  -4.44918378097529E+01  2.24790572030204E+00
(PID.TID 0000.0001)  ploadbar=  1.01061953370870E+05
 cg2d: Sum(rhs),rhsMax =  -4.46587003128033E+01  2.23823952514663E+00
(PID.TID 0000.0001)  ploadbar=  1.01059779527537E+05
 cg2d: Sum(rhs),rhsMax =  -4.48250878562066E+01  2.22876058027183E+00
(PID.TID 0000.0001)  ploadbar=  1.01057605684204E+05
 cg2d: Sum(rhs),rhsMax =  -4.49952792686549E+01  2.21924767422099E+00
(PID.TID 0000.0001)  ploadbar=  1.01055431840872E+05
 cg2d: Sum(rhs),rhsMax =  -4.51686012903056E+01  2.20972550729190E+00
(PID.TID 0000.0001)  ploadbar=  1.01053257997539E+05
 cg2d: Sum(rhs),rhsMax =  -4.53463910026977E+01  2.20012285181667E+00
(PID.TID 0000.0001)  ploadbar=  1.01051084154206E+05
 cg2d: Sum(rhs),rhsMax =  -4.55335242088753E+01  2.19019577063743E+00
(PID.TID 0000.0001)  ploadbar=  1.01048910310873E+05
 cg2d: Sum(rhs),rhsMax =  -4.57275224356788E+01  2.18007093492725E+00
(PID.TID 0000.0001)  ploadbar=  1.01047445781009E+05
 cg2d: Sum(rhs),rhsMax =  -4.59309463929712E+01  2.16962184810664E+00
(PID.TID 0000.0001)  ploadbar=  1.01045981251144E+05
 cg2d: Sum(rhs),rhsMax =  -4.61352035408637E+01  2.15925131757301E+00
(PID.TID 0000.0001)  ploadbar=  1.01044516721280E+05
 cg2d: Sum(rhs),rhsMax =  -4.63450078106895E+01  2.14873222259062E+00
(PID.TID 0000.0001)  ploadbar=  1.01043052191415E+05
 cg2d: Sum(rhs),rhsMax =  -4.65606682862313E+01  2.13804645331766E+00
(PID.TID 0000.0001)  ploadbar=  1.01041587661550E+05
 cg2d: Sum(rhs),rhsMax =  -4.67822970669414E+01  2.12718557550452E+00
(PID.TID 0000.0001)  ploadbar=  1.01040123131686E+05
 cg2d: Sum(rhs),rhsMax =  -4.70237087167582E+01  2.11561154556406E+00
(PID.TID 0000.0001)  ploadbar=  1.01038754553247E+05
 cg2d: Sum(rhs),rhsMax =  -4.72969697851291E+01  2.10281180723986E+00
(PID.TID 0000.0001)  ploadbar=  1.01037385974808E+05
 cg2d: Sum(rhs),rhsMax =  -4.76128653444135E+01  2.08835510071073E+00
(PID.TID 0000.0001)  ploadbar=  1.01036017396369E+05
 cg2d: Sum(rhs),rhsMax =  -4.79869341411911E+01  2.07163288832328E+00
(PID.TID 0000.0001)  ploadbar=  1.01034648817930E+05
 cg2d: Sum(rhs),rhsMax =  -4.84271015473182E+01  2.05242088861457E+00
(PID.TID 0000.0001)  ploadbar=  1.01033280239491E+05
 cg2d: Sum(rhs),rhsMax =  -4.89452838346131E+01  2.03036350731648E+00
(PID.TID 0000.0001)  ploadbar=  1.01031911661052E+05
 cg2d: Sum(rhs),rhsMax =  -4.95257568244640E+01  2.00622255255517E+00
(PID.TID 0000.0001)  ploadbar=  1.01031162485320E+05
 cg2d: Sum(rhs),rhsMax =  -5.01557623135204E+01  1.98065428769452E+00
(PID.TID 0000.0001)  ploadbar=  1.01030413309589E+05
 cg2d: Sum(rhs),rhsMax =  -5.08246886082245E+01  1.95418771313100E+00
(PID.TID 0000.0001)  ploadbar=  1.01029664133857E+05
 cg2d: Sum(rhs),rhsMax =  -5.15232946507729E+01  1.92725875536827E+00
(PID.TID 0000.0001)  ploadbar=  1.01028914958125E+05
 cg2d: Sum(rhs),rhsMax =  -5.22520880812204E+01  1.89990896001048E+00
(PID.TID 0000.0001)  ploadbar=  1.01028165782393E+05
 cg2d: Sum(rhs),rhsMax =  -5.30182051435645E+01  1.87194489408874E+00
(PID.TID 0000.0001)  ploadbar=  1.01027416606662E+05
 cg2d: Sum(rhs),rhsMax =  -5.38476137731952E+01  1.84266722832993E+00
(PID.TID 0000.0001)  ploadbar=  1.01027138953624E+05
 cg2d: Sum(rhs),rhsMax =  -5.47496104368565E+01  1.81192742979168E+00
(PID.TID 0000.0001)  ploadbar=  1.01026861300586E+05
 cg2d: Sum(rhs),rhsMax =  -5.57882266586667E+01  1.77786806372771E+00
(PID.TID 0000.0001)  ploadbar=  1.01026583647548E+05
 cg2d: Sum(rhs),rhsMax =  -5.69985200678071E+01  1.73983997529794E+00
(PID.TID 0000.0001)  ploadbar=  1.01026305994510E+05
 cg2d: Sum(rhs),rhsMax =  -5.83923303494817E+01  1.69807390145839E+00
(PID.TID 0000.0001)  ploadbar=  1.01026028341472E+05
 cg2d: Sum(rhs),rhsMax =  -5.99778754206755E+01  1.65298062341824E+00
(PID.TID 0000.0001)  ploadbar=  1.01025750688434E+05
 cg2d: Sum(rhs),rhsMax =  -6.17728397226818E+01  1.60472972523682E+00
(PID.TID 0000.0001)  ploadbar=  1.01026486745797E+05
 cg2d: Sum(rhs),rhsMax =  -6.37307706966831E+01  1.55518972566105E+00
(PID.TID 0000.0001)  ploadbar=  1.01027222803159E+05
 cg2d: Sum(rhs),rhsMax =  -6.58117842378318E+01  1.50575082673241E+00
(PID.TID 0000.0001)  ploadbar=  1.01027958860521E+05
 cg2d: Sum(rhs),rhsMax =  -6.79823874136003E+01  1.45738730972038E+00
(PID.TID 0000.0001)  ploadbar=  1.01028694917884E+05
 cg2d: Sum(rhs),rhsMax =  -7.02306430629321E+01  1.41042005548743E+00
(PID.TID 0000.0001)  ploadbar=  1.01029430975246E+05
 cg2d: Sum(rhs),rhsMax =  -7.14718629509869E+01  1.38557864145010E+00
(PID.TID 0000.0001)  ploadbar=  1.01030167032609E+05
 cg2d: Sum(rhs),rhsMax =  -7.09877962668989E+01  1.39469608585087E+00
(PID.TID 0000.0001)  ploadbar=  1.01030258964243E+05
 cg2d: Sum(rhs),rhsMax =  -7.06110643759805E+01  1.40182179080067E+00
(PID.TID 0000.0001)  ploadbar=  1.01030350895878E+05
 cg2d: Sum(rhs),rhsMax =  -7.03408934026855E+01  1.40690595857374E+00
(PID.TID 0000.0001)  ploadbar=  1.01030442827512E+05
 cg2d: Sum(rhs),rhsMax =  -7.01506699513523E+01  1.41043444829808E+00
(PID.TID 0000.0001)  ploadbar=  1.01030534759147E+05
 cg2d: Sum(rhs),rhsMax =  -7.00307057651089E+01  1.41257367264458E+00
(PID.TID 0000.0001)  ploadbar=  1.01030626690781E+05
 cg2d: Sum(rhs),rhsMax =  -6.92728900579980E+01  1.42775376457556E+00
(PID.TID 0000.0001)  ploadbar=  1.01030718622416E+05
 cg2d: Sum(rhs),rhsMax =  -6.82773502909629E+01  1.44825204024232E+00
(PID.TID 0000.0001)  ploadbar=  1.01032181263946E+05
 cg2d: Sum(rhs),rhsMax =  -6.75343544831945E+01  1.46381504589393E+00
(PID.TID 0000.0001)  ploadbar=  1.01033643905477E+05
 cg2d: Sum(rhs),rhsMax =  -6.70319648528348E+01  1.47435869204281E+00
(PID.TID 0000.0001)  ploadbar=  1.01035106547008E+05
 cg2d: Sum(rhs),rhsMax =  -6.67263626936916E+01  1.48062010184668E+00
(PID.TID 0000.0001)  ploadbar=  1.01036569188538E+05
 cg2d: Sum(rhs),rhsMax =  -6.65534809700034E+01  1.48390957387504E+00
(PID.TID 0000.0001)  ploadbar=  1.01038031830069E+05
 cg2d: Sum(rhs),rhsMax =  -6.64388643553837E+01  1.48584467420010E+00
(PID.TID 0000.0001)  ploadbar=  1.01039494471600E+05
 cg2d: Sum(rhs),rhsMax =  -6.63309714313557E+01  1.48769513121586E+00
(PID.TID 0000.0001)  ploadbar=  1.01041084945959E+05
 cg2d: Sum(rhs),rhsMax =  -6.61302460139548E+01  1.49170290875767E+00
(PID.TID 0000.0001)  ploadbar=  1.01042675420319E+05
 cg2d: Sum(rhs),rhsMax =  -6.57868658670073E+01  1.49903911949365E+00
(PID.TID 0000.0001)  ploadbar=  1.01044265894679E+05
 cg2d: Sum(rhs),rhsMax =  -6.53160004702911E+01  1.50945332793213E+00
(PID.TID 0000.0001)  ploadbar=  1.01045856369039E+05
 cg2d: Sum(rhs),rhsMax =  -6.47711742752806E+01  1.52181268845859E+00
(PID.TID 0000.0001)  ploadbar=  1.01047446843399E+05
 cg2d: Sum(rhs),rhsMax =  -6.42104952690346E+01  1.53481746121650E+00
(PID.TID 0000.0001)  ploadbar=  1.01049037317758E+05
 cg2d: Sum(rhs),rhsMax =  -6.37000319968463E+01  1.54682027144707E+00
(PID.TID 0000.0001)  ploadbar=  1.01049491038180E+05
 cg2d: Sum(rhs),rhsMax =  -6.33090691491795E+01  1.55605494591799E+00
(PID.TID 0000.0001)  ploadbar=  1.01049944758602E+05
 cg2d: Sum(rhs),rhsMax =  -6.30668125613567E+01  1.56168595460212E+00
(PID.TID 0000.0001)  ploadbar=  1.01050398479024E+05
 cg2d: Sum(rhs),rhsMax =  -6.29484922743370E+01  1.56423952425335E+00
(PID.TID 0000.0001)  ploadbar=  1.01050852199446E+05
 cg2d: Sum(rhs),rhsMax =  -6.29068853844400E+01  1.56485182316876E+00
(PID.TID 0000.0001)  ploadbar=  1.01051305919868E+05
 cg2d: Sum(rhs),rhsMax =  -6.28793872319794E+01  1.56506320692996E+00
(PID.TID 0000.0001)  ploadbar=  1.01051759640290E+05
 cg2d: Sum(rhs),rhsMax =  -6.27245841245915E+01  1.56845989964589E+00
(PID.TID 0000.0001)  ploadbar=  1.01050387641339E+05
 cg2d: Sum(rhs),rhsMax =  -6.23859143672380E+01  1.57651157824922E+00
(PID.TID 0000.0001)  ploadbar=  1.01049015642389E+05
 cg2d: Sum(rhs),rhsMax =  -6.18622836786360E+01  1.58939507563870E+00
(PID.TID 0000.0001)  ploadbar=  1.01047643643438E+05
 cg2d: Sum(rhs),rhsMax =  -6.11852110789651E+01  1.60652094348501E+00
(PID.TID 0000.0001)  ploadbar=  1.01046271644487E+05
 cg2d: Sum(rhs),rhsMax =  -6.04565582364659E+01  1.62541211772621E+00
(PID.TID 0000.0001)  ploadbar=  1.01044899645537E+05
 cg2d: Sum(rhs),rhsMax =  -5.97835061816076E+01  1.64322518889829E+00
(PID.TID 0000.0001)  ploadbar=  1.01043527646586E+05
 cg2d: Sum(rhs),rhsMax =  -5.91560587231968E+01  1.66014233147762E+00
(PID.TID 0000.0001)  ploadbar=  1.01043069521883E+05
 cg2d: Sum(rhs),rhsMax =  -5.85830345026256E+01  1.67583832777959E+00
(PID.TID 0000.0001)  ploadbar=  1.01042611397180E+05
 cg2d: Sum(rhs),rhsMax =  -5.80617057400856E+01  1.69030564333663E+00
(PID.TID 0000.0001)  ploadbar=  1.01042153272477E+05
 cg2d: Sum(rhs),rhsMax =  -5.75830037028870E+01  1.70373343403682E+00
(PID.TID 0000.0001)  ploadbar=  1.01041695147774E+05
 cg2d: Sum(rhs),rhsMax =  -5.71347365152531E+01  1.71642402797470E+00
(PID.TID 0000.0001)  ploadbar=  1.01041237023071E+05
 cg2d: Sum(rhs),rhsMax =  -5.68578181327830E+01  1.72405162654792E+00
(PID.TID 0000.0001)  ploadbar=  1.01040778898368E+05
 cg2d: Sum(rhs),rhsMax =  -5.66189602849056E+01  1.73063360379331E+00
(PID.TID 0000.0001)  ploadbar=  1.01040997870372E+05
 cg2d: Sum(rhs),rhsMax =  -5.63609482814100E+01  1.73790206685018E+00
(PID.TID 0000.0001)  ploadbar=  1.01041216842375E+05
 cg2d: Sum(rhs),rhsMax =  -5.60610383053105E+01  1.74657872581191E+00
(PID.TID 0000.0001)  ploadbar=  1.01041435814379E+05
 cg2d: Sum(rhs),rhsMax =  -5.57213361368618E+01  1.75663607136019E+00
(PID.TID 0000.0001)  ploadbar=  1.01041654786382E+05
 cg2d: Sum(rhs),rhsMax =  -5.53627290790926E+01  1.76745643160472E+00
(PID.TID 0000.0001)  ploadbar=  1.01041873758386E+05
 cg2d: Sum(rhs),rhsMax =  -5.50175512757916E+01  1.77801375803242E+00
(PID.TID 0000.0001)  ploadbar=  1.01042092730389E+05
 cg2d: Sum(rhs),rhsMax =  -5.47303323517471E+01  1.78681869030397E+00
(PID.TID 0000.0001)  ploadbar=  1.01041289880972E+05
 cg2d: Sum(rhs),rhsMax =  -5.45409196291863E+01  1.79249746614518E+00
(PID.TID 0000.0001)  ploadbar=  1.01040487031554E+05
 cg2d: Sum(rhs),rhsMax =  -5.44589282957050E+01  1.79466474836580E+00
(PID.TID 0000.0001)  ploadbar=  1.01039684182136E+05
 cg2d: Sum(rhs),rhsMax =  -5.44736559039048E+01  1.79364295015377E+00
(PID.TID 0000.0001)  ploadbar=  1.01038881332718E+05
 cg2d: Sum(rhs),rhsMax =  -5.45606652150929E+01  1.79023477131411E+00
(PID.TID 0000.0001)  ploadbar=  1.01038078483300E+05
 cg2d: Sum(rhs),rhsMax =  -5.46919628270653E+01  1.78537056622204E+00
(PID.TID 0000.0001)  ploadbar=  1.01037275633882E+05
 cg2d: Sum(rhs),rhsMax =  -5.48039393836902E+01  1.78114867061617E+00
(PID.TID 0000.0001)  ploadbar=  1.01035219069191E+05
 cg2d: Sum(rhs),rhsMax =  -5.48503738768630E+01  1.77905818269608E+00
(PID.TID 0000.0001)  ploadbar=  1.01033162504499E+05
 cg2d: Sum(rhs),rhsMax =  -5.48123043937176E+01  1.77970537651118E+00
(PID.TID 0000.0001)  ploadbar=  1.01031105939808E+05
 cg2d: Sum(rhs),rhsMax =  -5.46706225234900E+01  1.78372130127831E+00
(PID.TID 0000.0001)  ploadbar=  1.01029049375116E+05
 cg2d: Sum(rhs),rhsMax =  -5.44398816138537E+01  1.79067233242633E+00
(PID.TID 0000.0001)  ploadbar=  1.01026992810425E+05
 cg2d: Sum(rhs),rhsMax =  -5.42215967139660E+01  1.79725393042247E+00
(PID.TID 0000.0001)  ploadbar=  1.01024936245733E+05
 cg2d: Sum(rhs),rhsMax =  -5.40064439363059E+01  1.80374893157373E+00
(PID.TID 0000.0001)  ploadbar=  1.01023398794708E+05
 cg2d: Sum(rhs),rhsMax =  -5.38000084623003E+01  1.80995790245107E+00
(PID.TID 0000.0001)  ploadbar=  1.01021861343683E+05
 cg2d: Sum(rhs),rhsMax =  -5.36080599609577E+01  1.81567385213535E+00
(PID.TID 0000.0001)  ploadbar=  1.01020323892658E+05
 cg2d: Sum(rhs),rhsMax =  -5.34306973082466E+01  1.82087866659552E+00
(PID.TID 0000.0001)  ploadbar=  1.01018786441632E+05
 cg2d: Sum(rhs),rhsMax =  -5.32630652955085E+01  1.82572100212852E+00
(PID.TID 0000.0001)  ploadbar=  1.01017248990607E+05
 cg2d: Sum(rhs),rhsMax =  -5.30987424778340E+01  1.83041072915633E+00
(PID.TID 0000.0001)  ploadbar=  1.01015711539582E+05
 cg2d: Sum(rhs),rhsMax =  -5.28693342874670E+01  1.83740463087268E+00
(PID.TID 0000.0001)  ploadbar=  1.01015914720811E+05
 cg2d: Sum(rhs),rhsMax =  -5.26136831402903E+01  1.84539683259264E+00
(PID.TID 0000.0001)  ploadbar=  1.01016117902041E+05
 cg2d: Sum(rhs),rhsMax =  -5.23574189127804E+01  1.85350282118831E+00
(PID.TID 0000.0001)  ploadbar=  1.01016321083270E+05
 cg2d: Sum(rhs),rhsMax =  -5.21027186292215E+01  1.86164088075520E+00
(PID.TID 0000.0001)  ploadbar=  1.01016524264499E+05
 cg2d: Sum(rhs),rhsMax =  -5.18534014250578E+01  1.86966927459641E+00
(PID.TID 0000.0001)  ploadbar=  1.01016727445728E+05
 cg2d: Sum(rhs),rhsMax =  -5.17003264827267E+01  1.87428023222040E+00
(PID.TID 0000.0001)  ploadbar=  1.01016930626958E+05
 cg2d: Sum(rhs),rhsMax =  -5.16778432871891E+01  1.87419038554554E+00
(PID.TID 0000.0001)  ploadbar=  1.01017855824590E+05
 cg2d: Sum(rhs),rhsMax =  -5.17555312776925E+01  1.87048530284188E+00
(PID.TID 0000.0001)  ploadbar=  1.01018781022222E+05
 cg2d: Sum(rhs),rhsMax =  -5.19473964421522E+01  1.86269673005359E+00
(PID.TID 0000.0001)  ploadbar=  1.01019706219854E+05
 cg2d: Sum(rhs),rhsMax =  -5.22394183754932E+01  1.85141544076485E+00
(PID.TID 0000.0001)  ploadbar=  1.01020631417486E+05
 cg2d: Sum(rhs),rhsMax =  -5.26091035133973E+01  1.83754420205247E+00
(PID.TID 0000.0001)  ploadbar=  1.01021556615118E+05
 cg2d: Sum(rhs),rhsMax =  -5.30269481966787E+01  1.82220742855220E+00
(PID.TID 0000.0001)  ploadbar=  1.01022481812751E+05
 cg2d: Sum(rhs),rhsMax =  -5.34006721975539E+01  1.80861244693832E+00
(PID.TID 0000.0001)  ploadbar=  1.01023954267499E+05
 cg2d: Sum(rhs),rhsMax =  -5.36796908751037E+01  1.79838028337900E+00
(PID.TID 0000.0001)  ploadbar=  1.01025426722248E+05
 cg2d: Sum(rhs),rhsMax =  -5.38423985756925E+01  1.79212057057372E+00
(PID.TID 0000.0001)  ploadbar=  1.01026899176997E+05
 cg2d: Sum(rhs),rhsMax =  -5.38925556234023E+01  1.78962720832586E+00
(PID.TID 0000.0001)  ploadbar=  1.01028371631745E+05
 cg2d: Sum(rhs),rhsMax =  -5.38516056753985E+01  1.79015586408510E+00
(PID.TID 0000.0001)  ploadbar=  1.01029844086494E+05
 cg2d: Sum(rhs),rhsMax =  -5.37712332769373E+01  1.79198621004965E+00
(PID.TID 0000.0001)  ploadbar=  1.01031316541243E+05
 cg2d: Sum(rhs),rhsMax =  -5.36649136313840E+01  1.79464621890410E+00
(PID.TID 0000.0001)  ploadbar=  1.01032351071995E+05
 cg2d: Sum(rhs),rhsMax =  -5.35398447023868E+01  1.79789606201595E+00
(PID.TID 0000.0001)  ploadbar=  1.01033385602747E+05
 cg2d: Sum(rhs),rhsMax =  -5.34707877823598E+01  1.79922022734484E+00
(PID.TID 0000.0001)  ploadbar=  1.01034420133500E+05
 cg2d: Sum(rhs),rhsMax =  -5.34405586037754E+01  1.79918175362683E+00
(PID.TID 0000.0001)  ploadbar=  1.01035454664252E+05
 cg2d: Sum(rhs),rhsMax =  -5.34452965529270E+01  1.79790142417660E+00
(PID.TID 0000.0001)  ploadbar=  1.01036489195005E+05
 cg2d: Sum(rhs),rhsMax =  -5.34614193185539E+01  1.79616753170626E+00
(PID.TID 0000.0001)  ploadbar=  1.01037523725757E+05
 cg2d: Sum(rhs),rhsMax =  -5.34651568431651E+01  1.79494601500705E+00
(PID.TID 0000.0001)  ploadbar=  1.01038023440727E+05
 cg2d: Sum(rhs),rhsMax =  -5.34481689157767E+01  1.79451502542353E+00
(PID.TID 0000.0001)  ploadbar=  1.01038523155697E+05
 cg2d: Sum(rhs),rhsMax =  -5.34080103486667E+01  1.79495335103022E+00
(PID.TID 0000.0001)  ploadbar=  1.01039022870667E+05
 cg2d: Sum(rhs),rhsMax =  -5.33576622774906E+01  1.79582244817998E+00
(PID.TID 0000.0001)  ploadbar=  1.01039522585636E+05
 cg2d: Sum(rhs),rhsMax =  -5.33213968577553E+01  1.79630178011119E+00
(PID.TID 0000.0001)  ploadbar=  1.01040022300606E+05
 cg2d: Sum(rhs),rhsMax =  -5.33294992011671E+01  1.79536585054566E+00
(PID.TID 0000.0001)  ploadbar=  1.01040522015576E+05
 cg2d: Sum(rhs),rhsMax =  -5.34461532123549E+01  1.79082329611363E+00
(PID.TID 0000.0001)  ploadbar=  1.01041189394084E+05
 cg2d: Sum(rhs),rhsMax =  -5.36751009801230E+01  1.78259603747144E+00
(PID.TID 0000.0001)  ploadbar=  1.01041856772592E+05
 cg2d: Sum(rhs),rhsMax =  -5.40122321212308E+01  1.77091413654628E+00
(PID.TID 0000.0001)  ploadbar=  1.01042524151100E+05
 cg2d: Sum(rhs),rhsMax =  -5.44330159625934E+01  1.75669807931447E+00
(PID.TID 0000.0001)  ploadbar=  1.01043191529608E+05
 cg2d: Sum(rhs),rhsMax =  -5.49040361232872E+01  1.74112858371482E+00
(PID.TID 0000.0001)  ploadbar=  1.01043858908116E+05
 cg2d: Sum(rhs),rhsMax =  -5.53838189963091E+01  1.72556401416626E+00
(PID.TID 0000.0001)  ploadbar=  1.01044526286624E+05
 cg2d: Sum(rhs),rhsMax =  -5.58496855830138E+01  1.71072285244494E+00
(PID.TID 0000.0001)  ploadbar=  1.01046031227134E+05
 cg2d: Sum(rhs),rhsMax =  -5.62618847437385E+01  1.69776985838143E+00
(PID.TID 0000.0001)  ploadbar=  1.01047536167645E+05
 cg2d: Sum(rhs),rhsMax =  -5.65950298521200E+01  1.68738055762632E+00
(PID.TID 0000.0001)  ploadbar=  1.01049041108155E+05
 cg2d: Sum(rhs),rhsMax =  -5.68335006635906E+01  1.67992270382301E+00
(PID.TID 0000.0001)  ploadbar=  1.01050546048665E+05
 cg2d: Sum(rhs),rhsMax =  -5.69818139678905E+01  1.67517757041627E+00
(PID.TID 0000.0001)  ploadbar=  1.01052050989175E+05
 cg2d: Sum(rhs),rhsMax =  -5.70588003747368E+01  1.67253821258142E+00
(PID.TID 0000.0001)  ploadbar=  1.01053555929685E+05
 cg2d: Sum(rhs),rhsMax =  -5.71214994962426E+01  1.67031163356130E+00
(PID.TID 0000.0001)  ploadbar=  1.01054064872729E+05
 cg2d: Sum(rhs),rhsMax =  -5.72132747274231E+01  1.66722193103328E+00
(PID.TID 0000.0001)  ploadbar=  1.01054573815773E+05
 cg2d: Sum(rhs),rhsMax =  -5.73411508312253E+01  1.66306786606426E+00
(PID.TID 0000.0001)  ploadbar=  1.01055082758817E+05
 cg2d: Sum(rhs),rhsMax =  -5.74917759105164E+01  1.65824298663158E+00
(PID.TID 0000.0001)  ploadbar=  1.01055591701861E+05
 cg2d: Sum(rhs),rhsMax =  -5.76369275777704E+01  1.65355615869470E+00
(PID.TID 0000.0001)  ploadbar=  1.01056100644904E+05
 cg2d: Sum(rhs),rhsMax =  -5.77387310852993E+01  1.65008026023176E+00
(PID.TID 0000.0001)  ploadbar=  1.01056609587948E+05
 cg2d: Sum(rhs),rhsMax =  -5.77755969382469E+01  1.64853599793619E+00
(PID.TID 0000.0001)  ploadbar=  1.01056359265517E+05
 cg2d: Sum(rhs),rhsMax =  -5.77400052030757E+01  1.64912683617199E+00
(PID.TID 0000.0001)  ploadbar=  1.01056108943085E+05
 cg2d: Sum(rhs),rhsMax =  -5.76160474290044E+01  1.65230824603814E+00
(PID.TID 0000.0001)  ploadbar=  1.01055858620653E+05
 cg2d: Sum(rhs),rhsMax =  -5.74370828637005E+01  1.65714361242664E+00
(PID.TID 0000.0001)  ploadbar=  1.01055608298222E+05
 cg2d: Sum(rhs),rhsMax =  -5.72459508364347E+01  1.66241316870515E+00
(PID.TID 0000.0001)  ploadbar=  1.01055357975790E+05
 cg2d: Sum(rhs),rhsMax =  -5.70919575459843E+01  1.66667928189440E+00
(PID.TID 0000.0001)  ploadbar=  1.01055107653358E+05
 cg2d: Sum(rhs),rhsMax =  -5.70386010964908E+01  1.66801777132015E+00
(PID.TID 0000.0001)  ploadbar=  1.01054738303831E+05
 cg2d: Sum(rhs),rhsMax =  -5.71334264865664E+01  1.66502079496900E+00
(PID.TID 0000.0001)  ploadbar=  1.01054368954303E+05
 cg2d: Sum(rhs),rhsMax =  -5.73839347379291E+01  1.65751186901692E+00
(PID.TID 0000.0001)  ploadbar=  1.01053999604775E+05
 cg2d: Sum(rhs),rhsMax =  -5.77661054600701E+01  1.64629051364599E+00
(PID.TID 0000.0001)  ploadbar=  1.01053630255248E+05
 cg2d: Sum(rhs),rhsMax =  -5.82374819877546E+01  1.63269008021083E+00
(PID.TID 0000.0001)  ploadbar=  1.01053260905720E+05
 cg2d: Sum(rhs),rhsMax =  -5.87433094733627E+01  1.61833001473855E+00
(PID.TID 0000.0001)  ploadbar=  1.01052891556192E+05
 cg2d: Sum(rhs),rhsMax =  -5.92014348042708E+01  1.60550229171078E+00
(PID.TID 0000.0001)  ploadbar=  1.01051776696970E+05
 cg2d: Sum(rhs),rhsMax =  -5.95325468925036E+01  1.59626077842371E+00
(PID.TID 0000.0001)  ploadbar=  1.01050661837748E+05
 cg2d: Sum(rhs),rhsMax =  -5.97156197678010E+01  1.59104357921911E+00
(PID.TID 0000.0001)  ploadbar=  1.01049546978526E+05
 cg2d: Sum(rhs),rhsMax =  -5.97758714844834E+01  1.58909925110650E+00
(PID.TID 0000.0001)  ploadbar=  1.01048432119304E+05
 cg2d: Sum(rhs),rhsMax =  -5.97636474118117E+01  1.58905873821952E+00
(PID.TID 0000.0001)  ploadbar=  1.01047317260082E+05
 cg2d: Sum(rhs),rhsMax =  -5.97407310276724E+01  1.58927113413621E+00
(PID.TID 0000.0001)  ploadbar=  1.01046202400860E+05
 cg2d: Sum(rhs),rhsMax =  -5.97725638507517E+01  1.58799996093006E+00
(PID.TID 0000.0001)  ploadbar=  1.01045408133791E+05
 cg2d: Sum(rhs),rhsMax =  -5.98949171620899E+01  1.58429655058959E+00
(PID.TID 0000.0001)  ploadbar=  1.01044613866723E+05
 cg2d: Sum(rhs),rhsMax =  -6.01268050771098E+01  1.57768672754242E+00
(PID.TID 0000.0001)  ploadbar=  1.01043819599654E+05
 cg2d: Sum(rhs),rhsMax =  -6.04683287854718E+01  1.56823328197320E+00
(PID.TID 0000.0001)  ploadbar=  1.01043025332586E+05
 cg2d: Sum(rhs),rhsMax =  -6.08931977544610E+01  1.55669987985314E+00
(PID.TID 0000.0001)  ploadbar=  1.01042231065517E+05
 cg2d: Sum(rhs),rhsMax =  -6.13590749863673E+01  1.54423896846936E+00
(PID.TID 0000.0001)  ploadbar=  1.01041436798448E+05
 cg2d: Sum(rhs),rhsMax =  -6.18735549784488E+01  1.53081804180832E+00
(PID.TID 0000.0001)  ploadbar=  1.01040403991755E+05
 cg2d: Sum(rhs),rhsMax =  -6.23802166648810E+01  1.51786080261495E+00
(PID.TID 0000.0001)  ploadbar=  1.01039371185061E+05
 cg2d: Sum(rhs),rhsMax =  -6.28367235297943E+01  1.50636174815627E+00
(PID.TID 0000.0001)  ploadbar=  1.01038338378367E+05
 cg2d: Sum(rhs),rhsMax =  -6.32537796087516E+01  1.49600512120104E+00
(PID.TID 0000.0001)  ploadbar=  1.01037305571673E+05
 cg2d: Sum(rhs),rhsMax =  -6.36615272470793E+01  1.48604457795753E+00
(PID.TID 0000.0001)  ploadbar=  1.01036272764980E+05
 cg2d: Sum(rhs),rhsMax =  -6.41048997996772E+01  1.47543065467201E+00
(PID.TID 0000.0001)  ploadbar=  1.01035239958286E+05
 cg2d: Sum(rhs),rhsMax =  -6.45903952295499E+01  1.46398141577809E+00
(PID.TID 0000.0001)  ploadbar=  1.01034331151968E+05
 cg2d: Sum(rhs),rhsMax =  -6.51385788695373E+01  1.45127550404706E+00
(PID.TID 0000.0001)  ploadbar=  1.01033422345650E+05
 cg2d: Sum(rhs),rhsMax =  -6.46467937256379E+01  1.46189368893883E+00
(PID.TID 0000.0001)  ploadbar=  1.01032513539333E+05
 cg2d: Sum(rhs),rhsMax =  -6.38719383535877E+01  1.47916459810273E+00
(PID.TID 0000.0001)  ploadbar=  1.01031604733015E+05
 cg2d: Sum(rhs),rhsMax =  -6.32328980766775E+01  1.49360431842821E+00
(PID.TID 0000.0001)  ploadbar=  1.01030695926697E+05
 cg2d: Sum(rhs),rhsMax =  -6.27359847196736E+01  1.50487732266916E+00
(PID.TID 0000.0001)  ploadbar=  1.01029787120379E+05
 cg2d: Sum(rhs),rhsMax =  -6.23602928382095E+01  1.51340552675746E+00
(PID.TID 0000.0001)  ploadbar=  1.01029636507982E+05
 cg2d: Sum(rhs),rhsMax =  -6.20907139775254E+01  1.51945502890340E+00
(PID.TID 0000.0001)  ploadbar=  1.01029485895584E+05
 cg2d: Sum(rhs),rhsMax =  -6.18888453500487E+01  1.52390222214254E+00
(PID.TID 0000.0001)  ploadbar=  1.01029335283186E+05
 cg2d: Sum(rhs),rhsMax =  -6.17640341653987E+01  1.52647990687756E+00
(PID.TID 0000.0001)  ploadbar=  1.01029184670788E+05
 cg2d: Sum(rhs),rhsMax =  -6.17336399734525E+01  1.52673089521191E+00
(PID.TID 0000.0001)  ploadbar=  1.01029034058391E+05
 cg2d: Sum(rhs),rhsMax =  -6.17951874820573E+01  1.52470569334076E+00
(PID.TID 0000.0001)  ploadbar=  1.01028883445993E+05
 cg2d: Sum(rhs),rhsMax =  -6.18577678497294E+01  1.52264889680131E+00
(PID.TID 0000.0001)  ploadbar=  1.01028459848973E+05
 cg2d: Sum(rhs),rhsMax =  -6.18696770990128E+01  1.52182439996911E+00
(PID.TID 0000.0001)  ploadbar=  1.01028036251953E+05
 cg2d: Sum(rhs),rhsMax =  -6.18476307337221E+01  1.52181084666055E+00
(PID.TID 0000.0001)  ploadbar=  1.01027612654933E+05
 cg2d: Sum(rhs),rhsMax =  -6.18168445910843E+01  1.52198551231574E+00
(PID.TID 0000.0001)  ploadbar=  1.01027189057912E+05
 cg2d: Sum(rhs),rhsMax =  -6.18019801874446E+01  1.52173935668045E+00
(PID.TID 0000.0001)  ploadbar=  1.01026765460892E+05
 cg2d: Sum(rhs),rhsMax =  -6.18207435883640E+01  1.52062988482263E+00
(PID.TID 0000.0001)  ploadbar=  1.01026341863872E+05
 cg2d: Sum(rhs),rhsMax =  -6.18286968001777E+01  1.51982707026211E+00
(PID.TID 0000.0001)  ploadbar=  1.01026216747816E+05
 cg2d: Sum(rhs),rhsMax =  -6.17771937449467E+01  1.52052604814151E+00
(PID.TID 0000.0001)  ploadbar=  1.01026091631760E+05
 cg2d: Sum(rhs),rhsMax =  -6.19582594177528E+01  1.51555165044859E+00
(PID.TID 0000.0001)  ploadbar=  1.01025966515704E+05
 cg2d: Sum(rhs),rhsMax =  -6.24009981901597E+01  1.50430343441791E+00
(PID.TID 0000.0001)  ploadbar=  1.01025841399648E+05
 cg2d: Sum(rhs),rhsMax =  -6.28355179325965E+01  1.49343587430076E+00
(PID.TID 0000.0001)  ploadbar=  1.01025716283592E+05
 cg2d: Sum(rhs),rhsMax =  -6.32792868175639E+01  1.48252532637432E+00
(PID.TID 0000.0001)  ploadbar=  1.01025591167537E+05
 cg2d: Sum(rhs),rhsMax =  -6.37418616521825E+01  1.47133591913313E+00
(PID.TID 0000.0001)  ploadbar=  1.01026907586526E+05
 cg2d: Sum(rhs),rhsMax =  -6.42145966860589E+01  1.46007531118664E+00
(PID.TID 0000.0001)  ploadbar=  1.01028224005516E+05
 cg2d: Sum(rhs),rhsMax =  -6.46912808436787E+01  1.44888528031804E+00
(PID.TID 0000.0001)  ploadbar=  1.01029540424505E+05
 cg2d: Sum(rhs),rhsMax =  -6.51622136060323E+01  1.43797764072923E+00
(PID.TID 0000.0001)  ploadbar=  1.01030856843495E+05
 cg2d: Sum(rhs),rhsMax =  -6.56205115215847E+01  1.42749016971257E+00
(PID.TID 0000.0001)  ploadbar=  1.01032173262484E+05
 cg2d: Sum(rhs),rhsMax =  -6.60611011651007E+01  1.41751361009175E+00
(PID.TID 0000.0001)  ploadbar=  1.01033489681474E+05
 cg2d: Sum(rhs),rhsMax =  -6.64702703957713E+01  1.40833266043195E+00
(PID.TID 0000.0001)  ploadbar=  1.01034110115420E+05
 cg2d: Sum(rhs),rhsMax =  -6.65511835919486E+01  1.40615728794857E+00
(PID.TID 0000.0001)  ploadbar=  1.01034730549365E+05
 cg2d: Sum(rhs),rhsMax =  -6.66497536853282E+01  1.40360058508949E+00
(PID.TID 0000.0001)  ploadbar=  1.01035350983311E+05
 cg2d: Sum(rhs),rhsMax =  -6.68594053538978E+01  1.39870189461969E+00
(PID.TID 0000.0001)  ploadbar=  1.01035971417257E+05
 cg2d: Sum(rhs),rhsMax =  -6.71542988748481E+01  1.39203634878993E+00
(PID.TID 0000.0001)  ploadbar=  1.01036591851203E+05
 cg2d: Sum(rhs),rhsMax =  -6.75119716395919E+01  1.38410630699625E+00
(PID.TID 0000.0001)  ploadbar=  1.01037212285149E+05
 cg2d: Sum(rhs),rhsMax =  -6.78545117545776E+01  1.37655187620068E+00
(PID.TID 0000.0001)  ploadbar=  1.01037278496460E+05
 cg2d: Sum(rhs),rhsMax =  -6.81741601948257E+01  1.36951523041212E+00
(PID.TID 0000.0001)  ploadbar=  1.01037344707772E+05
 cg2d: Sum(rhs),rhsMax =  -6.84660330770483E+01  1.36307202141822E+00
(PID.TID 0000.0001)  ploadbar=  1.01037410919083E+05
 cg2d: Sum(rhs),rhsMax =  -6.87274903613185E+01  1.35725627054875E+00
(PID.TID 0000.0001)  ploadbar=  1.01037477130394E+05
 cg2d: Sum(rhs),rhsMax =  -6.89440931513068E+01  1.35233235848999E+00
(PID.TID 0000.0001)  ploadbar=  1.01037543341706E+05
 cg2d: Sum(rhs),rhsMax =  -6.91369718647278E+01  1.34786331506139E+00
(PID.TID 0000.0001)  ploadbar=  1.01037609553017E+05
 cg2d: Sum(rhs),rhsMax =  -6.92586693973493E+01  1.34484502103919E+00
(PID.TID 0000.0001)  ploadbar=  1.01036062398609E+05
 cg2d: Sum(rhs),rhsMax =  -6.94333766410182E+01  1.34085499398895E+00
(PID.TID 0000.0001)  ploadbar=  1.01034515244201E+05
 cg2d: Sum(rhs),rhsMax =  -6.96780100046755E+01  1.33558119827518E+00
(PID.TID 0000.0001)  ploadbar=  1.01032968089792E+05
 cg2d: Sum(rhs),rhsMax =  -7.00407061161832E+01  1.32813594982502E+00
(PID.TID 0000.0001)  ploadbar=  1.01031420935384E+05
 cg2d: Sum(rhs),rhsMax =  -7.06153063464346E+01  1.31683597371659E+00
(PID.TID 0000.0001)  ploadbar=  1.01029873780976E+05
 cg2d: Sum(rhs),rhsMax =  -7.13306446629307E+01  1.30317033530316E+00
(PID.TID 0000.0001)  ploadbar=  1.01028326626568E+05
 cg2d: Sum(rhs),rhsMax =  -7.07943661491514E+01  1.31259667464822E+00
(PID.TID 0000.0001)  ploadbar=  1.01028130041051E+05
 cg2d: Sum(rhs),rhsMax =  -7.02592442232685E+01  1.32215863826579E+00
(PID.TID 0000.0001)  ploadbar=  1.01027933455534E+05
 cg2d: Sum(rhs),rhsMax =  -6.97742637137844E+01  1.33092151532419E+00
(PID.TID 0000.0001)  ploadbar=  1.01027736870018E+05
 cg2d: Sum(rhs),rhsMax =  -6.93345426345826E+01  1.33893964150256E+00
(PID.TID 0000.0001)  ploadbar=  1.01027540284501E+05
 cg2d: Sum(rhs),rhsMax =  -6.89394195506823E+01  1.34618969805767E+00
(PID.TID 0000.0001)  ploadbar=  1.01027343698984E+05
 cg2d: Sum(rhs),rhsMax =  -6.85905767709077E+01  1.35260374082344E+00
(PID.TID 0000.0001)  ploadbar=  1.01027147113467E+05
 cg2d: Sum(rhs),rhsMax =  -6.88961086000778E+01  1.34618204675532E+00
(PID.TID 0000.0001)  ploadbar=  1.01025685098762E+05
 cg2d: Sum(rhs),rhsMax =  -6.98636044206119E+01  1.32712528009313E+00
(PID.TID 0000.0001)  ploadbar=  1.01024223084057E+05
 cg2d: Sum(rhs),rhsMax =  -7.09531126982630E+01  1.30633838319659E+00
(PID.TID 0000.0001)  ploadbar=  1.01022761069352E+05
 cg2d: Sum(rhs),rhsMax =  -7.21324243551880E+01  1.28457525342718E+00
(PID.TID 0000.0001)  ploadbar=  1.01021299054647E+05
 cg2d: Sum(rhs),rhsMax =  -7.33489393203722E+01  1.26286354682426E+00
(PID.TID 0000.0001)  ploadbar=  1.01019837039942E+05
 cg2d: Sum(rhs),rhsMax =  -7.45531230745967E+01  1.24205421423654E+00
(PID.TID 0000.0001)  ploadbar=  1.01018375025237E+05
 cg2d: Sum(rhs),rhsMax =  -7.56715666711580E+01  1.22329912383852E+00
(PID.TID 0000.0001)  ploadbar=  1.01017781457338E+05
 cg2d: Sum(rhs),rhsMax =  -7.59196230884410E+01  1.21891086047806E+00
(PID.TID 0000.0001)  ploadbar=  1.01017187889439E+05
 cg2d: Sum(rhs),rhsMax =  -7.53855751644689E+01  1.22715229417556E+00
(PID.TID 0000.0001)  ploadbar=  1.01016594321540E+05
 cg2d: Sum(rhs),rhsMax =  -7.49039952466151E+01  1.23463951631421E+00
(PID.TID 0000.0001)  ploadbar=  1.01016000753641E+05
 cg2d: Sum(rhs),rhsMax =  -7.44716461366461E+01  1.24139020461114E+00
(PID.TID 0000.0001)  ploadbar=  1.01015407185742E+05
 cg2d: Sum(rhs),rhsMax =  -7.36738436655151E+01  1.25439263518307E+00
(PID.TID 0000.0001)  ploadbar=  1.01014813617843E+05
 cg2d: Sum(rhs),rhsMax =  -7.27876759576945E+01  1.26927026680093E+00
(PID.TID 0000.0001)  ploadbar=  1.01012779750481E+05
 cg2d: Sum(rhs),rhsMax =  -7.19409851456046E+01  1.28385829726714E+00
(PID.TID 0000.0001)  ploadbar=  1.01010745883119E+05
 cg2d: Sum(rhs),rhsMax =  -7.12172087507762E+01  1.29659577853813E+00
(PID.TID 0000.0001)  ploadbar=  1.01008712015757E+05
 cg2d: Sum(rhs),rhsMax =  -7.06322867780281E+01  1.30705828705213E+00
(PID.TID 0000.0001)  ploadbar=  1.01006678148394E+05
 cg2d: Sum(rhs),rhsMax =  -7.01417240266427E+01  1.31595796807174E+00
(PID.TID 0000.0001)  ploadbar=  1.01004644281032E+05
 cg2d: Sum(rhs),rhsMax =  -6.97361263335937E+01  1.32340081913917E+00
(PID.TID 0000.0001)  ploadbar=  1.01002610413670E+05
 cg2d: Sum(rhs),rhsMax =  -6.94021812355062E+01  1.32954308811977E+00
(PID.TID 0000.0001)  ploadbar=  1.01001064189936E+05
 cg2d: Sum(rhs),rhsMax =  -6.91244247870822E+01  1.33464300644862E+00
(PID.TID 0000.0001)  ploadbar=  1.00999517966202E+05
 cg2d: Sum(rhs),rhsMax =  -6.88935652544067E+01  1.33885378018292E+00
(PID.TID 0000.0001)  ploadbar=  1.00997971742467E+05
 cg2d: Sum(rhs),rhsMax =  -6.87014657608450E+01  1.34231245626017E+00
(PID.TID 0000.0001)  ploadbar=  1.00996425518733E+05
 cg2d: Sum(rhs),rhsMax =  -6.85410079296978E+01  1.34514346246783E+00
(PID.TID 0000.0001)  ploadbar=  1.00994879294999E+05
 cg2d: Sum(rhs),rhsMax =  -6.84050541011642E+01  1.34747551365426E+00
(PID.TID 0000.0001)  ploadbar=  1.00993333071264E+05
 cg2d: Sum(rhs),rhsMax =  -6.83569734444517E+01  1.34808816986271E+00
(PID.TID 0000.0001)  ploadbar=  1.00992178829276E+05
 cg2d: Sum(rhs),rhsMax =  -6.83524631240435E+01  1.34784702192219E+00
(PID.TID 0000.0001)  ploadbar=  1.00991024587287E+05
 cg2d: Sum(rhs),rhsMax =  -6.83842845267331E+01  1.34689220071386E+00
(PID.TID 0000.0001)  ploadbar=  1.00989870345299E+05
 cg2d: Sum(rhs),rhsMax =  -6.84451614903388E+01  1.34536647435735E+00
(PID.TID 0000.0001)  ploadbar=  1.00988716103310E+05
 cg2d: Sum(rhs),rhsMax =  -6.89157001407438E+01  1.33584959319606E+00
(PID.TID 0000.0001)  ploadbar=  1.00987561861322E+05
 cg2d: Sum(rhs),rhsMax =  -6.90243084928972E+01  1.33340790806882E+00
(PID.TID 0000.0001)  ploadbar=  1.00986407619333E+05
 cg2d: Sum(rhs),rhsMax =  -6.86897927396446E+01  1.33949491535168E+00
(PID.TID 0000.0001)  ploadbar=  1.00984567320329E+05
 cg2d: Sum(rhs),rhsMax =  -6.83474115012922E+01  1.34572514442421E+00
(PID.TID 0000.0001)  ploadbar=  1.00982727021324E+05
 cg2d: Sum(rhs),rhsMax =  -6.80034769400377E+01  1.35196996351856E+00
(PID.TID 0000.0001)  ploadbar=  1.00980886722320E+05
 cg2d: Sum(rhs),rhsMax =  -6.73747450868957E+01  1.36393341750936E+00
(PID.TID 0000.0001)  ploadbar=  1.00979046423315E+05
 cg2d: Sum(rhs),rhsMax =  -6.63631576222381E+01  1.38397070073578E+00
(PID.TID 0000.0001)  ploadbar=  1.00977206124311E+05
 cg2d: Sum(rhs),rhsMax =  -6.54355234651958E+01  1.40272979404519E+00
(PID.TID 0000.0001)  ploadbar=  1.00975365825306E+05
 cg2d: Sum(rhs),rhsMax =  -6.45674006382830E+01  1.42080435460679E+00
(PID.TID 0000.0001)  ploadbar=  1.00975145213454E+05
 cg2d: Sum(rhs),rhsMax =  -6.37391151273134E+01  1.43855756679474E+00
(PID.TID 0000.0001)  ploadbar=  1.00974924601601E+05
 cg2d: Sum(rhs),rhsMax =  -6.29545642824031E+01  1.45585002380098E+00
(PID.TID 0000.0001)  ploadbar=  1.00974703989749E+05
 cg2d: Sum(rhs),rhsMax =  -6.22332353788551E+01  1.47216110110981E+00
(PID.TID 0000.0001)  ploadbar=  1.00974483377897E+05
 cg2d: Sum(rhs),rhsMax =  -6.15634510142878E+01  1.48768199849357E+00
(PID.TID 0000.0001)  ploadbar=  1.00974262766044E+05
 cg2d: Sum(rhs),rhsMax =  -6.09391134325287E+01  1.50249269448522E+00
(PID.TID 0000.0001)  ploadbar=  1.00974042154192E+05
 cg2d: Sum(rhs),rhsMax =  -6.03877126776584E+01  1.51576360120403E+00
(PID.TID 0000.0001)  ploadbar=  1.00975387966979E+05
 cg2d: Sum(rhs),rhsMax =  -5.99105524931237E+01  1.52736537996214E+00
(PID.TID 0000.0001)  ploadbar=  1.00976733779766E+05
 cg2d: Sum(rhs),rhsMax =  -5.95419967578345E+01  1.53631975377270E+00
(PID.TID 0000.0001)  ploadbar=  1.00978079592553E+05
 cg2d: Sum(rhs),rhsMax =  -5.93370354748811E+01  1.54109556351099E+00
(PID.TID 0000.0001)  ploadbar=  1.00979425405340E+05
 cg2d: Sum(rhs),rhsMax =  -5.92978808237576E+01  1.54154624676634E+00
(PID.TID 0000.0001)  ploadbar=  1.00980771218127E+05
 cg2d: Sum(rhs),rhsMax =  -5.94832965496808E+01  1.53613902787083E+00
(PID.TID 0000.0001)  ploadbar=  1.00982117030914E+05
 cg2d: Sum(rhs),rhsMax =  -5.97104741852201E+01  1.52970953356886E+00
(PID.TID 0000.0001)  ploadbar=  1.00984263034414E+05
 cg2d: Sum(rhs),rhsMax =  -5.99542071100495E+01  1.52291932102435E+00
(PID.TID 0000.0001)  ploadbar=  1.00986409037914E+05
 cg2d: Sum(rhs),rhsMax =  -6.01845942469206E+01  1.51652973502895E+00
(PID.TID 0000.0001)  ploadbar=  1.00988555041414E+05
 cg2d: Sum(rhs),rhsMax =  -6.03895050630945E+01  1.51083003368806E+00
(PID.TID 0000.0001)  ploadbar=  1.00990701044914E+05
 cg2d: Sum(rhs),rhsMax =  -6.05834344231977E+01  1.50543721734021E+00
(PID.TID 0000.0001)  ploadbar=  1.00992847048414E+05
 cg2d: Sum(rhs),rhsMax =  -6.07707535915999E+01  1.50023183816651E+00
(PID.TID 0000.0001)  ploadbar=  1.00994993051914E+05
 cg2d: Sum(rhs),rhsMax =  -6.09193934627402E+01  1.49596588293187E+00
(PID.TID 0000.0001)  ploadbar=  1.00996302107022E+05
 cg2d: Sum(rhs),rhsMax =  -6.10507928864288E+01  1.49209362963455E+00
(PID.TID 0000.0001)  ploadbar=  1.00997611162131E+05
 cg2d: Sum(rhs),rhsMax =  -6.11858614984416E+01  1.48809422013305E+00
(PID.TID 0000.0001)  ploadbar=  1.00998920217239E+05
 cg2d: Sum(rhs),rhsMax =  -6.13439594588574E+01  1.48349552422265E+00
(PID.TID 0000.0001)  ploadbar=  1.01000229272348E+05
 cg2d: Sum(rhs),rhsMax =  -6.15406054982414E+01  1.47793016387116E+00
(PID.TID 0000.0001)  ploadbar=  1.01001538327456E+05
 cg2d: Sum(rhs),rhsMax =  -6.17764416760023E+01  1.47139818574726E+00
(PID.TID 0000.0001)  ploadbar=  1.01002847382564E+05
 cg2d: Sum(rhs),rhsMax =  -6.19455858033084E+01  1.46657618970116E+00
(PID.TID 0000.0001)  ploadbar=  1.01003602346497E+05
 cg2d: Sum(rhs),rhsMax =  -6.20047633853427E+01  1.46445209270464E+00
(PID.TID 0000.0001)  ploadbar=  1.01004357310430E+05
 cg2d: Sum(rhs),rhsMax =  -6.19428874517017E+01  1.46526625406643E+00
(PID.TID 0000.0001)  ploadbar=  1.01005112274362E+05
 cg2d: Sum(rhs),rhsMax =  -6.18553322493495E+01  1.46676056283081E+00
(PID.TID 0000.0001)  ploadbar=  1.01005867238295E+05
 cg2d: Sum(rhs),rhsMax =  -6.17067026990254E+01  1.46977597548321E+00
(PID.TID 0000.0001)  ploadbar=  1.01006622202228E+05
 cg2d: Sum(rhs),rhsMax =  -6.15194212854626E+01  1.47379237373449E+00
(PID.TID 0000.0001)  ploadbar=  1.01007377166160E+05
 cg2d: Sum(rhs),rhsMax =  -6.13173927623320E+01  1.47817375646728E+00
(PID.TID 0000.0001)  ploadbar=  1.01007678338238E+05
 cg2d: Sum(rhs),rhsMax =  -6.10838135851166E+01  1.48332974012906E+00
(PID.TID 0000.0001)  ploadbar=  1.01007979510316E+05
 cg2d: Sum(rhs),rhsMax =  -6.07349157831240E+01  1.49132784801183E+00
(PID.TID 0000.0001)  ploadbar=  1.01008280682394E+05
 cg2d: Sum(rhs),rhsMax =  -6.04564327549157E+01  1.49764618576584E+00
(PID.TID 0000.0001)  ploadbar=  1.01008581854472E+05
 cg2d: Sum(rhs),rhsMax =  -6.02499139864663E+01  1.50219433442593E+00
(PID.TID 0000.0001)  ploadbar=  1.01008883026550E+05
 cg2d: Sum(rhs),rhsMax =  -6.01115653001059E+01  1.50503197195081E+00
(PID.TID 0000.0001)  ploadbar=  1.01009184198628E+05
 cg2d: Sum(rhs),rhsMax =  -6.00838455614889E+01  1.50513251513968E+00
(PID.TID 0000.0001)  ploadbar=  1.01010346408673E+05
 cg2d: Sum(rhs),rhsMax =  -6.01543965601543E+01  1.50279803965265E+00
(PID.TID 0000.0001)  ploadbar=  1.01011508618718E+05
 cg2d: Sum(rhs),rhsMax =  -6.03510368480659E+01  1.49735305499296E+00
(PID.TID 0000.0001)  ploadbar=  1.01012670828764E+05
 cg2d: Sum(rhs),rhsMax =  -6.06307865422589E+01  1.48991592147122E+00
(PID.TID 0000.0001)  ploadbar=  1.01013833038809E+05
 cg2d: Sum(rhs),rhsMax =  -6.09680798347724E+01  1.48116288253356E+00
(PID.TID 0000.0001)  ploadbar=  1.01014995248855E+05
 cg2d: Sum(rhs),rhsMax =  -6.13501510492722E+01  1.47144406942604E+00
(PID.TID 0000.0001)  ploadbar=  1.01016157458900E+05
 cg2d: Sum(rhs),rhsMax =  -6.17139562812770E+01  1.46224408232719E+00
(PID.TID 0000.0001)  ploadbar=  1.01016220913864E+05
 cg2d: Sum(rhs),rhsMax =  -6.20739479683867E+01  1.45320308609629E+00
(PID.TID 0000.0001)  ploadbar=  1.01016284368828E+05
 cg2d: Sum(rhs),rhsMax =  -6.24304543498357E+01  1.44430468495753E+00
(PID.TID 0000.0001)  ploadbar=  1.01016347823792E+05
 cg2d: Sum(rhs),rhsMax =  -6.27900037062206E+01  1.43539145094019E+00
(PID.TID 0000.0001)  ploadbar=  1.01016411278756E+05
 cg2d: Sum(rhs),rhsMax =  -6.27470719730815E+01  1.43568091911227E+00
(PID.TID 0000.0001)  ploadbar=  1.01016474733720E+05
 cg2d: Sum(rhs),rhsMax =  -6.25836188585073E+01  1.43868460855562E+00
(PID.TID 0000.0001)  ploadbar=  1.01016538188684E+05
 cg2d: Sum(rhs),rhsMax =  -6.24689183138515E+01  1.44066268890232E+00
(PID.TID 0000.0001)  ploadbar=  1.01016526352173E+05
 cg2d: Sum(rhs),rhsMax =  -6.24336816247138E+01  1.44089550170346E+00
(PID.TID 0000.0001)  ploadbar=  1.01016514515662E+05
 cg2d: Sum(rhs),rhsMax =  -6.25118573466027E+01  1.43859077253472E+00
(PID.TID 0000.0001)  ploadbar=  1.01016502679151E+05
 cg2d: Sum(rhs),rhsMax =  -6.25386193209224E+01  1.43754389751926E+00
(PID.TID 0000.0001)  ploadbar=  1.01016490842640E+05
 cg2d: Sum(rhs),rhsMax =  -6.25425298768377E+01  1.43708754858542E+00
(PID.TID 0000.0001)  ploadbar=  1.01016479006129E+05
 cg2d: Sum(rhs),rhsMax =  -6.25444436232824E+01  1.43673946742749E+00
(PID.TID 0000.0001)  ploadbar=  1.01016467169618E+05
 cg2d: Sum(rhs),rhsMax =  -6.24385841431910E+01  1.43882968843736E+00
(PID.TID 0000.0001)  ploadbar=  1.01016464372037E+05
 cg2d: Sum(rhs),rhsMax =  -6.22082846752004E+01  1.44376587730562E+00
(PID.TID 0000.0001)  ploadbar=  1.01016461574456E+05
 cg2d: Sum(rhs),rhsMax =  -6.19602365937151E+01  1.44910758983812E+00
(PID.TID 0000.0001)  ploadbar=  1.01016458776876E+05
 cg2d: Sum(rhs),rhsMax =  -6.17271615512843E+01  1.45409232222198E+00
(PID.TID 0000.0001)  ploadbar=  1.01016455979295E+05
 cg2d: Sum(rhs),rhsMax =  -6.15055308973794E+01  1.45879317879801E+00
(PID.TID 0000.0001)  ploadbar=  1.01016453181714E+05
 cg2d: Sum(rhs),rhsMax =  -6.13066019569821E+01  1.46293220138431E+00
(PID.TID 0000.0001)  ploadbar=  1.01016450384134E+05
 cg2d: Sum(rhs),rhsMax =  -6.11936760608768E+01  1.46504803094806E+00
(PID.TID 0000.0001)  ploadbar=  1.01016073625951E+05
 cg2d: Sum(rhs),rhsMax =  -6.08169333716187E+01  1.47354495431683E+00
(PID.TID 0000.0001)  ploadbar=  1.01015696867768E+05
 cg2d: Sum(rhs),rhsMax =  -6.03698323534939E+01  1.48387872182944E+00
(PID.TID 0000.0001)  ploadbar=  1.01015320109584E+05
 cg2d: Sum(rhs),rhsMax =  -5.99730834170785E+01  1.49311052087976E+00
(PID.TID 0000.0001)  ploadbar=  1.01014943351401E+05
 cg2d: Sum(rhs),rhsMax =  -5.96123681968266E+01  1.50155091316071E+00
(PID.TID 0000.0001)  ploadbar=  1.01014566593218E+05
 cg2d: Sum(rhs),rhsMax =  -5.93028677630995E+01  1.50877494065095E+00
(PID.TID 0000.0001)  ploadbar=  1.01014189835035E+05
 cg2d: Sum(rhs),rhsMax =  -5.90712376466011E+01  1.51399494090129E+00
(PID.TID 0000.0001)  ploadbar=  1.01014384518494E+05
 cg2d: Sum(rhs),rhsMax =  -5.89456565712922E+01  1.51643875043597E+00
(PID.TID 0000.0001)  ploadbar=  1.01014579201953E+05
 cg2d: Sum(rhs),rhsMax =  -5.89399336524639E+01  1.51571592798062E+00
(PID.TID 0000.0001)  ploadbar=  1.01014773885412E+05
 cg2d: Sum(rhs),rhsMax =  -5.90596607672046E+01  1.51168226707339E+00
(PID.TID 0000.0001)  ploadbar=  1.01014968568870E+05
 cg2d: Sum(rhs),rhsMax =  -5.93069510193979E+01  1.50432466020484E+00
(PID.TID 0000.0001)  ploadbar=  1.01015163252329E+05
 cg2d: Sum(rhs),rhsMax =  -5.96815060239578E+01  1.49373337508108E+00
(PID.TID 0000.0001)  ploadbar=  1.01015357935788E+05
 cg2d: Sum(rhs),rhsMax =  -6.01107453050996E+01  1.48201454412917E+00
(PID.TID 0000.0001)  ploadbar=  1.01017287262426E+05
 cg2d: Sum(rhs),rhsMax =  -6.05746021278357E+01  1.46970823253122E+00
(PID.TID 0000.0001)  ploadbar=  1.01019216589063E+05
 cg2d: Sum(rhs),rhsMax =  -6.10633578377100E+01  1.45707739279245E+00
(PID.TID 0000.0001)  ploadbar=  1.01021145915701E+05
 cg2d: Sum(rhs),rhsMax =  -6.15760196255322E+01  1.44416214655370E+00
(PID.TID 0000.0001)  ploadbar=  1.01023075242338E+05
 cg2d: Sum(rhs),rhsMax =  -6.21243120863505E+01  1.43070788630197E+00
(PID.TID 0000.0001)  ploadbar=  1.01025004568976E+05
 cg2d: Sum(rhs),rhsMax =  -6.27317175196850E+01  1.41621609298245E+00
(PID.TID 0000.0001)  ploadbar=  1.01026933895614E+05
 cg2d: Sum(rhs),rhsMax =  -6.33557235253805E+01  1.40163241452873E+00
(PID.TID 0000.0001)  ploadbar=  1.01027798362240E+05
 cg2d: Sum(rhs),rhsMax =  -6.40121963754573E+01  1.38662274434011E+00
(PID.TID 0000.0001)  ploadbar=  1.01028662828866E+05
 cg2d: Sum(rhs),rhsMax =  -6.47046256413027E+01  1.37114528067989E+00
(PID.TID 0000.0001)  ploadbar=  1.01029527295493E+05
 cg2d: Sum(rhs),rhsMax =  -6.54389794614453E+01  1.35511234448108E+00
(PID.TID 0000.0001)  ploadbar=  1.01030391762119E+05
 cg2d: Sum(rhs),rhsMax =  -6.62146431863251E+01  1.33858168297290E+00
(PID.TID 0000.0001)  ploadbar=  1.01031256228745E+05
 cg2d: Sum(rhs),rhsMax =  -6.70258803073791E+01  1.32170981080307E+00
(PID.TID 0000.0001)  ploadbar=  1.01032120695372E+05
 cg2d: Sum(rhs),rhsMax =  -6.78575936758924E+01  1.30486113772169E+00
(PID.TID 0000.0001)  ploadbar=  1.01032101010373E+05
 cg2d: Sum(rhs),rhsMax =  -6.87181183394443E+01  1.28788945818233E+00
(PID.TID 0000.0001)  ploadbar=  1.01032081325375E+05
 cg2d: Sum(rhs),rhsMax =  -6.95954715656855E+01  1.27103269986311E+00
(PID.TID 0000.0001)  ploadbar=  1.01032061640376E+05
 cg2d: Sum(rhs),rhsMax =  -7.05051572059823E+01  1.25401380889038E+00
(PID.TID 0000.0001)  ploadbar=  1.01032041955377E+05
 cg2d: Sum(rhs),rhsMax =  -7.14351923792573E+01  1.23706237527968E+00
(PID.TID 0000.0001)  ploadbar=  1.01032022270379E+05
 cg2d: Sum(rhs),rhsMax =  -7.23804899094880E+01  1.22026841265476E+00
(PID.TID 0000.0001)  ploadbar=  1.01032002585380E+05
 cg2d: Sum(rhs),rhsMax =  -7.33315542047845E+01  1.20379804139543E+00
(PID.TID 0000.0001)  ploadbar=  1.01031874190495E+05
 cg2d: Sum(rhs),rhsMax =  -7.35278850301077E+01  1.19992242326744E+00
(PID.TID 0000.0001)  ploadbar=  1.01031745795609E+05
 cg2d: Sum(rhs),rhsMax =  -7.32921468909233E+01  1.20309386024097E+00
(PID.TID 0000.0001)  ploadbar=  1.01031617400723E+05
 cg2d: Sum(rhs),rhsMax =  -7.30522935833183E+01  1.20632402945489E+00
(PID.TID 0000.0001)  ploadbar=  1.01031489005837E+05
 cg2d: Sum(rhs),rhsMax =  -7.28076700248743E+01  1.20961999584492E+00
(PID.TID 0000.0001)  ploadbar=  1.01031360610952E+05
 cg2d: Sum(rhs),rhsMax =  -7.25577856025904E+01  1.21298539733847E+00
(PID.TID 0000.0001)  ploadbar=  1.01031232216066E+05
 cg2d: Sum(rhs),rhsMax =  -7.23193742098373E+01  1.21624322401333E+00
(PID.TID 0000.0001)  ploadbar=  1.01030705536192E+05
 cg2d: Sum(rhs),rhsMax =  -7.20868425410875E+01  1.21948446737755E+00
(PID.TID 0000.0001)  ploadbar=  1.01030178856319E+05
 cg2d: Sum(rhs),rhsMax =  -7.18567877610646E+01  1.22276481255096E+00
(PID.TID 0000.0001)  ploadbar=  1.01029652176445E+05
 cg2d: Sum(rhs),rhsMax =  -7.16335461854899E+01  1.22600447917976E+00
(PID.TID 0000.0001)  ploadbar=  1.01029125496571E+05
 cg2d: Sum(rhs),rhsMax =  -7.14174381209026E+01  1.22919127120474E+00
(PID.TID 0000.0001)  ploadbar=  1.01028598816697E+05
 cg2d: Sum(rhs),rhsMax =  -7.12077449170236E+01  1.23233374376441E+00
(PID.TID 0000.0001)  ploadbar=  1.01028072136824E+05
 cg2d: Sum(rhs),rhsMax =  -7.10085154018746E+01  1.23531170649798E+00
(PID.TID 0000.0001)  ploadbar=  1.01027692275503E+05
 cg2d: Sum(rhs),rhsMax =  -7.08199430932475E+01  1.23811522254105E+00
(PID.TID 0000.0001)  ploadbar=  1.01027312414182E+05
 cg2d: Sum(rhs),rhsMax =  -7.06343561572364E+01  1.24086869341789E+00
(PID.TID 0000.0001)  ploadbar=  1.01026932552861E+05
 cg2d: Sum(rhs),rhsMax =  -7.04511571845516E+01  1.24357827610111E+00
(PID.TID 0000.0001)  ploadbar=  1.01026552691540E+05
 cg2d: Sum(rhs),rhsMax =  -7.02723393540364E+01  1.24620227200522E+00
(PID.TID 0000.0001)  ploadbar=  1.01026172830219E+05
 cg2d: Sum(rhs),rhsMax =  -7.00972558691030E+01  1.24874385213618E+00
(PID.TID 0000.0001)  ploadbar=  1.01025792968898E+05
 cg2d: Sum(rhs),rhsMax =  -6.99122883578475E+01  1.25148531301917E+00
(PID.TID 0000.0001)  ploadbar=  1.01024552631051E+05
 cg2d: Sum(rhs),rhsMax =  -6.97294387234522E+01  1.25420969690666E+00
(PID.TID 0000.0001)  ploadbar=  1.01023312293204E+05
 cg2d: Sum(rhs),rhsMax =  -6.95519755562320E+01  1.25685079155578E+00
(PID.TID 0000.0001)  ploadbar=  1.01022071955357E+05
 cg2d: Sum(rhs),rhsMax =  -6.93755645007542E+01  1.25948148992334E+00
(PID.TID 0000.0001)  ploadbar=  1.01020831617509E+05
 cg2d: Sum(rhs),rhsMax =  -6.92007350752148E+01  1.26208869363381E+00
(PID.TID 0000.0001)  ploadbar=  1.01019591279662E+05
 cg2d: Sum(rhs),rhsMax =  -6.90267338531328E+01  1.26468085235809E+00
(PID.TID 0000.0001)  ploadbar=  1.01018350941815E+05
 cg2d: Sum(rhs),rhsMax =  -6.88597636603530E+01  1.26714673761098E+00
(PID.TID 0000.0001)  ploadbar=  1.01018751714842E+05
 cg2d: Sum(rhs),rhsMax =  -6.86950186623861E+01  1.26956832865184E+00
(PID.TID 0000.0001)  ploadbar=  1.01019152487869E+05
 cg2d: Sum(rhs),rhsMax =  -6.85321908449230E+01  1.27194610755403E+00
(PID.TID 0000.0001)  ploadbar=  1.01019553260897E+05
 cg2d: Sum(rhs),rhsMax =  -6.83692729229477E+01  1.27430822742110E+00
(PID.TID 0000.0001)  ploadbar=  1.01019954033924E+05
 cg2d: Sum(rhs),rhsMax =  -6.82056752782000E+01  1.27666042003402E+00
(PID.TID 0000.0001)  ploadbar=  1.01020354806951E+05
 cg2d: Sum(rhs),rhsMax =  -6.80407978481941E+01  1.27900838490762E+00
(PID.TID 0000.0001)  ploadbar=  1.01020755579978E+05
 cg2d: Sum(rhs),rhsMax =  -6.77984329819823E+01  1.28290079711455E+00
(PID.TID 0000.0001)  ploadbar=  1.01019510264387E+05
 cg2d: Sum(rhs),rhsMax =  -6.68357131222670E+01  1.30075682184486E+00
(PID.TID 0000.0001)  ploadbar=  1.01018264948796E+05
 cg2d: Sum(rhs),rhsMax =  -6.55689265597560E+01  1.32531399448098E+00
(PID.TID 0000.0001)  ploadbar=  1.01017019633205E+05
 cg2d: Sum(rhs),rhsMax =  -6.41004755738335E+01  1.35514434565103E+00
(PID.TID 0000.0001)  ploadbar=  1.01015774317614E+05
 cg2d: Sum(rhs),rhsMax =  -6.25847740466039E+01  1.38747426721479E+00
(PID.TID 0000.0001)  ploadbar=  1.01014529002023E+05
 cg2d: Sum(rhs),rhsMax =  -6.10363650025838E+01  1.42221572344192E+00
(PID.TID 0000.0001)  ploadbar=  1.01013283686432E+05
 cg2d: Sum(rhs),rhsMax =  -5.97521754367752E+01  1.45229553833873E+00
(PID.TID 0000.0001)  ploadbar=  1.01011703777050E+05
 cg2d: Sum(rhs),rhsMax =  -5.87004370781352E+01  1.47779959531392E+00
(PID.TID 0000.0001)  ploadbar=  1.01010123867667E+05
 cg2d: Sum(rhs),rhsMax =  -5.73884200549482E+01  1.51103585245836E+00
(PID.TID 0000.0001)  ploadbar=  1.01008543958284E+05
 cg2d: Sum(rhs),rhsMax =  -5.59426722185412E+01  1.54949643389124E+00
(PID.TID 0000.0001)  ploadbar=  1.01006964048902E+05
 cg2d: Sum(rhs),rhsMax =  -5.47856793073157E+01  1.58159090855917E+00
(PID.TID 0000.0001)  ploadbar=  1.01005384139519E+05
 cg2d: Sum(rhs),rhsMax =  -5.39070387222448E+01  1.60669756188502E+00
(PID.TID 0000.0001)  ploadbar=  1.01003804230136E+05
 cg2d: Sum(rhs),rhsMax =  -5.32232492597361E+01  1.62665367860910E+00
(PID.TID 0000.0001)  ploadbar=  1.01001571121170E+05
 cg2d: Sum(rhs),rhsMax =  -5.27070863833509E+01  1.64187850766252E+00
(PID.TID 0000.0001)  ploadbar=  1.00999338012204E+05
 cg2d: Sum(rhs),rhsMax =  -5.23340519009280E+01  1.65285041940178E+00
(PID.TID 0000.0001)  ploadbar=  1.00997104903238E+05
 cg2d: Sum(rhs),rhsMax =  -5.20798599074653E+01  1.66015402423933E+00
(PID.TID 0000.0001)  ploadbar=  1.00994871794272E+05
 cg2d: Sum(rhs),rhsMax =  -5.19174845263704E+01  1.66454346796719E+00
(PID.TID 0000.0001)  ploadbar=  1.00992638685306E+05
 cg2d: Sum(rhs),rhsMax =  -5.18139242130678E+01  1.66702143315380E+00
(PID.TID 0000.0001)  ploadbar=  1.00990405576339E+05
 cg2d: Sum(rhs),rhsMax =  -5.17156357838394E+01  1.66932028508765E+00
(PID.TID 0000.0001)  ploadbar=  1.00989598455810E+05
 cg2d: Sum(rhs),rhsMax =  -5.16285231661195E+01  1.67124475655505E+00
(PID.TID 0000.0001)  ploadbar=  1.00988791335281E+05
 cg2d: Sum(rhs),rhsMax =  -5.07442905115599E+01  1.69942762027693E+00
(PID.TID 0000.0001)  ploadbar=  1.00987984214751E+05
 cg2d: Sum(rhs),rhsMax =  -5.00213378266184E+01  1.72299732379102E+00
(PID.TID 0000.0001)  ploadbar=  1.00987177094222E+05
 cg2d: Sum(rhs),rhsMax =  -4.95238096164238E+01  1.73926074791831E+00
(PID.TID 0000.0001)  ploadbar=  1.00986369973693E+05
 cg2d: Sum(rhs),rhsMax =  -4.92196288277420E+01  1.74890201449956E+00
(PID.TID 0000.0001)  ploadbar=  1.00985562853164E+05
 cg2d: Sum(rhs),rhsMax =  -4.89572034414337E+01  1.75725447132297E+00
(PID.TID 0000.0001)  ploadbar=  1.00985926816625E+05
 cg2d: Sum(rhs),rhsMax =  -4.87948080365192E+01  1.76216590250263E+00
(PID.TID 0000.0001)  ploadbar=  1.00986290780086E+05
 cg2d: Sum(rhs),rhsMax =  -4.87010758763847E+01  1.76470091371954E+00
(PID.TID 0000.0001)  ploadbar=  1.00986654743547E+05
 cg2d: Sum(rhs),rhsMax =  -4.86598075481834E+01  1.76541554216712E+00
(PID.TID 0000.0001)  ploadbar=  1.00987018707008E+05
 cg2d: Sum(rhs),rhsMax =  -4.86655395023907E+01  1.76449622588294E+00
(PID.TID 0000.0001)  ploadbar=  1.00987382670469E+05
 cg2d: Sum(rhs),rhsMax =  -4.87205904611679E+01  1.76185719093852E+00
(PID.TID 0000.0001)  ploadbar=  1.00987746633929E+05
 cg2d: Sum(rhs),rhsMax =  -4.88038338836947E+01  1.75819274642745E+00
(PID.TID 0000.0001)  ploadbar=  1.00988892783922E+05
 cg2d: Sum(rhs),rhsMax =  -4.88878580901967E+01  1.75448926119812E+00
(PID.TID 0000.0001)  ploadbar=  1.00990038933915E+05
 cg2d: Sum(rhs),rhsMax =  -4.89908865908994E+01  1.75008902983256E+00
(PID.TID 0000.0001)  ploadbar=  1.00991185083907E+05
 cg2d: Sum(rhs),rhsMax =  -4.95341205668197E+01  1.73015931527243E+00
(PID.TID 0000.0001)  ploadbar=  1.00992331233900E+05
 cg2d: Sum(rhs),rhsMax =  -5.01330655414482E+01  1.70872187266852E+00
(PID.TID 0000.0001)  ploadbar=  1.00993477383892E+05
 cg2d: Sum(rhs),rhsMax =  -5.07898071736665E+01  1.68582984493487E+00
(PID.TID 0000.0001)  ploadbar=  1.00994623533885E+05
 cg2d: Sum(rhs),rhsMax =  -5.15496745462883E+01  1.66020866069180E+00
(PID.TID 0000.0001)  ploadbar=  1.00994863360263E+05
 cg2d: Sum(rhs),rhsMax =  -5.19848400414522E+01  1.64555411203009E+00
(PID.TID 0000.0001)  ploadbar=  1.00995103186641E+05
 cg2d: Sum(rhs),rhsMax =  -5.19227157531297E+01  1.64677058126935E+00
(PID.TID 0000.0001)  ploadbar=  1.00995343013020E+05
 cg2d: Sum(rhs),rhsMax =  -5.18812690434039E+01  1.64733158374584E+00
(PID.TID 0000.0001)  ploadbar=  1.00995582839398E+05
 cg2d: Sum(rhs),rhsMax =  -5.18734724206773E+01  1.64681717029001E+00
(PID.TID 0000.0001)  ploadbar=  1.00995822665776E+05
 cg2d: Sum(rhs),rhsMax =  -5.18937565559121E+01  1.64539644646210E+00
(PID.TID 0000.0001)  ploadbar=  1.00996062492154E+05
 cg2d: Sum(rhs),rhsMax =  -5.20264605794201E+01  1.64039092059441E+00
(PID.TID 0000.0001)  ploadbar=  1.00996889994310E+05
 cg2d: Sum(rhs),rhsMax =  -5.22766708178857E+01  1.63169249842436E+00
(PID.TID 0000.0001)  ploadbar=  1.00997717496466E+05
 cg2d: Sum(rhs),rhsMax =  -5.26358126489740E+01  1.61966878359115E+00
(PID.TID 0000.0001)  ploadbar=  1.00998544998622E+05
 cg2d: Sum(rhs),rhsMax =  -5.30066287558881E+01  1.60739417011804E+00
(PID.TID 0000.0001)  ploadbar=  1.00999372500777E+05
 cg2d: Sum(rhs),rhsMax =  -5.33633124325800E+01  1.59564429046754E+00
(PID.TID 0000.0001)  ploadbar=  1.01000200002933E+05
 cg2d: Sum(rhs),rhsMax =  -5.37504896282734E+01  1.58307788437897E+00
(PID.TID 0000.0001)  ploadbar=  1.01001027505089E+05
 cg2d: Sum(rhs),rhsMax =  -5.43408047082099E+01  1.56491121843741E+00
(PID.TID 0000.0001)  ploadbar=  1.01002946391343E+05
 cg2d: Sum(rhs),rhsMax =  -5.51396687303360E+01  1.54137398145971E+00
(PID.TID 0000.0001)  ploadbar=  1.01004865277598E+05
 cg2d: Sum(rhs),rhsMax =  -5.61697365045698E+01  1.51234304616208E+00
(PID.TID 0000.0001)  ploadbar=  1.01006784163853E+05
 cg2d: Sum(rhs),rhsMax =  -5.74437192387635E+01  1.47813400494308E+00
(PID.TID 0000.0001)  ploadbar=  1.01008703050108E+05
 cg2d: Sum(rhs),rhsMax =  -5.89623929022462E+01  1.43948446481728E+00
(PID.TID 0000.0001)  ploadbar=  1.01010621936362E+05
 cg2d: Sum(rhs),rhsMax =  -6.07333194070618E+01  1.39701241918354E+00
(PID.TID 0000.0001)  ploadbar=  1.01012540822617E+05
 cg2d: Sum(rhs),rhsMax =  -6.23495446281111E+01  1.36029558982767E+00
(PID.TID 0000.0001)  ploadbar=  1.01013324178109E+05
 cg2d: Sum(rhs),rhsMax =  -6.38900409506186E+01  1.32698233805066E+00
(PID.TID 0000.0001)  ploadbar=  1.01014107533602E+05
 cg2d: Sum(rhs),rhsMax =  -6.52755485225160E+01  1.29828783162197E+00
(PID.TID 0000.0001)  ploadbar=  1.01014890889094E+05
 cg2d: Sum(rhs),rhsMax =  -6.65815389743021E+01  1.27227402567369E+00
(PID.TID 0000.0001)  ploadbar=  1.01015674244586E+05
 cg2d: Sum(rhs),rhsMax =  -6.79278436537674E+01  1.24648889076830E+00
(PID.TID 0000.0001)  ploadbar=  1.01016457600079E+05
 cg2d: Sum(rhs),rhsMax =  -6.92705718970575E+01  1.22173463310341E+00
(PID.TID 0000.0001)  ploadbar=  1.01017240955571E+05
 cg2d: Sum(rhs),rhsMax =  -6.92996839886259E+01  1.22064520606376E+00
(PID.TID 0000.0001)  ploadbar=  1.01017399538700E+05
 cg2d: Sum(rhs),rhsMax =  -6.91671489286835E+01  1.22242318707424E+00
(PID.TID 0000.0001)  ploadbar=  1.01017558121830E+05
 cg2d: Sum(rhs),rhsMax =  -6.89669693537992E+01  1.22542160247889E+00
(PID.TID 0000.0001)  ploadbar=  1.01017716704960E+05
 cg2d: Sum(rhs),rhsMax =  -6.87525449521949E+01  1.22870027730776E+00
(PID.TID 0000.0001)  ploadbar=  1.01017875288089E+05
 cg2d: Sum(rhs),rhsMax =  -6.86879540638446E+01  1.22931873535925E+00
(PID.TID 0000.0001)  ploadbar=  1.01018033871219E+05
 cg2d: Sum(rhs),rhsMax =  -6.89431459898934E+01  1.22423786878623E+00
(PID.TID 0000.0001)  ploadbar=  1.01018192454348E+05
 cg2d: Sum(rhs),rhsMax =  -6.96324050409833E+01  1.21160097099565E+00
(PID.TID 0000.0001)  ploadbar=  1.01018855723494E+05
 cg2d: Sum(rhs),rhsMax =  -7.05424790689508E+01  1.19545881788648E+00
(PID.TID 0000.0001)  ploadbar=  1.01019518992639E+05
 cg2d: Sum(rhs),rhsMax =  -7.14851009441760E+01  1.17918528208853E+00
(PID.TID 0000.0001)  ploadbar=  1.01020182261785E+05
 cg2d: Sum(rhs),rhsMax =  -7.22895354288706E+01  1.16554674387579E+00
(PID.TID 0000.0001)  ploadbar=  1.01020845530931E+05
 cg2d: Sum(rhs),rhsMax =  -7.30363685109297E+01  1.15310181262687E+00
(PID.TID 0000.0001)  ploadbar=  1.01021508800076E+05
 cg2d: Sum(rhs),rhsMax =  -7.37965816596865E+01  1.14068425407139E+00
(PID.TID 0000.0001)  ploadbar=  1.01022172069222E+05
 cg2d: Sum(rhs),rhsMax =  -7.46052140403436E+01  1.12782868769690E+00
(PID.TID 0000.0001)  ploadbar=  1.01021569659015E+05
 cg2d: Sum(rhs),rhsMax =  -7.54252831992884E+01  1.11511839787517E+00
(PID.TID 0000.0001)  ploadbar=  1.01020967248808E+05
 cg2d: Sum(rhs),rhsMax =  -7.62378277932462E+01  1.10282462056916E+00
(PID.TID 0000.0001)  ploadbar=  1.01020364838602E+05
 cg2d: Sum(rhs),rhsMax =  -7.70427414584424E+01  1.09092973405654E+00
(PID.TID 0000.0001)  ploadbar=  1.01019762428395E+05
 cg2d: Sum(rhs),rhsMax =  -7.78103539458736E+01  1.07982727484078E+00
(PID.TID 0000.0001)  ploadbar=  1.01019160018188E+05
 cg2d: Sum(rhs),rhsMax =  -7.85142425769977E+01  1.06983428985032E+00
(PID.TID 0000.0001)  ploadbar=  1.01018557607981E+05
 cg2d: Sum(rhs),rhsMax =  -7.80535269733141E+01  1.07583158345118E+00
(PID.TID 0000.0001)  ploadbar=  1.01018327185611E+05
 cg2d: Sum(rhs),rhsMax =  -7.75624841994045E+01  1.08231701557650E+00
(PID.TID 0000.0001)  ploadbar=  1.01018096763241E+05
 cg2d: Sum(rhs),rhsMax =  -7.70814034241359E+01  1.08873553841962E+00
(PID.TID 0000.0001)  ploadbar=  1.01017866340871E+05
 cg2d: Sum(rhs),rhsMax =  -7.66256721118728E+01  1.09486079726302E+00
(PID.TID 0000.0001)  ploadbar=  1.01017635918501E+05
 cg2d: Sum(rhs),rhsMax =  -7.62016809817877E+01  1.10058468923356E+00
(PID.TID 0000.0001)  ploadbar=  1.01017405496131E+05
 cg2d: Sum(rhs),rhsMax =  -7.58122007864321E+01  1.10584790867885E+00
(PID.TID 0000.0001)  ploadbar=  1.01017175073761E+05
 cg2d: Sum(rhs),rhsMax =  -7.54713380407996E+01  1.11048732413368E+00
(PID.TID 0000.0001)  ploadbar=  1.01016921467923E+05
 cg2d: Sum(rhs),rhsMax =  -7.51667029703355E+01  1.11466329686279E+00
(PID.TID 0000.0001)  ploadbar=  1.01016667862085E+05
 cg2d: Sum(rhs),rhsMax =  -7.48885573129081E+01  1.11850347815031E+00
(PID.TID 0000.0001)  ploadbar=  1.01016414256248E+05
 cg2d: Sum(rhs),rhsMax =  -7.46316760606097E+01  1.12207401742796E+00
(PID.TID 0000.0001)  ploadbar=  1.01016160650410E+05
 cg2d: Sum(rhs),rhsMax =  -7.43881379543838E+01  1.12548649750906E+00
(PID.TID 0000.0001)  ploadbar=  1.01015907044572E+05
 cg2d: Sum(rhs),rhsMax =  -7.41557834815493E+01  1.12876722668438E+00
(PID.TID 0000.0001)  ploadbar=  1.01015653438734E+05
 cg2d: Sum(rhs),rhsMax =  -7.39430265143297E+01  1.13174251193280E+00
(PID.TID 0000.0001)  ploadbar=  1.01015340709851E+05
 cg2d: Sum(rhs),rhsMax =  -7.37497647791379E+01  1.13440415817512E+00
(PID.TID 0000.0001)  ploadbar=  1.01015027980967E+05
 cg2d: Sum(rhs),rhsMax =  -7.35823198601610E+01  1.13664555634711E+00
(PID.TID 0000.0001)  ploadbar=  1.01014715252083E+05
 cg2d: Sum(rhs),rhsMax =  -7.34423635300162E+01  1.13843050710347E+00
(PID.TID 0000.0001)  ploadbar=  1.01014402523199E+05
 cg2d: Sum(rhs),rhsMax =  -7.33250789074978E+01  1.13982194461438E+00
(PID.TID 0000.0001)  ploadbar=  1.01014089794315E+05
 cg2d: Sum(rhs),rhsMax =  -7.32353671050643E+01  1.14073749811860E+00
(PID.TID 0000.0001)  ploadbar=  1.01013777065432E+05
 cg2d: Sum(rhs),rhsMax =  -7.31847131292078E+01  1.14109101404124E+00
(PID.TID 0000.0001)  ploadbar=  1.01011683268199E+05
 cg2d: Sum(rhs),rhsMax =  -7.31659066974706E+01  1.14098980654985E+00
(PID.TID 0000.0001)  ploadbar=  1.01009589470967E+05
 cg2d: Sum(rhs),rhsMax =  -7.31784753180061E+01  1.14043635714934E+00
(PID.TID 0000.0001)  ploadbar=  1.01007495673734E+05
 cg2d: Sum(rhs),rhsMax =  -7.32204380838931E+01  1.13945933190240E+00
(PID.TID 0000.0001)  ploadbar=  1.01005401876502E+05
 cg2d: Sum(rhs),rhsMax =  -7.32855952177530E+01  1.13815576692535E+00
(PID.TID 0000.0001)  ploadbar=  1.01003308079269E+05
 cg2d: Sum(rhs),rhsMax =  -7.33759590856554E+01  1.13649490708018E+00
(PID.TID 0000.0001)  ploadbar=  1.01001214282037E+05
 cg2d: Sum(rhs),rhsMax =  -7.34786113559551E+01  1.13463969115393E+00
(PID.TID 0000.0001)  ploadbar=  1.01000538071634E+05
 cg2d: Sum(rhs),rhsMax =  -7.36055264542038E+01  1.13240537110465E+00
(PID.TID 0000.0001)  ploadbar=  1.00999861861231E+05
 cg2d: Sum(rhs),rhsMax =  -7.37637205219003E+01  1.12968652568600E+00
(PID.TID 0000.0001)  ploadbar=  1.00999185650828E+05
 cg2d: Sum(rhs),rhsMax =  -7.39597536983961E+01  1.12638496074899E+00
(PID.TID 0000.0001)  ploadbar=  1.00998509440425E+05
 cg2d: Sum(rhs),rhsMax =  -7.42047923722989E+01  1.12233613696080E+00
(PID.TID 0000.0001)  ploadbar=  1.00997833230022E+05
 cg2d: Sum(rhs),rhsMax =  -7.45192275194089E+01  1.11724551742350E+00
(PID.TID 0000.0001)  ploadbar=  1.00997157019619E+05
 cg2d: Sum(rhs),rhsMax =  -7.49168121996432E+01  1.11099206269340E+00
(PID.TID 0000.0001)  ploadbar=  1.00997155143457E+05
 cg2d: Sum(rhs),rhsMax =  -7.53940773849075E+01  1.10366302818093E+00
(PID.TID 0000.0001)  ploadbar=  1.00997153267296E+05
 cg2d: Sum(rhs),rhsMax =  -7.59575727229567E+01  1.09520346202591E+00
(PID.TID 0000.0001)  ploadbar=  1.00997151391135E+05
 cg2d: Sum(rhs),rhsMax =  -7.66154593112392E+01  1.08555017643434E+00
(PID.TID 0000.0001)  ploadbar=  1.00997149514974E+05
 cg2d: Sum(rhs),rhsMax =  -7.73730248750427E+01  1.07469331635835E+00
(PID.TID 0000.0001)  ploadbar=  1.00997147638813E+05
 cg2d: Sum(rhs),rhsMax =  -7.82312336764943E+01  1.06269267217685E+00
(PID.TID 0000.0001)  ploadbar=  1.00997145762652E+05
 cg2d: Sum(rhs),rhsMax =  -7.91221649069188E+01  1.05050848977880E+00
(PID.TID 0000.0001)  ploadbar=  1.00996845375735E+05
 cg2d: Sum(rhs),rhsMax =  -8.00227284852852E+01  1.03845617406144E+00
(PID.TID 0000.0001)  ploadbar=  1.00996544988818E+05
 cg2d: Sum(rhs),rhsMax =  -8.09298239633016E+01  1.02657083450563E+00
(PID.TID 0000.0001)  ploadbar=  1.00996244601901E+05
 cg2d: Sum(rhs),rhsMax =  -8.18555191661267E+01  1.01469739038342E+00
(PID.TID 0000.0001)  ploadbar=  1.00995944214983E+05
 cg2d: Sum(rhs),rhsMax =  -8.28159929330973E+01  1.00264442215637E+00
(PID.TID 0000.0001)  ploadbar=  1.00995643828066E+05
 cg2d: Sum(rhs),rhsMax =  -8.38504252056952E+01  9.89967572608822E-01
(PID.TID 0000.0001)  ploadbar=  1.00995343441149E+05
 cg2d: Sum(rhs),rhsMax =  -8.49315944811652E+01  9.77090007445329E-01
(PID.TID 0000.0001)  ploadbar=  1.00995726503369E+05
 cg2d: Sum(rhs),rhsMax =  -8.38084825790336E+01  9.89931437532121E-01
(PID.TID 0000.0001)  ploadbar=  1.00996109565589E+05
 cg2d: Sum(rhs),rhsMax =  -8.25707989623357E+01  1.00453699645023E+00
(PID.TID 0000.0001)  ploadbar=  1.00996492627809E+05
 cg2d: Sum(rhs),rhsMax =  -8.14187646203730E+01  1.01853434026985E+00
(PID.TID 0000.0001)  ploadbar=  1.00996875690029E+05
 cg2d: Sum(rhs),rhsMax =  -8.04285470543660E+01  1.03087304897153E+00
(PID.TID 0000.0001)  ploadbar=  1.00997258752249E+05
 cg2d: Sum(rhs),rhsMax =  -7.96343475960639E+01  1.04096605428084E+00
(PID.TID 0000.0001)  ploadbar=  1.00997641814469E+05
 cg2d: Sum(rhs),rhsMax =  -7.89504523667931E+01  1.04978584724833E+00
(PID.TID 0000.0001)  ploadbar=  1.00998827148374E+05
 cg2d: Sum(rhs),rhsMax =  -7.84030784811288E+01  1.05690551755126E+00
(PID.TID 0000.0001)  ploadbar=  1.01000012482280E+05
 cg2d: Sum(rhs),rhsMax =  -7.79164346052427E+01  1.06328246749086E+00
(PID.TID 0000.0001)  ploadbar=  1.01001197816185E+05
 cg2d: Sum(rhs),rhsMax =  -7.73669915195656E+01  1.07059123312276E+00
(PID.TID 0000.0001)  ploadbar=  1.01002383150090E+05
 cg2d: Sum(rhs),rhsMax =  -7.67251074793300E+01  1.07928141250008E+00
(PID.TID 0000.0001)  ploadbar=  1.01003568483995E+05
 cg2d: Sum(rhs),rhsMax =  -7.59655840439608E+01  1.08977873663717E+00
(PID.TID 0000.0001)  ploadbar=  1.01004753817900E+05
 cg2d: Sum(rhs),rhsMax =  -7.50828724009505E+01  1.10230152025336E+00
(PID.TID 0000.0001)  ploadbar=  1.01006616038320E+05
 cg2d: Sum(rhs),rhsMax =  -7.41571507026326E+01  1.11577304249634E+00
(PID.TID 0000.0001)  ploadbar=  1.01008478258739E+05
 cg2d: Sum(rhs),rhsMax =  -7.31844207689814E+01  1.13030956411234E+00
(PID.TID 0000.0001)  ploadbar=  1.01010340479159E+05
 cg2d: Sum(rhs),rhsMax =  -7.21674817034717E+01  1.14593181217848E+00
(PID.TID 0000.0001)  ploadbar=  1.01012202699579E+05
 cg2d: Sum(rhs),rhsMax =  -7.11087032591930E+01  1.16267246687047E+00
(PID.TID 0000.0001)  ploadbar=  1.01014064919998E+05
 cg2d: Sum(rhs),rhsMax =  -7.00245446965811E+01  1.18033032276945E+00
(PID.TID 0000.0001)  ploadbar=  1.01015927140418E+05
 cg2d: Sum(rhs),rhsMax =  -6.89695137742387E+01  1.19801778099162E+00
(PID.TID 0000.0001)  ploadbar=  1.01017762508075E+05
 cg2d: Sum(rhs),rhsMax =  -6.79054021191676E+01  1.21639108343367E+00
(PID.TID 0000.0001)  ploadbar=  1.01019597875732E+05
 cg2d: Sum(rhs),rhsMax =  -6.68801644931849E+01  1.23460037239980E+00
(PID.TID 0000.0001)  ploadbar=  1.01021433243390E+05
 cg2d: Sum(rhs),rhsMax =  -6.59135044904188E+01  1.25222675138234E+00
(PID.TID 0000.0001)  ploadbar=  1.01023268611047E+05
 cg2d: Sum(rhs),rhsMax =  -6.50114963127041E+01  1.26907205122628E+00
(PID.TID 0000.0001)  ploadbar=  1.01025103978704E+05
 cg2d: Sum(rhs),rhsMax =  -6.41785862453503E+01  1.28495538712147E+00
(PID.TID 0000.0001)  ploadbar=  1.01026939346362E+05
 cg2d: Sum(rhs),rhsMax =  -6.35236611793964E+01  1.29766288296375E+00
(PID.TID 0000.0001)  ploadbar=  1.01028068267612E+05
 cg2d: Sum(rhs),rhsMax =  -6.29876471875946E+01  1.30820766218219E+00
(PID.TID 0000.0001)  ploadbar=  1.01029197188862E+05
 cg2d: Sum(rhs),rhsMax =  -6.25816079956907E+01  1.31623646229206E+00
(PID.TID 0000.0001)  ploadbar=  1.01030326110112E+05
 cg2d: Sum(rhs),rhsMax =  -6.22998005939108E+01  1.32176717732028E+00
(PID.TID 0000.0001)  ploadbar=  1.01031455031362E+05
 cg2d: Sum(rhs),rhsMax =  -6.21377846549291E+01  1.32482246666816E+00
(PID.TID 0000.0001)  ploadbar=  1.01032583952612E+05
 cg2d: Sum(rhs),rhsMax =  -6.20749182928545E+01  1.32580258492231E+00
(PID.TID 0000.0001)  ploadbar=  1.01033712873863E+05
 cg2d: Sum(rhs),rhsMax =  -6.20224123772944E+01  1.32657075318591E+00
(PID.TID 0000.0001)  ploadbar=  1.01034358757839E+05
 cg2d: Sum(rhs),rhsMax =  -6.19642464611803E+01  1.32746511423717E+00
(PID.TID 0000.0001)  ploadbar=  1.01035004641816E+05
 cg2d: Sum(rhs),rhsMax =  -6.19054997919311E+01  1.32837061558703E+00
(PID.TID 0000.0001)  ploadbar=  1.01035650525793E+05
 cg2d: Sum(rhs),rhsMax =  -6.18650515298468E+01  1.32887585884283E+00
(PID.TID 0000.0001)  ploadbar=  1.01036296409769E+05
 cg2d: Sum(rhs),rhsMax =  -6.18561421305757E+01  1.32868236265985E+00
(PID.TID 0000.0001)  ploadbar=  1.01036942293746E+05
 cg2d: Sum(rhs),rhsMax =  -6.18878416501530E+01  1.32759204990910E+00
(PID.TID 0000.0001)  ploadbar=  1.01037588177723E+05
 cg2d: Sum(rhs),rhsMax =  -6.19982348940441E+01  1.32482484422331E+00
(PID.TID 0000.0001)  ploadbar=  1.01038245893567E+05
 cg2d: Sum(rhs),rhsMax =  -6.21409910743813E+01  1.32138263735339E+00
(PID.TID 0000.0001)  ploadbar=  1.01038903609412E+05
 cg2d: Sum(rhs),rhsMax =  -6.23079723846591E+01  1.31744518574383E+00
(PID.TID 0000.0001)  ploadbar=  1.01039561325256E+05
 cg2d: Sum(rhs),rhsMax =  -6.24900729352287E+01  1.31320598832849E+00
(PID.TID 0000.0001)  ploadbar=  1.01040219041101E+05
 cg2d: Sum(rhs),rhsMax =  -6.26789485967248E+01  1.30883938729379E+00
(PID.TID 0000.0001)  ploadbar=  1.01040876756945E+05
 cg2d: Sum(rhs),rhsMax =  -6.28701556738036E+01  1.30443431218686E+00
(PID.TID 0000.0001)  ploadbar=  1.01041534472790E+05
 cg2d: Sum(rhs),rhsMax =  -6.30421800899409E+01  1.30043921099972E+00
(PID.TID 0000.0001)  ploadbar=  1.01042956337956E+05
 cg2d: Sum(rhs),rhsMax =  -6.31955245034777E+01  1.29683393969042E+00
(PID.TID 0000.0001)  ploadbar=  1.01044378203122E+05
 cg2d: Sum(rhs),rhsMax =  -6.33150758706125E+01  1.29391733535065E+00
(PID.TID 0000.0001)  ploadbar=  1.01045800068289E+05
 cg2d: Sum(rhs),rhsMax =  -6.34173840660690E+01  1.29133750308092E+00
(PID.TID 0000.0001)  ploadbar=  1.01047221933455E+05
 cg2d: Sum(rhs),rhsMax =  -6.35196521988325E+01  1.28873421810450E+00
(PID.TID 0000.0001)  ploadbar=  1.01048643798621E+05
 cg2d: Sum(rhs),rhsMax =  -6.36287004588716E+01  1.28596516849457E+00
(PID.TID 0000.0001)  ploadbar=  1.01050065663787E+05
 cg2d: Sum(rhs),rhsMax =  -6.37273651491475E+01  1.28350694357758E+00
(PID.TID 0000.0001)  ploadbar=  1.01050872219983E+05
 cg2d: Sum(rhs),rhsMax =  -6.38720211379260E+01  1.28021917316852E+00
(PID.TID 0000.0001)  ploadbar=  1.01051678776178E+05
 cg2d: Sum(rhs),rhsMax =  -6.40259598442321E+01  1.27683922307315E+00
(PID.TID 0000.0001)  ploadbar=  1.01052485332374E+05
 cg2d: Sum(rhs),rhsMax =  -6.41801167490332E+01  1.27354288537049E+00
(PID.TID 0000.0001)  ploadbar=  1.01053291888569E+05
 cg2d: Sum(rhs),rhsMax =  -6.43274015531749E+01  1.27046327212696E+00
(PID.TID 0000.0001)  ploadbar=  1.01054098444765E+05
 cg2d: Sum(rhs),rhsMax =  -6.44619439179749E+01  1.26770880939625E+00
(PID.TID 0000.0001)  ploadbar=  1.01054905000961E+05
 cg2d: Sum(rhs),rhsMax =  -6.45536547436920E+01  1.26574893857933E+00
(PID.TID 0000.0001)  ploadbar=  1.01055142205803E+05
 cg2d: Sum(rhs),rhsMax =  -6.46551987758626E+01  1.26353872134366E+00
(PID.TID 0000.0001)  ploadbar=  1.01055379410646E+05
 cg2d: Sum(rhs),rhsMax =  -6.47553744934763E+01  1.26129545648980E+00
(PID.TID 0000.0001)  ploadbar=  1.01055616615489E+05
 cg2d: Sum(rhs),rhsMax =  -6.48804284950445E+01  1.25850613835540E+00
(PID.TID 0000.0001)  ploadbar=  1.01055853820332E+05
 cg2d: Sum(rhs),rhsMax =  -6.50665371368739E+01  1.25447331396146E+00
(PID.TID 0000.0001)  ploadbar=  1.01056091025175E+05
 cg2d: Sum(rhs),rhsMax =  -6.53364127212248E+01  1.24878174499331E+00
(PID.TID 0000.0001)  ploadbar=  1.01056328230017E+05
 cg2d: Sum(rhs),rhsMax =  -6.56264104630711E+01  1.24278043046050E+00
(PID.TID 0000.0001)  ploadbar=  1.01056934558393E+05
 cg2d: Sum(rhs),rhsMax =  -6.59886633173562E+01  1.23549938487501E+00
(PID.TID 0000.0001)  ploadbar=  1.01057540886768E+05
 cg2d: Sum(rhs),rhsMax =  -6.64418194732337E+01  1.22663515752747E+00
(PID.TID 0000.0001)  ploadbar=  1.01058147215144E+05
 cg2d: Sum(rhs),rhsMax =  -6.69803961253425E+01  1.21635089122754E+00
(PID.TID 0000.0001)  ploadbar=  1.01058753543519E+05
 cg2d: Sum(rhs),rhsMax =  -6.76246416097939E+01  1.20435715854688E+00
(PID.TID 0000.0001)  ploadbar=  1.01059359871895E+05
 cg2d: Sum(rhs),rhsMax =  -6.84025318314644E+01  1.19026682374431E+00
(PID.TID 0000.0001)  ploadbar=  1.01059966200270E+05
 cg2d: Sum(rhs),rhsMax =  -6.93244381259029E+01  1.17402490148355E+00
(PID.TID 0000.0001)  ploadbar=  1.01060807202181E+05
 cg2d: Sum(rhs),rhsMax =  -7.02519166105385E+01  1.15808898709627E+00
(PID.TID 0000.0001)  ploadbar=  1.01061648204092E+05
 cg2d: Sum(rhs),rhsMax =  -7.12239702283919E+01  1.14181845634076E+00
(PID.TID 0000.0001)  ploadbar=  1.01062489206003E+05
 cg2d: Sum(rhs),rhsMax =  -7.21951685869310E+01  1.12595762829577E+00
(PID.TID 0000.0001)  ploadbar=  1.01063330207913E+05
 cg2d: Sum(rhs),rhsMax =  -7.31231500995664E+01  1.11112791318292E+00
(PID.TID 0000.0001)  ploadbar=  1.01064171209824E+05
 cg2d: Sum(rhs),rhsMax =  -7.40062150059183E+01  1.09728671011937E+00
(PID.TID 0000.0001)  ploadbar=  1.01065012211735E+05
 cg2d: Sum(rhs),rhsMax =  -7.48716759120701E+01  1.08409435177697E+00
(PID.TID 0000.0001)  ploadbar=  1.01065769459531E+05
 cg2d: Sum(rhs),rhsMax =  -7.56711002575034E+01  1.07220355512795E+00
(PID.TID 0000.0001)  ploadbar=  1.01066526707328E+05
 cg2d: Sum(rhs),rhsMax =  -7.63687483222600E+01  1.06203278389736E+00
(PID.TID 0000.0001)  ploadbar=  1.01067283955124E+05
 cg2d: Sum(rhs),rhsMax =  -7.65772916931159E+01  1.05881682970115E+00
(PID.TID 0000.0001)  ploadbar=  1.01068041202920E+05
 cg2d: Sum(rhs),rhsMax =  -7.60396207873231E+01  1.06602408201168E+00
(PID.TID 0000.0001)  ploadbar=  1.01068798450716E+05
 cg2d: Sum(rhs),rhsMax =  -7.53475406339246E+01  1.07557406917204E+00
(PID.TID 0000.0001)  ploadbar=  1.01069555698513E+05
 cg2d: Sum(rhs),rhsMax =  -7.45837057011526E+01  1.08632900018703E+00
(PID.TID 0000.0001)  ploadbar=  1.01070053604455E+05
 cg2d: Sum(rhs),rhsMax =  -7.38209095059569E+01  1.09727032039715E+00
(PID.TID 0000.0001)  ploadbar=  1.01070551510397E+05
 cg2d: Sum(rhs),rhsMax =  -7.30638777636168E+01  1.10832943307020E+00
(PID.TID 0000.0001)  ploadbar=  1.01071049416339E+05
 cg2d: Sum(rhs),rhsMax =  -7.23168591215169E+01  1.11943788977397E+00
(PID.TID 0000.0001)  ploadbar=  1.01071547322281E+05
 cg2d: Sum(rhs),rhsMax =  -7.14117435188924E+01  1.13325025270377E+00
(PID.TID 0000.0001)  ploadbar=  1.01072045228223E+05
 cg2d: Sum(rhs),rhsMax =  -7.03611374431900E+01  1.14975341403302E+00
(PID.TID 0000.0001)  ploadbar=  1.01072543134166E+05
 cg2d: Sum(rhs),rhsMax =  -6.94736771098920E+01  1.16405098237806E+00
(PID.TID 0000.0001)  ploadbar=  1.01074510121100E+05
 cg2d: Sum(rhs),rhsMax =  -6.86468422689460E+01  1.17770980768076E+00
(PID.TID 0000.0001)  ploadbar=  1.01076477108034E+05
 cg2d: Sum(rhs),rhsMax =  -6.79207535382801E+01  1.18996129511529E+00
(PID.TID 0000.0001)  ploadbar=  1.01078444094969E+05
 cg2d: Sum(rhs),rhsMax =  -6.74013963739877E+01  1.19881573070860E+00
(PID.TID 0000.0001)  ploadbar=  1.01080411081903E+05
 cg2d: Sum(rhs),rhsMax =  -6.70085014274453E+01  1.20554588296938E+00
(PID.TID 0000.0001)  ploadbar=  1.01082378068837E+05
 cg2d: Sum(rhs),rhsMax =  -6.66807384301905E+01  1.21118607567266E+00
(PID.TID 0000.0001)  ploadbar=  1.01084345055772E+05
 cg2d: Sum(rhs),rhsMax =  -6.65130065644538E+01  1.21391114562598E+00
(PID.TID 0000.0001)  ploadbar=  1.01084471041339E+05
 cg2d: Sum(rhs),rhsMax =  -6.64195204789109E+01  1.21524181807558E+00
(PID.TID 0000.0001)  ploadbar=  1.01084597026907E+05
 cg2d: Sum(rhs),rhsMax =  -6.63580888501316E+01  1.21593162394710E+00
(PID.TID 0000.0001)  ploadbar=  1.01084723012474E+05
 cg2d: Sum(rhs),rhsMax =  -6.63274657414732E+01  1.21599334922034E+00
(PID.TID 0000.0001)  ploadbar=  1.01084848998042E+05
 cg2d: Sum(rhs),rhsMax =  -6.63279026109249E+01  1.21541721142095E+00
(PID.TID 0000.0001)  ploadbar=  1.01084974983609E+05
 cg2d: Sum(rhs),rhsMax =  -6.63620405881843E+01  1.21414974411607E+00
(PID.TID 0000.0001)  ploadbar=  1.01085100969177E+05
 cg2d: Sum(rhs),rhsMax =  -6.65347492447175E+01  1.21039037245047E+00
(PID.TID 0000.0001)  ploadbar=  1.01084027399717E+05
 cg2d: Sum(rhs),rhsMax =  -6.68160104522054E+01  1.20472144465778E+00
(PID.TID 0000.0001)  ploadbar=  1.01082953830258E+05
 cg2d: Sum(rhs),rhsMax =  -6.72160299917704E+01  1.19700559629759E+00
(PID.TID 0000.0001)  ploadbar=  1.01081880260798E+05
 cg2d: Sum(rhs),rhsMax =  -6.77333180633725E+01  1.18734034797409E+00
(PID.TID 0000.0001)  ploadbar=  1.01080806691338E+05
 cg2d: Sum(rhs),rhsMax =  -6.83203818115373E+01  1.17663069945790E+00
(PID.TID 0000.0001)  ploadbar=  1.01079733121878E+05
 cg2d: Sum(rhs),rhsMax =  -6.89218797970955E+01  1.16586449227014E+00
(PID.TID 0000.0001)  ploadbar=  1.01078659552419E+05
 cg2d: Sum(rhs),rhsMax =  -6.95469429280988E+01  1.15490539740325E+00
(PID.TID 0000.0001)  ploadbar=  1.01079013982376E+05
 cg2d: Sum(rhs),rhsMax =  -7.01065680022219E+01  1.14521780451928E+00
(PID.TID 0000.0001)  ploadbar=  1.01079368412333E+05
 cg2d: Sum(rhs),rhsMax =  -7.06586553171368E+01  1.13580581216944E+00
(PID.TID 0000.0001)  ploadbar=  1.01079722842289E+05
 cg2d: Sum(rhs),rhsMax =  -7.12368049350767E+01  1.12612120589775E+00
(PID.TID 0000.0001)  ploadbar=  1.01080077272246E+05
 cg2d: Sum(rhs),rhsMax =  -7.15599410775518E+01  1.12056100696126E+00
(PID.TID 0000.0001)  ploadbar=  1.01080431702203E+05
 cg2d: Sum(rhs),rhsMax =  -7.17359134195373E+01  1.11732265050465E+00
(PID.TID 0000.0001)  ploadbar=  1.01080786132160E+05
 cg2d: Sum(rhs),rhsMax =  -7.19249215012218E+01  1.11390098100762E+00
(PID.TID 0000.0001)  ploadbar=  1.01081714314280E+05
 cg2d: Sum(rhs),rhsMax =  -7.16712857073211E+01  1.11735631980211E+00
(PID.TID 0000.0001)  ploadbar=  1.01082642496401E+05
 cg2d: Sum(rhs),rhsMax =  -7.09321581697806E+01  1.12850514195493E+00
(PID.TID 0000.0001)  ploadbar=  1.01083570678521E+05
 cg2d: Sum(rhs),rhsMax =  -7.00663756593566E+01  1.14194279214512E+00
(PID.TID 0000.0001)  ploadbar=  1.01084498860641E+05
 cg2d: Sum(rhs),rhsMax =  -6.90826796610501E+01  1.15767756242697E+00
(PID.TID 0000.0001)  ploadbar=  1.01085427042761E+05
 cg2d: Sum(rhs),rhsMax =  -6.80231937915724E+01  1.17515443208225E+00
(PID.TID 0000.0001)  ploadbar=  1.01086355224881E+05
 cg2d: Sum(rhs),rhsMax =  -6.70250267835533E+01  1.19206846325477E+00
(PID.TID 0000.0001)  ploadbar=  1.01087527180182E+05
 cg2d: Sum(rhs),rhsMax =  -6.62017063492470E+01  1.20626998245904E+00
(PID.TID 0000.0001)  ploadbar=  1.01088699135483E+05
 cg2d: Sum(rhs),rhsMax =  -6.55245700483090E+01  1.21806785774492E+00
(PID.TID 0000.0001)  ploadbar=  1.01089871090784E+05
 cg2d: Sum(rhs),rhsMax =  -6.49777653243417E+01  1.22759791700398E+00
(PID.TID 0000.0001)  ploadbar=  1.01091043046085E+05
 cg2d: Sum(rhs),rhsMax =  -6.45268282407142E+01  1.23539641831954E+00
(PID.TID 0000.0001)  ploadbar=  1.01092215001387E+05
 cg2d: Sum(rhs),rhsMax =  -6.40792659911151E+01  1.24317673449661E+00
(PID.TID 0000.0001)  ploadbar=  1.01093386956688E+05
 cg2d: Sum(rhs),rhsMax =  -6.35738561947461E+01  1.25230013529002E+00
(PID.TID 0000.0001)  ploadbar=  1.01093934275655E+05
 cg2d: Sum(rhs),rhsMax =  -6.30721060462964E+01  1.26158772333919E+00
(PID.TID 0000.0001)  ploadbar=  1.01094481594621E+05
 cg2d: Sum(rhs),rhsMax =  -6.25681513549649E+01  1.27115640186490E+00
(PID.TID 0000.0001)  ploadbar=  1.01095028913588E+05
 cg2d: Sum(rhs),rhsMax =  -6.20723217100360E+01  1.28079434469025E+00
(PID.TID 0000.0001)  ploadbar=  1.01095576232555E+05
 cg2d: Sum(rhs),rhsMax =  -6.15945786710008E+01  1.29028196175296E+00
(PID.TID 0000.0001)  ploadbar=  1.01096123551522E+05
 cg2d: Sum(rhs),rhsMax =  -6.11367333620930E+01  1.29955995235430E+00
(PID.TID 0000.0001)  ploadbar=  1.01096670870488E+05
 cg2d: Sum(rhs),rhsMax =  -6.07682956423679E+01  1.30704838214093E+00
(PID.TID 0000.0001)  ploadbar=  1.01096337074794E+05
 cg2d: Sum(rhs),rhsMax =  -6.04582160001166E+01  1.31335011254094E+00
(PID.TID 0000.0001)  ploadbar=  1.01096003279100E+05
 cg2d: Sum(rhs),rhsMax =  -6.01888361619175E+01  1.31880908693219E+00
(PID.TID 0000.0001)  ploadbar=  1.01095669483405E+05
 cg2d: Sum(rhs),rhsMax =  -5.99551447026312E+01  1.32350859861053E+00
(PID.TID 0000.0001)  ploadbar=  1.01095335687711E+05
 cg2d: Sum(rhs),rhsMax =  -5.97619941778967E+01  1.32732063399293E+00
(PID.TID 0000.0001)  ploadbar=  1.01095001892016E+05
 cg2d: Sum(rhs),rhsMax =  -5.96033277313369E+01  1.33036149067022E+00
(PID.TID 0000.0001)  ploadbar=  1.01094668096322E+05
 cg2d: Sum(rhs),rhsMax =  -5.94782703417048E+01  1.33269289965087E+00
(PID.TID 0000.0001)  ploadbar=  1.01093309258648E+05
 cg2d: Sum(rhs),rhsMax =  -5.93738035384333E+01  1.33459545962873E+00
(PID.TID 0000.0001)  ploadbar=  1.01091950420974E+05
 cg2d: Sum(rhs),rhsMax =  -5.92833642979320E+01  1.33621101471858E+00
(PID.TID 0000.0001)  ploadbar=  1.01090591583300E+05
 cg2d: Sum(rhs),rhsMax =  -5.91988480715944E+01  1.33771943391515E+00
(PID.TID 0000.0001)  ploadbar=  1.01089232745626E+05
 cg2d: Sum(rhs),rhsMax =  -5.91201024493284E+01  1.33912048298508E+00
(PID.TID 0000.0001)  ploadbar=  1.01087873907952E+05
 cg2d: Sum(rhs),rhsMax =  -5.90480176976139E+01  1.34038932639539E+00
(PID.TID 0000.0001)  ploadbar=  1.01086515070279E+05
 cg2d: Sum(rhs),rhsMax =  -5.89103021070129E+01  1.34312465234179E+00
(PID.TID 0000.0001)  ploadbar=  1.01085805978213E+05
 cg2d: Sum(rhs),rhsMax =  -5.87831042365337E+01  1.34559465310682E+00
(PID.TID 0000.0001)  ploadbar=  1.01085096886148E+05
 cg2d: Sum(rhs),rhsMax =  -5.86593543614356E+01  1.34795360054029E+00
(PID.TID 0000.0001)  ploadbar=  1.01084387794083E+05
 cg2d: Sum(rhs),rhsMax =  -5.85385290479414E+01  1.35020343827894E+00
(PID.TID 0000.0001)  ploadbar=  1.01083678702017E+05
 cg2d: Sum(rhs),rhsMax =  -5.84213288429829E+01  1.35231839809776E+00
(PID.TID 0000.0001)  ploadbar=  1.01082969609952E+05
 cg2d: Sum(rhs),rhsMax =  -5.83116776957404E+01  1.35420509342786E+00
(PID.TID 0000.0001)  ploadbar=  1.01082260517887E+05
 cg2d: Sum(rhs),rhsMax =  -5.82367293496118E+01  1.35530971607913E+00
(PID.TID 0000.0001)  ploadbar=  1.01081551742602E+05
 cg2d: Sum(rhs),rhsMax =  -5.81852398386572E+01  1.35588192675747E+00
(PID.TID 0000.0001)  ploadbar=  1.01080842967317E+05
 cg2d: Sum(rhs),rhsMax =  -5.81607409573289E+01  1.35583302182342E+00
(PID.TID 0000.0001)  ploadbar=  1.01080134192032E+05
 cg2d: Sum(rhs),rhsMax =  -5.81635171100223E+01  1.35514712830573E+00
(PID.TID 0000.0001)  ploadbar=  1.01079425416748E+05
 cg2d: Sum(rhs),rhsMax =  -5.82015000784329E+01  1.35363690449799E+00
(PID.TID 0000.0001)  ploadbar=  1.01078716641463E+05
 cg2d: Sum(rhs),rhsMax =  -5.82728897057905E+01  1.35134109226578E+00
(PID.TID 0000.0001)  ploadbar=  1.01078007866178E+05
 cg2d: Sum(rhs),rhsMax =  -5.84150534268979E+01  1.34741083847342E+00
(PID.TID 0000.0001)  ploadbar=  1.01078023832371E+05
 cg2d: Sum(rhs),rhsMax =  -5.86146487997305E+01  1.34217372313366E+00
(PID.TID 0000.0001)  ploadbar=  1.01078039798563E+05
 cg2d: Sum(rhs),rhsMax =  -5.88653146401261E+01  1.33580063982302E+00
(PID.TID 0000.0001)  ploadbar=  1.01078055764756E+05
 cg2d: Sum(rhs),rhsMax =  -5.91517181521156E+01  1.32866485879653E+00
(PID.TID 0000.0001)  ploadbar=  1.01078071730948E+05
 cg2d: Sum(rhs),rhsMax =  -5.94637619065553E+01  1.32101207712100E+00
(PID.TID 0000.0001)  ploadbar=  1.01078087697141E+05
 cg2d: Sum(rhs),rhsMax =  -5.97998247863832E+01  1.31289246729119E+00
(PID.TID 0000.0001)  ploadbar=  1.01078103663334E+05
 cg2d: Sum(rhs),rhsMax =  -6.05769872578656E+01  1.29538535418242E+00
(PID.TID 0000.0001)  ploadbar=  1.01078633801942E+05
 cg2d: Sum(rhs),rhsMax =  -6.16080858721551E+01  1.27307184834230E+00
(PID.TID 0000.0001)  ploadbar=  1.01079163940551E+05
 cg2d: Sum(rhs),rhsMax =  -6.28323941283217E+01  1.24766012539990E+00
(PID.TID 0000.0001)  ploadbar=  1.01079694079159E+05
 cg2d: Sum(rhs),rhsMax =  -6.43242659994736E+01  1.21814124584758E+00
(PID.TID 0000.0001)  ploadbar=  1.01080224217768E+05
 cg2d: Sum(rhs),rhsMax =  -6.61393736123362E+01  1.18414917547804E+00
(PID.TID 0000.0001)  ploadbar=  1.01080754356376E+05
 cg2d: Sum(rhs),rhsMax =  -6.83289060350231E+01  1.14565625059492E+00
(PID.TID 0000.0001)  ploadbar=  1.01081284494984E+05
 cg2d: Sum(rhs),rhsMax =  -6.70280761187818E+01  1.16731503520924E+00
(PID.TID 0000.0001)  ploadbar=  1.01080632987383E+05
 cg2d: Sum(rhs),rhsMax =  -6.49167353877472E+01  1.20466544924209E+00
(PID.TID 0000.0001)  ploadbar=  1.01079981479781E+05
 cg2d: Sum(rhs),rhsMax =  -6.28777171009868E+01  1.24306853779669E+00
(PID.TID 0000.0001)  ploadbar=  1.01079329972179E+05
 cg2d: Sum(rhs),rhsMax =  -6.07342449025574E+01  1.28622171835996E+00
(PID.TID 0000.0001)  ploadbar=  1.01078678464577E+05
 cg2d: Sum(rhs),rhsMax =  -5.85333014713280E+01  1.33379985424835E+00
(PID.TID 0000.0001)  ploadbar=  1.01078026956975E+05
 cg2d: Sum(rhs),rhsMax =  -5.63310692598744E+01  1.38507756935820E+00
(PID.TID 0000.0001)  ploadbar=  1.01077375449373E+05
 cg2d: Sum(rhs),rhsMax =  -5.42750351968846E+01  1.43672479648002E+00
(PID.TID 0000.0001)  ploadbar=  1.01075474557823E+05
 cg2d: Sum(rhs),rhsMax =  -5.23825823311101E+01  1.48785608840538E+00
(PID.TID 0000.0001)  ploadbar=  1.01073573666274E+05
 cg2d: Sum(rhs),rhsMax =  -5.06634928017294E+01  1.53761497606879E+00
(PID.TID 0000.0001)  ploadbar=  1.01071672774725E+05
 cg2d: Sum(rhs),rhsMax =  -4.91261536644455E+01  1.58505428143179E+00
(PID.TID 0000.0001)  ploadbar=  1.01069771883175E+05
 cg2d: Sum(rhs),rhsMax =  -4.77646543561364E+01  1.62960412787907E+00
(PID.TID 0000.0001)  ploadbar=  1.01067870991626E+05
 cg2d: Sum(rhs),rhsMax =  -4.65591591914571E+01  1.67121006812481E+00
(PID.TID 0000.0001)  ploadbar=  1.01065970100077E+05
 cg2d: Sum(rhs),rhsMax =  -4.54835381304623E+01  1.71014092820872E+00
(PID.TID 0000.0001)  ploadbar=  1.01065727786269E+05
 cg2d: Sum(rhs),rhsMax =  -4.45012545220580E+01  1.74728630794664E+00
(PID.TID 0000.0001)  ploadbar=  1.01065485472462E+05
 cg2d: Sum(rhs),rhsMax =  -4.35979165823361E+01  1.78286550268366E+00
(PID.TID 0000.0001)  ploadbar=  1.01065243158654E+05
 cg2d: Sum(rhs),rhsMax =  -4.27687094504640E+01  1.81677780244796E+00
(PID.TID 0000.0001)  ploadbar=  1.01065000844847E+05
 cg2d: Sum(rhs),rhsMax =  -4.20103195332402E+01  1.84888249267095E+00
(PID.TID 0000.0001)  ploadbar=  1.01064758531039E+05
 cg2d: Sum(rhs),rhsMax =  -4.13204903815372E+01  1.87901300979232E+00
(PID.TID 0000.0001)  ploadbar=  1.01064516217232E+05
 cg2d: Sum(rhs),rhsMax =  -4.06991309902535E+01  1.90698923691832E+00
(PID.TID 0000.0001)  ploadbar=  1.01064454050655E+05
 cg2d: Sum(rhs),rhsMax =  -4.01492208198985E+01  1.93242089569613E+00
(PID.TID 0000.0001)  ploadbar=  1.01064391884078E+05
 cg2d: Sum(rhs),rhsMax =  -3.96579965699713E+01  1.95569045538602E+00
(PID.TID 0000.0001)  ploadbar=  1.01064329717502E+05
 cg2d: Sum(rhs),rhsMax =  -3.92165071069336E+01  1.97705851621398E+00
(PID.TID 0000.0001)  ploadbar=  1.01064267550925E+05
 cg2d: Sum(rhs),rhsMax =  -3.88186910030576E+01  1.99668063159307E+00
(PID.TID 0000.0001)  ploadbar=  1.01064205384349E+05
 cg2d: Sum(rhs),rhsMax =  -3.84573273557878E+01  2.01480413555776E+00
(PID.TID 0000.0001)  ploadbar=  1.01064143217772E+05
 cg2d: Sum(rhs),rhsMax =  -3.81220650189370E+01  2.03188857634357E+00
(PID.TID 0000.0001)  ploadbar=  1.01064622936013E+05
 cg2d: Sum(rhs),rhsMax =  -3.78090151254333E+01  2.04807201052961E+00
(PID.TID 0000.0001)  ploadbar=  1.01065102654253E+05
 cg2d: Sum(rhs),rhsMax =  -3.75968873482931E+01  2.05897377755540E+00
(PID.TID 0000.0001)  ploadbar=  1.01065582372494E+05
 cg2d: Sum(rhs),rhsMax =  -3.73815106762885E+01  2.07016036254459E+00
(PID.TID 0000.0001)  ploadbar=  1.01066062090735E+05
 cg2d: Sum(rhs),rhsMax =  -3.71689887162200E+01  2.08128732383839E+00
(PID.TID 0000.0001)  ploadbar=  1.01066541808976E+05
 cg2d: Sum(rhs),rhsMax =  -3.69704037579581E+01  2.09171888091878E+00
(PID.TID 0000.0001)  ploadbar=  1.01067021527216E+05
 cg2d: Sum(rhs),rhsMax =  -3.67837534422080E+01  2.10169472857595E+00
(PID.TID 0000.0001)  ploadbar=  1.01067275573142E+05
 cg2d: Sum(rhs),rhsMax =  -3.66165081038370E+01  2.11075935642748E+00
(PID.TID 0000.0001)  ploadbar=  1.01067529619069E+05
 cg2d: Sum(rhs),rhsMax =  -3.64740381774459E+01  2.11856082561746E+00
(PID.TID 0000.0001)  ploadbar=  1.01067783664995E+05
 cg2d: Sum(rhs),rhsMax =  -3.63459712393847E+01  2.12565801252243E+00
(PID.TID 0000.0001)  ploadbar=  1.01068037710921E+05
 cg2d: Sum(rhs),rhsMax =  -3.62417698970153E+01  2.13146498631363E+00
(PID.TID 0000.0001)  ploadbar=  1.01068291756847E+05
 cg2d: Sum(rhs),rhsMax =  -3.61783288775559E+01  2.13495084848134E+00
(PID.TID 0000.0001)  ploadbar=  1.01068545802773E+05
 cg2d: Sum(rhs),rhsMax =  -3.61728607922499E+01  2.13503689152940E+00
(PID.TID 0000.0001)  ploadbar=  1.01069078380097E+05
 cg2d: Sum(rhs),rhsMax =  -3.59861942966227E+01  2.14587802795862E+00
(PID.TID 0000.0001)      cg2d_init_res =   1.61188578134906E-01
(PID.TID 0000.0001)      cg2d_iters(min,last) =      -1     141
(PID.TID 0000.0001)      cg2d_last_res =   9.12865019407274E-08
(PID.TID 0000.0001) // =======================================================
(PID.TID 0000.0001) // Begin MONITOR dynamic field statistics
(PID.TID 0000.0001) // =======================================================
(PID.TID 0000.0001) %MON time_tsnumber                =                  1752
(PID.TID 0000.0001) %MON time_secondsf                =   6.3072000000000E+06
(PID.TID 0000.0001) %MON dynstat_eta_max              =   1.2570074564287E+00
(PID.TID 0000.0001) %MON dynstat_eta_min              =  -6.2164004634249E+00
(PID.TID 0000.0001) %MON dynstat_eta_mean             =   3.9084447576509E-02
(PID.TID 0000.0001) %MON dynstat_eta_sd               =   7.3338140811928E-01
(PID.TID 0000.0001) %MON dynstat_eta_del2             =   2.1530838917759E-04
(PID.TID 0000.0001) %MON dynstat_uvel_max             =   6.8694980669436E-01
(PID.TID 0000.0001) %MON dynstat_uvel_min             =  -7.2233351479298E-01
(PID.TID 0000.0001) %MON dynstat_uvel_mean            =   1.3440612477181E-03
(PID.TID 0000.0001) %MON dynstat_uvel_sd              =   2.0176514586301E-02
(PID.TID 0000.0001) %MON dynstat_uvel_del2            =   8.7822925552811E-06
(PID.TID 0000.0001) %MON dynstat_vvel_max             =   6.7441463126538E-01
(PID.TID 0000.0001) %MON dynstat_vvel_min             =  -9.1457626592552E-01
(PID.TID 0000.0001) %MON dynstat_vvel_mean            =   1.0701459390712E-03
(PID.TID 0000.0001) %MON dynstat_vvel_sd              =   2.1696209501048E-02
(PID.TID 0000.0001) %MON dynstat_vvel_del2            =   8.9014886528912E-06
(PID.TID 0000.0001) %MON dynstat_wvel_max             =   5.4205531473059E-04
(PID.TID 0000.0001) %MON dynstat_wvel_min             =  -9.6881225198332E-04
(PID.TID 0000.0001) %MON dynstat_wvel_mean            =   7.2091268015501E-09
(PID.TID 0000.0001) %MON dynstat_wvel_sd              =   2.1664784780006E-05
(PID.TID 0000.0001) %MON dynstat_wvel_del2            =   1.5627533597940E-08
(PID.TID 0000.0001) %MON dynstat_theta_max            =   3.1699320115430E+01
(PID.TID 0000.0001) %MON dynstat_theta_min            =  -2.0281859958687E+00
(PID.TID 0000.0001) %MON dynstat_theta_mean           =   3.5868874792932E+00
(PID.TID 0000.0001) %MON dynstat_theta_sd             =   4.4399502422602E+00
(PID.TID 0000.0001) %MON dynstat_theta_del2           =   8.7484175221810E-05
(PID.TID 0000.0001) %MON dynstat_salt_max             =   4.0641562599298E+01
(PID.TID 0000.0001) %MON dynstat_salt_min             =   2.5618177570064E+01
(PID.TID 0000.0001) %MON dynstat_salt_mean            =   3.4727280983474E+01
(PID.TID 0000.0001) %MON dynstat_salt_sd              =   3.7799220775376E-01
(PID.TID 0000.0001) %MON dynstat_salt_del2            =   2.0443792131084E-05
(PID.TID 0000.0001) %MON dynstat_sst_max              =   3.1683961818914E+01
(PID.TID 0000.0001) %MON dynstat_sst_min              =  -1.9663141899785E+00
(PID.TID 0000.0001) %MON dynstat_sst_mean             =   1.8461116524241E+01
(PID.TID 0000.0001) %MON dynstat_sst_sd               =   1.0199009113191E+01
(PID.TID 0000.0001) %MON dynstat_sst_del2             =   6.7977670942836E-04
(PID.TID 0000.0001) %MON dynstat_sss_max              =   4.0578362111350E+01
(PID.TID 0000.0001) %MON dynstat_sss_min              =   2.5618177570064E+01
(PID.TID 0000.0001) %MON dynstat_sss_mean             =   3.4752436732688E+01
(PID.TID 0000.0001) %MON dynstat_sss_sd               =   1.1854480965696E+00
(PID.TID 0000.0001) %MON dynstat_sss_del2             =   3.3339159349318E-04
(PID.TID 0000.0001) %MON forcing_qnet_max             =   7.6025013172148E+02
(PID.TID 0000.0001) %MON forcing_qnet_min             =  -5.5529529330184E+02
(PID.TID 0000.0001) %MON forcing_qnet_mean            =   1.4623923033399E+01
(PID.TID 0000.0001) %MON forcing_qnet_sd              =   1.8255245328741E+02
(PID.TID 0000.0001) %MON forcing_qnet_del2            =   9.0300167071745E-02
(PID.TID 0000.0001) %MON forcing_qsw_max              =   7.9459537736308E+01
(PID.TID 0000.0001) %MON forcing_qsw_min              =  -6.2460430722840E+02
(PID.TID 0000.0001) %MON forcing_qsw_mean             =  -1.4635798252016E+02
(PID.TID 0000.0001) %MON forcing_qsw_sd               =   1.6129207685066E+02
(PID.TID 0000.0001) %MON forcing_qsw_del2             =   4.5961870076089E-02
(PID.TID 0000.0001) %MON forcing_empmr_max            =   1.4523645935936E-03
(PID.TID 0000.0001) %MON forcing_empmr_min            =  -4.3111243160652E-03
(PID.TID 0000.0001) %MON forcing_empmr_mean           =   1.2164667556046E-06
(PID.TID 0000.0001) %MON forcing_empmr_sd             =   1.0491781025901E-04
(PID.TID 0000.0001) %MON forcing_empmr_del2           =   2.7266344060852E-07
(PID.TID 0000.0001) %MON forcing_fu_max               =   1.0611406069926E+00
(PID.TID 0000.0001) %MON forcing_fu_min               =  -1.0520294507345E+00
(PID.TID 0000.0001) %MON forcing_fu_mean              =   1.2576913248148E-02
(PID.TID 0000.0001) %MON forcing_fu_sd                =   1.0404351155101E-01
(PID.TID 0000.0001) %MON forcing_fu_del2              =   8.1632456351806E-05
(PID.TID 0000.0001) %MON forcing_fv_max               =   9.0132539470991E-01
(PID.TID 0000.0001) %MON forcing_fv_min               =  -9.6669288882067E-01
(PID.TID 0000.0001) %MON forcing_fv_mean              =   1.1724798632805E-03
(PID.TID 0000.0001) %MON forcing_fv_sd                =   1.1089259894531E-01
(PID.TID 0000.0001) %MON forcing_fv_del2              =   6.8165477205055E-05
(PID.TID 0000.0001) %MON trAdv_CFL_u_max              =   5.9579409358491E-02
(PID.TID 0000.0001) %MON trAdv_CFL_v_max              =   5.2699052759552E-02
(PID.TID 0000.0001) %MON trAdv_CFL_w_max              =   1.0200137005182E-01
(PID.TID 0000.0001) %MON advcfl_uvel_max              =   5.6488471476844E-02
(PID.TID 0000.0001) %MON advcfl_vvel_max              =   4.2333678694256E-02
(PID.TID 0000.0001) %MON advcfl_wvel_max              =   1.0492448302587E-01
(PID.TID 0000.0001) %MON advcfl_W_hf_max              =   1.0585572638719E-01
(PID.TID 0000.0001) %MON pe_b_mean                    =   1.3904745547790E-03
(PID.TID 0000.0001) %MON ke_max                       =   5.2239544710393E-01
(PID.TID 0000.0001) %MON ke_mean                      =   4.2470378883123E-04
(PID.TID 0000.0001) %MON ke_vol                       =   1.3350118712369E+18
(PID.TID 0000.0001) %MON vort_r_min                   =  -2.1042730420204E-05
(PID.TID 0000.0001) %MON vort_r_max                   =   1.7760338917069E-05
(PID.TID 0000.0001) %MON vort_a_mean                  =  -1.9727864647440E-05
(PID.TID 0000.0001) %MON vort_a_sd                    =   7.4543045049121E-05
(PID.TID 0000.0001) %MON vort_p_mean                  =  -2.1760282988444E-05
(PID.TID 0000.0001) %MON vort_p_sd                    =   9.7248818075100E-05
(PID.TID 0000.0001) %MON surfExpan_theta_mean         =   2.4971938211065E-07
(PID.TID 0000.0001) %MON surfExpan_salt_mean          =   6.2673643369317E-09
(PID.TID 0000.0001) // =======================================================
(PID.TID 0000.0001) // End MONITOR dynamic field statistics
(PID.TID 0000.0001) // =======================================================
(PID.TID 0000.0001)  ploadbar=  1.01069610957421E+05
(PID.TID 0000.0001) %SBO sbo_mass                     =   1.3737507833021E+21
(PID.TID 0000.0001) %SBO sbo_mass_fw                  =   3.7967931580197E+16
(PID.TID 0000.0001) %SBO sbo_zoamc                    =   1.0547919599304E+25
(PID.TID 0000.0001) %SBO sbo_zoamp                    =   2.9276525448992E+30
(PID.TID 0000.0001) // =======================================================
(PID.TID 0000.0001) // Begin MONITOR SEAICE statistics
(PID.TID 0000.0001) // =======================================================
(PID.TID 0000.0001) %MON seaice_tsnumber              =                  1752
(PID.TID 0000.0001) %MON seaice_time_sec              =   6.3072000000000E+06
(PID.TID 0000.0001) %MON seaice_uice_max              =   4.0000000000000E-01
(PID.TID 0000.0001) %MON seaice_uice_min              =  -4.0000000000000E-01
(PID.TID 0000.0001) %MON seaice_uice_mean             =   2.4616967798121E-03
(PID.TID 0000.0001) %MON seaice_uice_sd               =   1.6328297976617E-01
(PID.TID 0000.0001) %MON seaice_uice_del2             =   1.4265718766070E-04
(PID.TID 0000.0001) %MON seaice_vice_max              =   4.0000000000000E-01
(PID.TID 0000.0001) %MON seaice_vice_min              =  -4.0000000000000E-01
(PID.TID 0000.0001) %MON seaice_vice_mean             =  -9.2980635773063E-03
(PID.TID 0000.0001) %MON seaice_vice_sd               =   1.7625092580318E-01
(PID.TID 0000.0001) %MON seaice_vice_del2             =   1.4386205850470E-04
(PID.TID 0000.0001) %MON seaice_area_max              =   9.7000000000000E-01
(PID.TID 0000.0001) %MON seaice_area_min              =   0.0000000000000E+00
(PID.TID 0000.0001) %MON seaice_area_mean             =   4.9091006973812E-02
(PID.TID 0000.0001) %MON seaice_area_sd               =   2.0430047478982E-01
(PID.TID 0000.0001) %MON seaice_area_del2             =   2.2693396268136E-04
(PID.TID 0000.0001) %MON seaice_heff_max              =   6.0780075693589E+00
(PID.TID 0000.0001) %MON seaice_heff_min              =   0.0000000000000E+00
(PID.TID 0000.0001) %MON seaice_heff_mean             =   6.9504390470158E-02
(PID.TID 0000.0001) %MON seaice_heff_sd               =   3.6460437012737E-01
(PID.TID 0000.0001) %MON seaice_heff_del2             =   2.2299171639291E-04
(PID.TID 0000.0001) %MON seaice_hsnow_max             =   1.0492023085323E+00
(PID.TID 0000.0001) %MON seaice_hsnow_min             =  -7.8853835435717E-05
(PID.TID 0000.0001) %MON seaice_hsnow_mean            =   7.8323538941675E-03
(PID.TID 0000.0001) %MON seaice_hsnow_sd              =   4.5734950908697E-02
(PID.TID 0000.0001) %MON seaice_hsnow_del2            =   4.4109945633805E-05
(PID.TID 0000.0001) // =======================================================
(PID.TID 0000.0001) // End MONITOR SEAICE statistics
(PID.TID 0000.0001) // =======================================================
(PID.TID 0000.0001) // =======================================================
(PID.TID 0000.0001) // Begin MONITOR EXF statistics
(PID.TID 0000.0001) // =======================================================
(PID.TID 0000.0001) %MON exf_tsnumber                 =                  1752
(PID.TID 0000.0001) %MON exf_time_sec                 =   6.3072000000000E+06
(PID.TID 0000.0001) %MON exf_ustress_max              =   1.4396965275426E+00
(PID.TID 0000.0001) %MON exf_ustress_min              =  -1.0447053313255E+00
(PID.TID 0000.0001) %MON exf_ustress_mean             =   1.2650357019797E-02
(PID.TID 0000.0001) %MON exf_ustress_sd               =   1.0562586030690E-01
(PID.TID 0000.0001) %MON exf_ustress_del2             =   9.9275013429394E-05
(PID.TID 0000.0001) %MON exf_vstress_max              =   8.7365045265379E-01
(PID.TID 0000.0001) %MON exf_vstress_min              =  -9.6799236911501E-01
(PID.TID 0000.0001) %MON exf_vstress_mean             =   1.7920409026405E-03
(PID.TID 0000.0001) %MON exf_vstress_sd               =   1.1171223924807E-01
(PID.TID 0000.0001) %MON exf_vstress_del2             =   8.0868165428926E-05
(PID.TID 0000.0001) %MON exf_hflux_max                =   1.0370781964824E+03
(PID.TID 0000.0001) %MON exf_hflux_min                =  -5.1543292158085E+02
(PID.TID 0000.0001) %MON exf_hflux_mean               =   3.0093275714204E+01
(PID.TID 0000.0001) %MON exf_hflux_sd                 =   2.0014803022765E+02
(PID.TID 0000.0001) %MON exf_hflux_del2               =   3.6001522432252E-01
(PID.TID 0000.0001) %MON exf_sflux_max                =   2.3865038171237E-07
(PID.TID 0000.0001) %MON exf_sflux_min                =  -4.2819708660202E-06
(PID.TID 0000.0001) %MON exf_sflux_mean               =   4.3172948137300E-10
(PID.TID 0000.0001) %MON exf_sflux_sd                 =   9.7726550273487E-08
(PID.TID 0000.0001) %MON exf_sflux_del2               =   2.0473507862007E-10
(PID.TID 0000.0001) %MON exf_wspeed_max               =   2.1851756095886E+01
(PID.TID 0000.0001) %MON exf_wspeed_min               =   2.8774048388004E-01
(PID.TID 0000.0001) %MON exf_wspeed_mean              =   6.8613227575660E+00
(PID.TID 0000.0001) %MON exf_wspeed_sd                =   3.1794185225919E+00
(PID.TID 0000.0001) %MON exf_wspeed_del2              =   1.2650203322452E-02
(PID.TID 0000.0001) %MON exf_atemp_max                =   3.0567787494659E+02
(PID.TID 0000.0001) %MON exf_atemp_min                =   2.2366437759399E+02
(PID.TID 0000.0001) %MON exf_atemp_mean               =   2.8940862470442E+02
(PID.TID 0000.0001) %MON exf_atemp_sd                 =   1.2355167474292E+01
(PID.TID 0000.0001) %MON exf_atemp_del2               =   2.6206823117817E-02
(PID.TID 0000.0001) %MON exf_aqh_max                  =   2.1431800909340E-02
(PID.TID 0000.0001) %MON exf_aqh_min                  =   4.7269400056393E-05
(PID.TID 0000.0001) %MON exf_aqh_mean                 =   1.0997100703323E-02
(PID.TID 0000.0001) %MON exf_aqh_sd                   =   5.6985927098833E-03
(PID.TID 0000.0001) %MON exf_aqh_del2                 =   1.4696445111560E-05
(PID.TID 0000.0001) %MON exf_lwflux_max               =   2.2014424456501E+02
(PID.TID 0000.0001) %MON exf_lwflux_min               =  -4.3230165431121E+01
(PID.TID 0000.0001) %MON exf_lwflux_mean              =   4.7429845936377E+01
(PID.TID 0000.0001) %MON exf_lwflux_sd                =   2.8271210470774E+01
(PID.TID 0000.0001) %MON exf_lwflux_del2              =   9.2020822129012E-02
(PID.TID 0000.0001) %MON exf_evap_max                 =   2.3314364911459E-07
(PID.TID 0000.0001) %MON exf_evap_min                 =  -5.1112623708856E-08
(PID.TID 0000.0001) %MON exf_evap_mean                =   4.2617449338509E-08
(PID.TID 0000.0001) %MON exf_evap_sd                  =   2.7508885520286E-08
(PID.TID 0000.0001) %MON exf_evap_del2                =   7.2333674742197E-11
(PID.TID 0000.0001) %MON exf_precip_max               =   2.5613436491767E-06
(PID.TID 0000.0001) %MON exf_precip_min               =  -2.4068688375678E-08
(PID.TID 0000.0001) %MON exf_precip_mean              =   3.8557920777117E-08
(PID.TID 0000.0001) %MON exf_precip_sd                =   7.7875658877225E-08
(PID.TID 0000.0001) %MON exf_precip_del2              =   1.9992431420799E-10
(PID.TID 0000.0001) %MON exf_swflux_max               =   1.2468220105177E+02
(PID.TID 0000.0001) %MON exf_swflux_min               =  -5.7730123540225E+02
(PID.TID 0000.0001) %MON exf_swflux_mean              =  -1.5117998560390E+02
(PID.TID 0000.0001) %MON exf_swflux_sd                =   1.5529799410733E+02
(PID.TID 0000.0001) %MON exf_swflux_del2              =   2.6826759239606E-01
(PID.TID 0000.0001) %MON exf_swdown_max               =   6.2232168579102E+02
(PID.TID 0000.0001) %MON exf_swdown_min               =  -1.5688555908203E+02
(PID.TID 0000.0001) %MON exf_swdown_mean              =   1.6391441705570E+02
(PID.TID 0000.0001) %MON exf_swdown_sd                =   1.6785810344158E+02
(PID.TID 0000.0001) %MON exf_swdown_del2              =   2.9128576780478E-01
(PID.TID 0000.0001) %MON exf_lwdown_max               =   4.7533741760254E+02
(PID.TID 0000.0001) %MON exf_lwdown_min               =   7.9792095184326E+01
(PID.TID 0000.0001) %MON exf_lwdown_mean              =   3.6407876533358E+02
(PID.TID 0000.0001) %MON exf_lwdown_sd                =   6.4069810973199E+01
(PID.TID 0000.0001) %MON exf_lwdown_del2              =   4.8916846771479E-01
(PID.TID 0000.0001) %MON exf_apressure_max            =   1.0394780468750E+05
(PID.TID 0000.0001) %MON exf_apressure_min            =   9.6015500000000E+04
(PID.TID 0000.0001) %MON exf_apressure_mean           =   1.0107014353475E+05
(PID.TID 0000.0001) %MON exf_apressure_sd             =   1.0577989349368E+03
(PID.TID 0000.0001) %MON exf_apressure_del2           =   1.4502261025652E+02
(PID.TID 0000.0001) %MON exf_runoff_max               =   4.1620624112208E-06
(PID.TID 0000.0001) %MON exf_runoff_min               =   0.0000000000000E+00
(PID.TID 0000.0001) %MON exf_runoff_mean              =   3.6277990800184E-09
(PID.TID 0000.0001) %MON exf_runoff_sd                =   4.6689937897439E-08
(PID.TID 0000.0001) %MON exf_runoff_del2              =   3.2293909919228E-11
(PID.TID 0000.0001) // =======================================================
(PID.TID 0000.0001) // End MONITOR EXF statistics
(PID.TID 0000.0001) // =======================================================
 cg2d: Sum(rhs),rhsMax =  -3.58340841234466E+01  2.15474291749226E+00
(PID.TID 0000.0001)  ploadbar=  1.01070143534746E+05
 cg2d: Sum(rhs),rhsMax =  -3.57218372267260E+01  2.16125361041921E+00
(PID.TID 0000.0001)  ploadbar=  1.01070676112070E+05
 cg2d: Sum(rhs),rhsMax =  -3.56445133657702E+01  2.16566025881125E+00
(PID.TID 0000.0001)  ploadbar=  1.01071208689394E+05
 cg2d: Sum(rhs),rhsMax =  -3.56018525282570E+01  2.16794533770596E+00
(PID.TID 0000.0001)  ploadbar=  1.01071741266718E+05
 cg2d: Sum(rhs),rhsMax =  -3.55895037249692E+01  2.16842909754765E+00
(PID.TID 0000.0001)  ploadbar=  1.01071593289327E+05
 cg2d: Sum(rhs),rhsMax =  -3.56017928960462E+01  2.16745182860279E+00
(PID.TID 0000.0001)  ploadbar=  1.01071445311936E+05
 cg2d: Sum(rhs),rhsMax =  -3.56343637585639E+01  2.16527713539745E+00
(PID.TID 0000.0001)  ploadbar=  1.01071297334545E+05
 cg2d: Sum(rhs),rhsMax =  -3.56851462901960E+01  2.16203354980513E+00
(PID.TID 0000.0001)  ploadbar=  1.01071149357153E+05
 cg2d: Sum(rhs),rhsMax =  -3.57575735680501E+01  2.15751441942294E+00
(PID.TID 0000.0001)  ploadbar=  1.01071001379762E+05
 cg2d: Sum(rhs),rhsMax =  -3.58466051353097E+01  2.15202449740337E+00
(PID.TID 0000.0001)  ploadbar=  1.01070853402371E+05
 cg2d: Sum(rhs),rhsMax =  -3.59474019389674E+01  2.14578675924345E+00
(PID.TID 0000.0001)  ploadbar=  1.01070110422048E+05
 cg2d: Sum(rhs),rhsMax =  -3.60575893504834E+01  2.13894869665140E+00
(PID.TID 0000.0001)  ploadbar=  1.01069367441725E+05
 cg2d: Sum(rhs),rhsMax =  -3.61750396338319E+01  2.13163596249549E+00
(PID.TID 0000.0001)  ploadbar=  1.01068624461402E+05
 cg2d: Sum(rhs),rhsMax =  -3.63020843868811E+01  2.12371275442975E+00
(PID.TID 0000.0001)  ploadbar=  1.01067881481080E+05
 cg2d: Sum(rhs),rhsMax =  -3.64382489335466E+01  2.11520906698923E+00
(PID.TID 0000.0001)  ploadbar=  1.01067138500757E+05
 cg2d: Sum(rhs),rhsMax =  -3.65827649979971E+01  2.10617753905578E+00
(PID.TID 0000.0001)  ploadbar=  1.01066395520434E+05
 cg2d: Sum(rhs),rhsMax =  -3.67334899883805E+01  2.09694843848938E+00
(PID.TID 0000.0001)  ploadbar=  1.01065162719326E+05
 cg2d: Sum(rhs),rhsMax =  -3.68944441150340E+01  2.08729566359433E+00
(PID.TID 0000.0001)  ploadbar=  1.01063929918218E+05
 cg2d: Sum(rhs),rhsMax =  -3.70612294308107E+01  2.07746858348589E+00
(PID.TID 0000.0001)  ploadbar=  1.01062697117111E+05
 cg2d: Sum(rhs),rhsMax =  -3.72328276360918E+01  2.06751978641306E+00
(PID.TID 0000.0001)  ploadbar=  1.01061464316003E+05
 cg2d: Sum(rhs),rhsMax =  -3.74072221063126E+01  2.05755632010697E+00
(PID.TID 0000.0001)  ploadbar=  1.01060231514895E+05
 cg2d: Sum(rhs),rhsMax =  -3.75825739857053E+01  2.04766441724188E+00
(PID.TID 0000.0001)  ploadbar=  1.01058998713788E+05
 cg2d: Sum(rhs),rhsMax =  -3.77524299450317E+01  2.03814948599164E+00
(PID.TID 0000.0001)  ploadbar=  1.01057429116433E+05
 cg2d: Sum(rhs),rhsMax =  -3.79123013490829E+01  2.02923785463585E+00
(PID.TID 0000.0001)  ploadbar=  1.01055859519079E+05
 cg2d: Sum(rhs),rhsMax =  -3.80626954120065E+01  2.02087898908545E+00
(PID.TID 0000.0001)  ploadbar=  1.01054289921724E+05
 cg2d: Sum(rhs),rhsMax =  -3.81968655818053E+01  2.01340216510592E+00
(PID.TID 0000.0001)  ploadbar=  1.01052720324370E+05
 cg2d: Sum(rhs),rhsMax =  -3.83127363116308E+01  2.00688657337699E+00
(PID.TID 0000.0001)  ploadbar=  1.01051150727015E+05
 cg2d: Sum(rhs),rhsMax =  -3.84099840586106E+01  2.00132146603769E+00
(PID.TID 0000.0001)  ploadbar=  1.01049581129661E+05
 cg2d: Sum(rhs),rhsMax =  -3.84881345607813E+01  1.99679424159278E+00
(PID.TID 0000.0001)  ploadbar=  1.01047336242152E+05
 cg2d: Sum(rhs),rhsMax =  -3.85564619623604E+01  1.99281049703116E+00
(PID.TID 0000.0001)  ploadbar=  1.01045091354643E+05
 cg2d: Sum(rhs),rhsMax =  -3.86171713237131E+01  1.98924607438155E+00
(PID.TID 0000.0001)  ploadbar=  1.01042846467134E+05
 cg2d: Sum(rhs),rhsMax =  -3.86697446242248E+01  1.98611556075734E+00
(PID.TID 0000.0001)  ploadbar=  1.01040601579626E+05
 cg2d: Sum(rhs),rhsMax =  -3.87145686034624E+01  1.98338509482480E+00
(PID.TID 0000.0001)  ploadbar=  1.01038356692117E+05
 cg2d: Sum(rhs),rhsMax =  -3.87515235860196E+01  1.98104936081076E+00
(PID.TID 0000.0001)  ploadbar=  1.01036111804608E+05
 cg2d: Sum(rhs),rhsMax =  -3.87752041405380E+01  1.97938949563733E+00
(PID.TID 0000.0001)  ploadbar=  1.01035109900464E+05
 cg2d: Sum(rhs),rhsMax =  -3.87905739270738E+01  1.97814285434004E+00
(PID.TID 0000.0001)  ploadbar=  1.01034107996321E+05
 cg2d: Sum(rhs),rhsMax =  -3.88053104260836E+01  1.97690750872019E+00
(PID.TID 0000.0001)  ploadbar=  1.01033106092177E+05
 cg2d: Sum(rhs),rhsMax =  -3.88179183324391E+01  1.97574863127099E+00
(PID.TID 0000.0001)  ploadbar=  1.01032104188033E+05
 cg2d: Sum(rhs),rhsMax =  -3.88272386227442E+01  1.97471391942729E+00
(PID.TID 0000.0001)  ploadbar=  1.01031102283889E+05
 cg2d: Sum(rhs),rhsMax =  -3.88310924186387E+01  1.97390765095135E+00
(PID.TID 0000.0001)  ploadbar=  1.01030100379745E+05
 cg2d: Sum(rhs),rhsMax =  -3.88441891259896E+01  1.97276341992408E+00
(PID.TID 0000.0001)  ploadbar=  1.01028423382047E+05
 cg2d: Sum(rhs),rhsMax =  -3.88533653894686E+01  1.97194602874415E+00
(PID.TID 0000.0001)  ploadbar=  1.01026746384350E+05
 cg2d: Sum(rhs),rhsMax =  -3.88633647613786E+01  1.97120662405190E+00
(PID.TID 0000.0001)  ploadbar=  1.01025069386652E+05
 cg2d: Sum(rhs),rhsMax =  -3.88773467900936E+01  1.97037563656534E+00
(PID.TID 0000.0001)  ploadbar=  1.01023392388955E+05
 cg2d: Sum(rhs),rhsMax =  -3.88929130365763E+01  1.96956726929077E+00
(PID.TID 0000.0001)  ploadbar=  1.01021715391257E+05
 cg2d: Sum(rhs),rhsMax =  -3.89071915025645E+01  1.96892041872842E+00
(PID.TID 0000.0001)  ploadbar=  1.01020038393559E+05
 cg2d: Sum(rhs),rhsMax =  -3.89419763977713E+01  1.96721913703936E+00
(PID.TID 0000.0001)  ploadbar=  1.01019295431439E+05
 cg2d: Sum(rhs),rhsMax =  -3.89824910395061E+01  1.96520104122556E+00
(PID.TID 0000.0001)  ploadbar=  1.01018552469318E+05
 cg2d: Sum(rhs),rhsMax =  -3.90256187649688E+01  1.96301328663195E+00
(PID.TID 0000.0001)  ploadbar=  1.01017809507198E+05
 cg2d: Sum(rhs),rhsMax =  -3.90763712368026E+01  1.96039495784258E+00
(PID.TID 0000.0001)  ploadbar=  1.01017066545077E+05
 cg2d: Sum(rhs),rhsMax =  -3.91334937707631E+01  1.95739580214922E+00
(PID.TID 0000.0001)  ploadbar=  1.01016323582956E+05
 cg2d: Sum(rhs),rhsMax =  -3.91941540995269E+01  1.95414116804172E+00
(PID.TID 0000.0001)  ploadbar=  1.01015580620836E+05
 cg2d: Sum(rhs),rhsMax =  -3.92598744171151E+01  1.95067075776392E+00
(PID.TID 0000.0001)  ploadbar=  1.01015972579119E+05
 cg2d: Sum(rhs),rhsMax =  -3.93377798479293E+01  1.94662208278708E+00
(PID.TID 0000.0001)  ploadbar=  1.01016364537401E+05
 cg2d: Sum(rhs),rhsMax =  -3.94205705336717E+01  1.94235294696107E+00
(PID.TID 0000.0001)  ploadbar=  1.01016756495684E+05
 cg2d: Sum(rhs),rhsMax =  -3.95062178287662E+01  1.93795612643923E+00
(PID.TID 0000.0001)  ploadbar=  1.01017148453967E+05
 cg2d: Sum(rhs),rhsMax =  -3.95944492624005E+01  1.93343909600402E+00
(PID.TID 0000.0001)  ploadbar=  1.01017540412250E+05
 cg2d: Sum(rhs),rhsMax =  -3.96841987943158E+01  1.92884895883939E+00
(PID.TID 0000.0001)  ploadbar=  1.01017932370533E+05
 cg2d: Sum(rhs),rhsMax =  -3.97539886289752E+01  1.92517324986375E+00
(PID.TID 0000.0001)  ploadbar=  1.01017602160565E+05
 cg2d: Sum(rhs),rhsMax =  -3.98249411195372E+01  1.92137674951938E+00
(PID.TID 0000.0001)  ploadbar=  1.01017271950597E+05
 cg2d: Sum(rhs),rhsMax =  -3.98990551596179E+01  1.91735268227748E+00
(PID.TID 0000.0001)  ploadbar=  1.01016941740629E+05
 cg2d: Sum(rhs),rhsMax =  -3.99729417994563E+01  1.91325646893515E+00
(PID.TID 0000.0001)  ploadbar=  1.01016611530661E+05
 cg2d: Sum(rhs),rhsMax =  -4.00479697241144E+01  1.90901776678695E+00
(PID.TID 0000.0001)  ploadbar=  1.01016281320693E+05
 cg2d: Sum(rhs),rhsMax =  -4.01251613033566E+01  1.90457709230398E+00
(PID.TID 0000.0001)  ploadbar=  1.01015951110726E+05
 cg2d: Sum(rhs),rhsMax =  -4.02133321281358E+01  1.89971309189321E+00
(PID.TID 0000.0001)  ploadbar=  1.01014701910369E+05
 cg2d: Sum(rhs),rhsMax =  -4.03064539052351E+01  1.89470718834924E+00
(PID.TID 0000.0001)  ploadbar=  1.01013452710013E+05
 cg2d: Sum(rhs),rhsMax =  -4.04048823639014E+01  1.88954182148101E+00
(PID.TID 0000.0001)  ploadbar=  1.01012203509657E+05
 cg2d: Sum(rhs),rhsMax =  -4.05079876779261E+01  1.88424335084546E+00
(PID.TID 0000.0001)  ploadbar=  1.01010954309301E+05
 cg2d: Sum(rhs),rhsMax =  -4.06138384016189E+01  1.87889855028413E+00
(PID.TID 0000.0001)  ploadbar=  1.01009705108945E+05
 cg2d: Sum(rhs),rhsMax =  -4.07223881121667E+01  1.87350445885376E+00
(PID.TID 0000.0001)  ploadbar=  1.01008455908588E+05
 cg2d: Sum(rhs),rhsMax =  -4.08306820348325E+01  1.86816544781823E+00
(PID.TID 0000.0001)  ploadbar=  1.01007560207399E+05
 cg2d: Sum(rhs),rhsMax =  -4.09365510104117E+01  1.86297411473208E+00
(PID.TID 0000.0001)  ploadbar=  1.01006664506210E+05
 cg2d: Sum(rhs),rhsMax =  -4.10388819819142E+01  1.85796274008169E+00
(PID.TID 0000.0001)  ploadbar=  1.01005768805020E+05
 cg2d: Sum(rhs),rhsMax =  -4.11384714857176E+01  1.85307847616778E+00
(PID.TID 0000.0001)  ploadbar=  1.01004873103831E+05
 cg2d: Sum(rhs),rhsMax =  -4.12339661350956E+01  1.84837191284325E+00
(PID.TID 0000.0001)  ploadbar=  1.01003977402641E+05
 cg2d: Sum(rhs),rhsMax =  -4.13241345938533E+01  1.84388496294497E+00
(PID.TID 0000.0001)  ploadbar=  1.01003081701452E+05
 cg2d: Sum(rhs),rhsMax =  -4.14173915543093E+01  1.83932435323114E+00
(PID.TID 0000.0001)  ploadbar=  1.01003101352415E+05
 cg2d: Sum(rhs),rhsMax =  -4.15089427775436E+01  1.83489885134475E+00
(PID.TID 0000.0001)  ploadbar=  1.01003121003377E+05
 cg2d: Sum(rhs),rhsMax =  -4.15961634381832E+01  1.83071462766611E+00
(PID.TID 0000.0001)  ploadbar=  1.01003140654340E+05
 cg2d: Sum(rhs),rhsMax =  -4.16816820076911E+01  1.82664485548065E+00
(PID.TID 0000.0001)  ploadbar=  1.01003160305303E+05
 cg2d: Sum(rhs),rhsMax =  -4.17656110919281E+01  1.82267858900207E+00
(PID.TID 0000.0001)  ploadbar=  1.01003179956265E+05
 cg2d: Sum(rhs),rhsMax =  -4.18463368653214E+01  1.81887639208661E+00
(PID.TID 0000.0001)  ploadbar=  1.01003199607228E+05
 cg2d: Sum(rhs),rhsMax =  -4.19179765224342E+01  1.81539851010845E+00
(PID.TID 0000.0001)  ploadbar=  1.01002665260871E+05
 cg2d: Sum(rhs),rhsMax =  -4.19853857407822E+01  1.81202579651075E+00
(PID.TID 0000.0001)  ploadbar=  1.01002130914514E+05
 cg2d: Sum(rhs),rhsMax =  -4.20472191765790E+01  1.80881272347755E+00
(PID.TID 0000.0001)  ploadbar=  1.01001596568157E+05
 cg2d: Sum(rhs),rhsMax =  -4.21035062553691E+01  1.80574854368541E+00
(PID.TID 0000.0001)  ploadbar=  1.01001062221800E+05
 cg2d: Sum(rhs),rhsMax =  -4.21559237559074E+01  1.80275162216939E+00
(PID.TID 0000.0001)  ploadbar=  1.01000527875443E+05
 cg2d: Sum(rhs),rhsMax =  -4.22050654511103E+01  1.79979044093554E+00
(PID.TID 0000.0001)  ploadbar=  1.00999993529086E+05
 cg2d: Sum(rhs),rhsMax =  -4.22499752658551E+01  1.79709721364160E+00
(PID.TID 0000.0001)  ploadbar=  1.00999469829190E+05
 cg2d: Sum(rhs),rhsMax =  -4.22953547864685E+01  1.79446472155164E+00
(PID.TID 0000.0001)  ploadbar=  1.00998946129293E+05
 cg2d: Sum(rhs),rhsMax =  -4.23397267739341E+01  1.79194622392263E+00
(PID.TID 0000.0001)  ploadbar=  1.00998422429396E+05
 cg2d: Sum(rhs),rhsMax =  -4.23819259713447E+01  1.78958310961241E+00
(PID.TID 0000.0001)  ploadbar=  1.00997898729500E+05
 cg2d: Sum(rhs),rhsMax =  -4.24220182326706E+01  1.78736316958288E+00
(PID.TID 0000.0001)  ploadbar=  1.00997375029603E+05
 cg2d: Sum(rhs),rhsMax =  -4.24597861175161E+01  1.78528950359357E+00
(PID.TID 0000.0001)  ploadbar=  1.00996851329706E+05
 cg2d: Sum(rhs),rhsMax =  -4.24896575548498E+01  1.78355615438023E+00
(PID.TID 0000.0001)  ploadbar=  1.00996695774068E+05
 cg2d: Sum(rhs),rhsMax =  -4.25121134882621E+01  1.78213445171657E+00
(PID.TID 0000.0001)  ploadbar=  1.00996540218430E+05
 cg2d: Sum(rhs),rhsMax =  -4.25270935579317E+01  1.78101747166203E+00
(PID.TID 0000.0001)  ploadbar=  1.00996384662792E+05
 cg2d: Sum(rhs),rhsMax =  -4.25321272739744E+01  1.78029776836845E+00
(PID.TID 0000.0001)  ploadbar=  1.00996229107154E+05
 cg2d: Sum(rhs),rhsMax =  -4.25259224153079E+01  1.78002001428438E+00
(PID.TID 0000.0001)  ploadbar=  1.00996073551515E+05
 cg2d: Sum(rhs),rhsMax =  -4.25079996927605E+01  1.78020015539316E+00
(PID.TID 0000.0001)  ploadbar=  1.00995917995877E+05
 cg2d: Sum(rhs),rhsMax =  -4.24699005737478E+01  1.78127856113023E+00
(PID.TID 0000.0001)  ploadbar=  1.00995807720141E+05
 cg2d: Sum(rhs),rhsMax =  -4.24122615364488E+01  1.78322864064361E+00
(PID.TID 0000.0001)  ploadbar=  1.00995697444404E+05
 cg2d: Sum(rhs),rhsMax =  -4.23361491630936E+01  1.78600660024142E+00
(PID.TID 0000.0001)  ploadbar=  1.00995587168667E+05
 cg2d: Sum(rhs),rhsMax =  -4.22424775368831E+01  1.78957430901244E+00
(PID.TID 0000.0001)  ploadbar=  1.00995476892930E+05
 cg2d: Sum(rhs),rhsMax =  -4.21357886980739E+01  1.79374177122025E+00
(PID.TID 0000.0001)  ploadbar=  1.00995366617194E+05
 cg2d: Sum(rhs),rhsMax =  -4.20242078638692E+01  1.79816252825056E+00
(PID.TID 0000.0001)  ploadbar=  1.00995256341457E+05
 cg2d: Sum(rhs),rhsMax =  -4.19164429343552E+01  1.80238451979197E+00
(PID.TID 0000.0001)  ploadbar=  1.00995016395679E+05
 cg2d: Sum(rhs),rhsMax =  -4.18247689958123E+01  1.80587159432362E+00
(PID.TID 0000.0001)  ploadbar=  1.00994776449901E+05
 cg2d: Sum(rhs),rhsMax =  -4.17598080143402E+01  1.80814589856896E+00
(PID.TID 0000.0001)  ploadbar=  1.00994536504122E+05
 cg2d: Sum(rhs),rhsMax =  -4.17285384726651E+01  1.80888461149989E+00
(PID.TID 0000.0001)  ploadbar=  1.00994296558344E+05
 cg2d: Sum(rhs),rhsMax =  -4.17356613399890E+01  1.80787072635690E+00
(PID.TID 0000.0001)  ploadbar=  1.00994056612566E+05
 cg2d: Sum(rhs),rhsMax =  -4.17825045865510E+01  1.80504346665646E+00
(PID.TID 0000.0001)  ploadbar=  1.00993816666788E+05
 cg2d: Sum(rhs),rhsMax =  -4.18689018928598E+01  1.80058755009923E+00
(PID.TID 0000.0001)  ploadbar=  1.00994427234728E+05
 cg2d: Sum(rhs),rhsMax =  -4.19917799143660E+01  1.79465360323769E+00
(PID.TID 0000.0001)  ploadbar=  1.00995037802669E+05
 cg2d: Sum(rhs),rhsMax =  -4.21478107941588E+01  1.78740476460900E+00
(PID.TID 0000.0001)  ploadbar=  1.00995648370610E+05
 cg2d: Sum(rhs),rhsMax =  -4.23316908346342E+01  1.77908673949838E+00
(PID.TID 0000.0001)  ploadbar=  1.00996258938551E+05
 cg2d: Sum(rhs),rhsMax =  -4.25403928810532E+01  1.76984646769410E+00
(PID.TID 0000.0001)  ploadbar=  1.00996869506492E+05
 cg2d: Sum(rhs),rhsMax =  -4.27702990524265E+01  1.75985833672523E+00
(PID.TID 0000.0001)  ploadbar=  1.00997480074433E+05
 cg2d: Sum(rhs),rhsMax =  -4.30224325244499E+01  1.74904016248909E+00
(PID.TID 0000.0001)  ploadbar=  1.00997865933147E+05
 cg2d: Sum(rhs),rhsMax =  -4.32969962776913E+01  1.73740871654804E+00
(PID.TID 0000.0001)  ploadbar=  1.00998251791860E+05
 cg2d: Sum(rhs),rhsMax =  -4.35864372291311E+01  1.72529069884532E+00
(PID.TID 0000.0001)  ploadbar=  1.00998637650573E+05
 cg2d: Sum(rhs),rhsMax =  -4.38838465085702E+01  1.71297426519759E+00
(PID.TID 0000.0001)  ploadbar=  1.00999023509287E+05
 cg2d: Sum(rhs),rhsMax =  -4.41846749652051E+01  1.70063456796079E+00
(PID.TID 0000.0001)  ploadbar=  1.00999409368000E+05
 cg2d: Sum(rhs),rhsMax =  -4.44884632083679E+01  1.68828680837365E+00
(PID.TID 0000.0001)  ploadbar=  1.00999795226713E+05
 cg2d: Sum(rhs),rhsMax =  -4.47949836988615E+01  1.67600741732679E+00
(PID.TID 0000.0001)  ploadbar=  1.01000197122718E+05
 cg2d: Sum(rhs),rhsMax =  -4.50899586793050E+01  1.66431864807858E+00
(PID.TID 0000.0001)  ploadbar=  1.01000599018723E+05
 cg2d: Sum(rhs),rhsMax =  -4.53627837773147E+01  1.65358216225659E+00
(PID.TID 0000.0001)  ploadbar=  1.01001000914728E+05
 cg2d: Sum(rhs),rhsMax =  -4.56138983688635E+01  1.64374557180705E+00
(PID.TID 0000.0001)  ploadbar=  1.01001402810732E+05
 cg2d: Sum(rhs),rhsMax =  -4.58432051421961E+01  1.63477824977221E+00
(PID.TID 0000.0001)  ploadbar=  1.01001804706737E+05
 cg2d: Sum(rhs),rhsMax =  -4.60511971893820E+01  1.62663094042583E+00
(PID.TID 0000.0001)  ploadbar=  1.01002206602742E+05
 cg2d: Sum(rhs),rhsMax =  -4.62566499930355E+01  1.61862024929955E+00
(PID.TID 0000.0001)  ploadbar=  1.01002423459436E+05
 cg2d: Sum(rhs),rhsMax =  -4.64507493690128E+01  1.61104137737125E+00
(PID.TID 0000.0001)  ploadbar=  1.01002640316129E+05
 cg2d: Sum(rhs),rhsMax =  -4.66342170678301E+01  1.60384884456772E+00
(PID.TID 0000.0001)  ploadbar=  1.01002857172823E+05
 cg2d: Sum(rhs),rhsMax =  -4.68110923386018E+01  1.59688993015605E+00
(PID.TID 0000.0001)  ploadbar=  1.01003074029517E+05
 cg2d: Sum(rhs),rhsMax =  -4.69839225800984E+01  1.59006989122216E+00
(PID.TID 0000.0001)  ploadbar=  1.01003290886210E+05
 cg2d: Sum(rhs),rhsMax =  -4.71499658694667E+01  1.58347309635353E+00
(PID.TID 0000.0001)  ploadbar=  1.01003507742904E+05
 cg2d: Sum(rhs),rhsMax =  -4.72939142591362E+01  1.57779466333011E+00
(PID.TID 0000.0001)  ploadbar=  1.01003980643882E+05
 cg2d: Sum(rhs),rhsMax =  -4.74076321540509E+01  1.57328355416587E+00
(PID.TID 0000.0001)  ploadbar=  1.01004453544861E+05
 cg2d: Sum(rhs),rhsMax =  -4.74897932965887E+01  1.56996096394722E+00
(PID.TID 0000.0001)  ploadbar=  1.01004926445839E+05
 cg2d: Sum(rhs),rhsMax =  -4.75507882408239E+01  1.56746393528147E+00
(PID.TID 0000.0001)  ploadbar=  1.01005399346818E+05
 cg2d: Sum(rhs),rhsMax =  -4.76038301231911E+01  1.56534523613661E+00
(PID.TID 0000.0001)  ploadbar=  1.01005872247796E+05
 cg2d: Sum(rhs),rhsMax =  -4.76534945827987E+01  1.56344865022911E+00
(PID.TID 0000.0001)  ploadbar=  1.01006345148774E+05
 cg2d: Sum(rhs),rhsMax =  -4.77031769899983E+01  1.56157518146104E+00
(PID.TID 0000.0001)  ploadbar=  1.01007735778799E+05
 cg2d: Sum(rhs),rhsMax =  -4.77530350787750E+01  1.55971630874811E+00
(PID.TID 0000.0001)  ploadbar=  1.01009126408824E+05
 cg2d: Sum(rhs),rhsMax =  -4.78044530858392E+01  1.55781889586677E+00
(PID.TID 0000.0001)  ploadbar=  1.01010517038849E+05
 cg2d: Sum(rhs),rhsMax =  -4.78553678894858E+01  1.55594538707129E+00
(PID.TID 0000.0001)  ploadbar=  1.01011907668874E+05
 cg2d: Sum(rhs),rhsMax =  -4.79090610237172E+01  1.55397720874431E+00
(PID.TID 0000.0001)  ploadbar=  1.01013298298898E+05
 cg2d: Sum(rhs),rhsMax =  -4.79582863652924E+01  1.55214315124594E+00
(PID.TID 0000.0001)  ploadbar=  1.01014688928923E+05
 cg2d: Sum(rhs),rhsMax =  -4.79874864361716E+01  1.55098317691523E+00
(PID.TID 0000.0001)  ploadbar=  1.01016835256053E+05
 cg2d: Sum(rhs),rhsMax =  -4.80110214805300E+01  1.55002943744202E+00
(PID.TID 0000.0001)  ploadbar=  1.01018981583184E+05
 cg2d: Sum(rhs),rhsMax =  -4.80337025174457E+01  1.54912301612584E+00
(PID.TID 0000.0001)  ploadbar=  1.01021127910314E+05
 cg2d: Sum(rhs),rhsMax =  -4.80553501707292E+01  1.54826350532946E+00
(PID.TID 0000.0001)  ploadbar=  1.01023274237444E+05
 cg2d: Sum(rhs),rhsMax =  -4.80780339301192E+01  1.54737505297281E+00
(PID.TID 0000.0001)  ploadbar=  1.01025420564574E+05
 cg2d: Sum(rhs),rhsMax =  -4.81034629391940E+01  1.54640427234217E+00
(PID.TID 0000.0001)  ploadbar=  1.01027566891704E+05
 cg2d: Sum(rhs),rhsMax =  -4.81354047276169E+01  1.54520200654027E+00
(PID.TID 0000.0001)  ploadbar=  1.01029080878060E+05
 cg2d: Sum(rhs),rhsMax =  -4.81715947627834E+01  1.54383613402633E+00
(PID.TID 0000.0001)  ploadbar=  1.01030594864417E+05
 cg2d: Sum(rhs),rhsMax =  -4.82113317784143E+01  1.54232192717567E+00
(PID.TID 0000.0001)  ploadbar=  1.01032108850773E+05
 cg2d: Sum(rhs),rhsMax =  -4.82546657088816E+01  1.54065596578975E+00
(PID.TID 0000.0001)  ploadbar=  1.01033622837129E+05
 cg2d: Sum(rhs),rhsMax =  -4.83011631687207E+01  1.53884535125142E+00
(PID.TID 0000.0001)  ploadbar=  1.01035136823485E+05
 cg2d: Sum(rhs),rhsMax =  -4.83514418966335E+01  1.53687057025406E+00
(PID.TID 0000.0001)  ploadbar=  1.01036650809841E+05
 cg2d: Sum(rhs),rhsMax =  -4.84122715826353E+01  1.53461322608067E+00
(PID.TID 0000.0001)  ploadbar=  1.01038280967635E+05
 cg2d: Sum(rhs),rhsMax =  -4.84784261276668E+01  1.53223890394648E+00
(PID.TID 0000.0001)  ploadbar=  1.01039911125430E+05
 cg2d: Sum(rhs),rhsMax =  -4.85497150862911E+01  1.52975162929105E+00
(PID.TID 0000.0001)  ploadbar=  1.01041541283224E+05
 cg2d: Sum(rhs),rhsMax =  -4.86255983147848E+01  1.52716481363021E+00
(PID.TID 0000.0001)  ploadbar=  1.01043171441019E+05
 cg2d: Sum(rhs),rhsMax =  -4.87053532877784E+01  1.52449472881619E+00
(PID.TID 0000.0001)  ploadbar=  1.01044801598813E+05
 cg2d: Sum(rhs),rhsMax =  -4.87886944179293E+01  1.52174439409091E+00
(PID.TID 0000.0001)  ploadbar=  1.01046431756607E+05
 cg2d: Sum(rhs),rhsMax =  -4.88752234162251E+01  1.51886914535502E+00
(PID.TID 0000.0001)  ploadbar=  1.01047681300825E+05
 cg2d: Sum(rhs),rhsMax =  -4.89623185727178E+01  1.51595066527306E+00
(PID.TID 0000.0001)  ploadbar=  1.01048930845042E+05
 cg2d: Sum(rhs),rhsMax =  -4.90491294870503E+01  1.51300874882651E+00
(PID.TID 0000.0001)  ploadbar=  1.01050180389260E+05
 cg2d: Sum(rhs),rhsMax =  -4.91357146718980E+01  1.51002534043388E+00
(PID.TID 0000.0001)  ploadbar=  1.01051429933477E+05
 cg2d: Sum(rhs),rhsMax =  -4.92224796602966E+01  1.50698441002693E+00
(PID.TID 0000.0001)  ploadbar=  1.01052679477695E+05
 cg2d: Sum(rhs),rhsMax =  -4.93090717550168E+01  1.50389296237554E+00
(PID.TID 0000.0001)  ploadbar=  1.01053929021912E+05
 cg2d: Sum(rhs),rhsMax =  -4.93984566872977E+01  1.50075419857040E+00
(PID.TID 0000.0001)  ploadbar=  1.01055539226437E+05
 cg2d: Sum(rhs),rhsMax =  -4.94911022793346E+01  1.49755166286620E+00
(PID.TID 0000.0001)  ploadbar=  1.01057149430961E+05
 cg2d: Sum(rhs),rhsMax =  -4.95865609331444E+01  1.49429777463418E+00
(PID.TID 0000.0001)  ploadbar=  1.01058759635485E+05
 cg2d: Sum(rhs),rhsMax =  -4.96843819818905E+01  1.49100184088376E+00
(PID.TID 0000.0001)  ploadbar=  1.01060369840010E+05
 cg2d: Sum(rhs),rhsMax =  -4.97836175378314E+01  1.48768545844618E+00
(PID.TID 0000.0001)  ploadbar=  1.01061980044534E+05
 cg2d: Sum(rhs),rhsMax =  -4.98831275230476E+01  1.48437178198352E+00
(PID.TID 0000.0001)  ploadbar=  1.01063590249058E+05
 cg2d: Sum(rhs),rhsMax =  -4.99785840703032E+01  1.48113149939238E+00
(PID.TID 0000.0001)  ploadbar=  1.01065602515062E+05
 cg2d: Sum(rhs),rhsMax =  -5.00696533392387E+01  1.47796777830127E+00
(PID.TID 0000.0001)  ploadbar=  1.01067614781066E+05
 cg2d: Sum(rhs),rhsMax =  -5.01564074928707E+01  1.47487061671705E+00
(PID.TID 0000.0001)  ploadbar=  1.01069627047071E+05
 cg2d: Sum(rhs),rhsMax =  -5.02402027093729E+01  1.47179864583573E+00
(PID.TID 0000.0001)  ploadbar=  1.01071639313075E+05
 cg2d: Sum(rhs),rhsMax =  -5.03209410967207E+01  1.46875259838467E+00
(PID.TID 0000.0001)  ploadbar=  1.01073651579079E+05
 cg2d: Sum(rhs),rhsMax =  -5.03980395449140E+01  1.46574852470972E+00
(PID.TID 0000.0001)  ploadbar=  1.01075663845083E+05
 cg2d: Sum(rhs),rhsMax =  -5.04779438022198E+01  1.46274363803827E+00
(PID.TID 0000.0001)  ploadbar=  1.01078624763073E+05
 cg2d: Sum(rhs),rhsMax =  -5.05608230731452E+01  1.45973209497314E+00
(PID.TID 0000.0001)  ploadbar=  1.01081585681062E+05
 cg2d: Sum(rhs),rhsMax =  -5.06440962638944E+01  1.45678466381077E+00
(PID.TID 0000.0001)  ploadbar=  1.01084546599052E+05
 cg2d: Sum(rhs),rhsMax =  -5.07275270614549E+01  1.45389972511840E+00
(PID.TID 0000.0001)  ploadbar=  1.01087507517042E+05
 cg2d: Sum(rhs),rhsMax =  -5.08103118618552E+01  1.45109353748245E+00
(PID.TID 0000.0001)  ploadbar=  1.01090468435031E+05
 cg2d: Sum(rhs),rhsMax =  -5.08919851953883E+01  1.44837098960810E+00
(PID.TID 0000.0001)  ploadbar=  1.01093429353021E+05
 cg2d: Sum(rhs),rhsMax =  -5.09739030937878E+01  1.44563715977217E+00
(PID.TID 0000.0001)  ploadbar=  1.01094999971839E+05
 cg2d: Sum(rhs),rhsMax =  -5.10622662246165E+01  1.44271358282936E+00
(PID.TID 0000.0001)  ploadbar=  1.01096570590657E+05
 cg2d: Sum(rhs),rhsMax =  -5.11483414657828E+01  1.43984672590919E+00
(PID.TID 0000.0001)  ploadbar=  1.01098141209474E+05
 cg2d: Sum(rhs),rhsMax =  -5.12320033716185E+01  1.43703606012224E+00
(PID.TID 0000.0001)  ploadbar=  1.01099711828292E+05
 cg2d: Sum(rhs),rhsMax =  -5.13126975236315E+01  1.43429310174234E+00
(PID.TID 0000.0001)  ploadbar=  1.01101282447110E+05
 cg2d: Sum(rhs),rhsMax =  -5.13907430598295E+01  1.43160518524223E+00
(PID.TID 0000.0001)  ploadbar=  1.01102853065928E+05
 cg2d: Sum(rhs),rhsMax =  -5.14670789483989E+01  1.42898499398102E+00
(PID.TID 0000.0001)  ploadbar=  1.01104088696930E+05
 cg2d: Sum(rhs),rhsMax =  -5.15441255976369E+01  1.42636277601728E+00
(PID.TID 0000.0001)  ploadbar=  1.01105324327931E+05
 cg2d: Sum(rhs),rhsMax =  -5.16192796470471E+01  1.42380861259373E+00
(PID.TID 0000.0001)  ploadbar=  1.01106559958933E+05
 cg2d: Sum(rhs),rhsMax =  -5.16938314741436E+01  1.42128303006976E+00
(PID.TID 0000.0001)  ploadbar=  1.01107795589935E+05
 cg2d: Sum(rhs),rhsMax =  -5.17675692040973E+01  1.41878561838757E+00
(PID.TID 0000.0001)  ploadbar=  1.01109031220936E+05
 cg2d: Sum(rhs),rhsMax =  -5.18403321672486E+01  1.41631577293861E+00
(PID.TID 0000.0001)  ploadbar=  1.01110266851938E+05
 cg2d: Sum(rhs),rhsMax =  -5.19087316028538E+01  1.41394205829146E+00
(PID.TID 0000.0001)  ploadbar=  1.01111962750336E+05
 cg2d: Sum(rhs),rhsMax =  -5.19738911785542E+01  1.41163005964792E+00
(PID.TID 0000.0001)  ploadbar=  1.01113658648734E+05
 cg2d: Sum(rhs),rhsMax =  -5.20382045512433E+01  1.40930503808263E+00
(PID.TID 0000.0001)  ploadbar=  1.01115354547131E+05
 cg2d: Sum(rhs),rhsMax =  -5.21008073373067E+01  1.40698495750106E+00
(PID.TID 0000.0001)  ploadbar=  1.01117050445529E+05
 cg2d: Sum(rhs),rhsMax =  -5.21608830842078E+01  1.40469008306667E+00
(PID.TID 0000.0001)  ploadbar=  1.01118746343927E+05
 cg2d: Sum(rhs),rhsMax =  -5.22192660386103E+01  1.40239612910960E+00
(PID.TID 0000.0001)  ploadbar=  1.01120442242325E+05
 cg2d: Sum(rhs),rhsMax =  -5.22769384167767E+01  1.40015629430718E+00
(PID.TID 0000.0001)  ploadbar=  1.01122507542328E+05
 cg2d: Sum(rhs),rhsMax =  -5.23354925595739E+01  1.39792433693849E+00
(PID.TID 0000.0001)  ploadbar=  1.01124572842331E+05
 cg2d: Sum(rhs),rhsMax =  -5.23933076401471E+01  1.39574033591262E+00
(PID.TID 0000.0001)  ploadbar=  1.01126638142334E+05
 cg2d: Sum(rhs),rhsMax =  -5.24493120356196E+01  1.39362598301091E+00
(PID.TID 0000.0001)  ploadbar=  1.01128703442338E+05
 cg2d: Sum(rhs),rhsMax =  -5.25035855965874E+01  1.39157081060738E+00
(PID.TID 0000.0001)  ploadbar=  1.01130768742341E+05
 cg2d: Sum(rhs),rhsMax =  -5.25557071570984E+01  1.38957225909374E+00
(PID.TID 0000.0001)  ploadbar=  1.01132834042344E+05
 cg2d: Sum(rhs),rhsMax =  -5.26070414297131E+01  1.38758577873133E+00
(PID.TID 0000.0001)  ploadbar=  1.01134205595920E+05
 cg2d: Sum(rhs),rhsMax =  -5.26578297631135E+01  1.38560022136715E+00
(PID.TID 0000.0001)  ploadbar=  1.01135577149496E+05
 cg2d: Sum(rhs),rhsMax =  -5.27106435342835E+01  1.38354215407996E+00
(PID.TID 0000.0001)  ploadbar=  1.01136948703072E+05
 cg2d: Sum(rhs),rhsMax =  -5.27640873792683E+01  1.38144052821641E+00
(PID.TID 0000.0001)  ploadbar=  1.01138320256649E+05
 cg2d: Sum(rhs),rhsMax =  -5.28182143081664E+01  1.37928603745318E+00
(PID.TID 0000.0001)  ploadbar=  1.01139691810225E+05
 cg2d: Sum(rhs),rhsMax =  -5.28741217312484E+01  1.37704734253208E+00
(PID.TID 0000.0001)  ploadbar=  1.01141063363801E+05
 cg2d: Sum(rhs),rhsMax =  -5.29388478899686E+01  1.37464380654271E+00
(PID.TID 0000.0001)  ploadbar=  1.01142482329036E+05
 cg2d: Sum(rhs),rhsMax =  -5.30127317072532E+01  1.37206646136142E+00
(PID.TID 0000.0001)  ploadbar=  1.01143901294270E+05
 cg2d: Sum(rhs),rhsMax =  -5.30942022489799E+01  1.36935519654364E+00
(PID.TID 0000.0001)  ploadbar=  1.01145320259505E+05
 cg2d: Sum(rhs),rhsMax =  -5.31811930842818E+01  1.36655968281791E+00
(PID.TID 0000.0001)  ploadbar=  1.01146739224740E+05
 cg2d: Sum(rhs),rhsMax =  -5.32739341784795E+01  1.36367138938342E+00
(PID.TID 0000.0001)  ploadbar=  1.01148158189974E+05
 cg2d: Sum(rhs),rhsMax =  -5.33722959746292E+01  1.36068878472981E+00
(PID.TID 0000.0001)  ploadbar=  1.01149577155209E+05
 cg2d: Sum(rhs),rhsMax =  -5.34769739771065E+01  1.35755210106896E+00
(PID.TID 0000.0001)  ploadbar=  1.01149711572316E+05
 cg2d: Sum(rhs),rhsMax =  -5.35885860970705E+01  1.35424154822245E+00
(PID.TID 0000.0001)  ploadbar=  1.01149845989422E+05
 cg2d: Sum(rhs),rhsMax =  -5.37036729140831E+01  1.35083614752145E+00
(PID.TID 0000.0001)  ploadbar=  1.01149980406529E+05
 cg2d: Sum(rhs),rhsMax =  -5.38213826492081E+01  1.34735341336177E+00
(PID.TID 0000.0001)  ploadbar=  1.01150114823636E+05
 cg2d: Sum(rhs),rhsMax =  -5.39414218881229E+01  1.34380051923596E+00
(PID.TID 0000.0001)  ploadbar=  1.01150249240743E+05
 cg2d: Sum(rhs),rhsMax =  -5.40626036865291E+01  1.34020680261915E+00
(PID.TID 0000.0001)  ploadbar=  1.01150383657849E+05
 cg2d: Sum(rhs),rhsMax =  -5.41762307408232E+01  1.33688102287690E+00
(PID.TID 0000.0001)  ploadbar=  1.01150980379183E+05
 cg2d: Sum(rhs),rhsMax =  -5.42928523176684E+01  1.33356014759591E+00
(PID.TID 0000.0001)  ploadbar=  1.01151577100516E+05
 cg2d: Sum(rhs),rhsMax =  -5.44139954798118E+01  1.33020197025815E+00
(PID.TID 0000.0001)  ploadbar=  1.01152173821850E+05
 cg2d: Sum(rhs),rhsMax =  -5.45362671641518E+01  1.32688379690838E+00
(PID.TID 0000.0001)  ploadbar=  1.01152770543183E+05
 cg2d: Sum(rhs),rhsMax =  -5.46590099168985E+01  1.32361774724654E+00
(PID.TID 0000.0001)  ploadbar=  1.01153367264517E+05
 cg2d: Sum(rhs),rhsMax =  -5.47814811589110E+01  1.32041664128256E+00
(PID.TID 0000.0001)  ploadbar=  1.01153963985850E+05
 cg2d: Sum(rhs),rhsMax =  -5.49149582668898E+01  1.31697322915011E+00
(PID.TID 0000.0001)  ploadbar=  1.01154139387446E+05
 cg2d: Sum(rhs),rhsMax =  -5.50500092375281E+01  1.31351453816899E+00
(PID.TID 0000.0001)  ploadbar=  1.01154314789042E+05
 cg2d: Sum(rhs),rhsMax =  -5.51867257435519E+01  1.31003686620713E+00
(PID.TID 0000.0001)  ploadbar=  1.01154490190638E+05
 cg2d: Sum(rhs),rhsMax =  -5.53275173795403E+01  1.30647783102620E+00
(PID.TID 0000.0001)  ploadbar=  1.01154665592235E+05
 cg2d: Sum(rhs),rhsMax =  -5.54721526328764E+01  1.30284068503184E+00
(PID.TID 0000.0001)  ploadbar=  1.01154840993831E+05
 cg2d: Sum(rhs),rhsMax =  -5.56202381371244E+01  1.29913509750406E+00
(PID.TID 0000.0001)  ploadbar=  1.01155016395427E+05
 cg2d: Sum(rhs),rhsMax =  -5.57736997250310E+01  1.29535003030302E+00
(PID.TID 0000.0001)  ploadbar=  1.01155917175552E+05
 cg2d: Sum(rhs),rhsMax =  -5.59294579999671E+01  1.29155680927434E+00
(PID.TID 0000.0001)  ploadbar=  1.01156817955678E+05
 cg2d: Sum(rhs),rhsMax =  -5.60839142873988E+01  1.28783331350684E+00
(PID.TID 0000.0001)  ploadbar=  1.01157718735804E+05
 cg2d: Sum(rhs),rhsMax =  -5.62362971056238E+01  1.28419110056390E+00
(PID.TID 0000.0001)  ploadbar=  1.01158619515930E+05
 cg2d: Sum(rhs),rhsMax =  -5.63864949806834E+01  1.28062728240786E+00
(PID.TID 0000.0001)  ploadbar=  1.01159520296055E+05
 cg2d: Sum(rhs),rhsMax =  -5.65342417592181E+01  1.27714156368856E+00
(PID.TID 0000.0001)  ploadbar=  1.01160421076181E+05
 cg2d: Sum(rhs),rhsMax =  -5.66735834606488E+01  1.27382527968964E+00
(PID.TID 0000.0001)  ploadbar=  1.01159660229993E+05
 cg2d: Sum(rhs),rhsMax =  -5.68104102337443E+01  1.27053285314662E+00
(PID.TID 0000.0001)  ploadbar=  1.01158899383805E+05
 cg2d: Sum(rhs),rhsMax =  -5.69451804476669E+01  1.26725071444228E+00
(PID.TID 0000.0001)  ploadbar=  1.01158138537617E+05
 cg2d: Sum(rhs),rhsMax =  -5.70780590962338E+01  1.26397324013429E+00
(PID.TID 0000.0001)  ploadbar=  1.01157377691429E+05
 cg2d: Sum(rhs),rhsMax =  -5.72090949931585E+01  1.26069622013085E+00
(PID.TID 0000.0001)  ploadbar=  1.01156616845241E+05
 cg2d: Sum(rhs),rhsMax =  -5.73380179386740E+01  1.25742439796090E+00
(PID.TID 0000.0001)  ploadbar=  1.01155855999054E+05
 cg2d: Sum(rhs),rhsMax =  -5.74618539666489E+01  1.25434183149761E+00
(PID.TID 0000.0001)  ploadbar=  1.01154196820837E+05
 cg2d: Sum(rhs),rhsMax =  -5.75869047877063E+01  1.25130927257336E+00
(PID.TID 0000.0001)  ploadbar=  1.01152537642620E+05
 cg2d: Sum(rhs),rhsMax =  -5.77118462826367E+01  1.24835294881508E+00
(PID.TID 0000.0001)  ploadbar=  1.01150878464403E+05
 cg2d: Sum(rhs),rhsMax =  -5.78355322033227E+01  1.24549412967274E+00
(PID.TID 0000.0001)  ploadbar=  1.01149219286187E+05
 cg2d: Sum(rhs),rhsMax =  -5.79575103737632E+01  1.24273615675227E+00
(PID.TID 0000.0001)  ploadbar=  1.01147560107970E+05
 cg2d: Sum(rhs),rhsMax =  -5.80765819985077E+01  1.24009566994158E+00
(PID.TID 0000.0001)  ploadbar=  1.01145900929753E+05
 cg2d: Sum(rhs),rhsMax =  -5.81905078863615E+01  1.23755691665923E+00
(PID.TID 0000.0001)  ploadbar=  1.01145984775287E+05
 cg2d: Sum(rhs),rhsMax =  -5.82944310088492E+01  1.23521822442583E+00
(PID.TID 0000.0001)  ploadbar=  1.01146068620820E+05
 cg2d: Sum(rhs),rhsMax =  -5.83879086319528E+01  1.23308139955735E+00
(PID.TID 0000.0001)  ploadbar=  1.01146152466354E+05
 cg2d: Sum(rhs),rhsMax =  -5.84723173551907E+01  1.23111097911990E+00
(PID.TID 0000.0001)  ploadbar=  1.01146236311888E+05
 cg2d: Sum(rhs),rhsMax =  -5.85475122656478E+01  1.22930544752550E+00
(PID.TID 0000.0001)  ploadbar=  1.01146320157421E+05
 cg2d: Sum(rhs),rhsMax =  -5.86126518358581E+01  1.22767711907731E+00
(PID.TID 0000.0001)  ploadbar=  1.01146404002955E+05
 cg2d: Sum(rhs),rhsMax =  -5.86695340304032E+01  1.22621312879153E+00
(PID.TID 0000.0001)  ploadbar=  1.01147332448759E+05
 cg2d: Sum(rhs),rhsMax =  -5.87152350717560E+01  1.22497150903312E+00
(PID.TID 0000.0001)  ploadbar=  1.01148260894563E+05
 cg2d: Sum(rhs),rhsMax =  -5.87517846367619E+01  1.22390829771415E+00
(PID.TID 0000.0001)  ploadbar=  1.01149189340367E+05
 cg2d: Sum(rhs),rhsMax =  -5.87824102118426E+01  1.22294757839184E+00
(PID.TID 0000.0001)  ploadbar=  1.01150117786171E+05
 cg2d: Sum(rhs),rhsMax =  -5.88086959363021E+01  1.22205211033623E+00
(PID.TID 0000.0001)  ploadbar=  1.01151046231976E+05
 cg2d: Sum(rhs),rhsMax =  -5.88312530793702E+01  1.22119920424729E+00
(PID.TID 0000.0001)  ploadbar=  1.01151974677780E+05
 cg2d: Sum(rhs),rhsMax =  -5.88629166814809E+01  1.22015445168273E+00
(PID.TID 0000.0001)  ploadbar=  1.01152414175913E+05
 cg2d: Sum(rhs),rhsMax =  -5.88908798124352E+01  1.21917899037194E+00
(PID.TID 0000.0001)  ploadbar=  1.01152853674047E+05
 cg2d: Sum(rhs),rhsMax =  -5.89124075872119E+01  1.21832860337320E+00
(PID.TID 0000.0001)  ploadbar=  1.01153293172180E+05
 cg2d: Sum(rhs),rhsMax =  -5.89294019223711E+01  1.21756098111589E+00
(PID.TID 0000.0001)  ploadbar=  1.01153732670314E+05
 cg2d: Sum(rhs),rhsMax =  -5.89414384939729E+01  1.21688158149361E+00
(PID.TID 0000.0001)  ploadbar=  1.01154172168448E+05
 cg2d: Sum(rhs),rhsMax =  -5.89482801451137E+01  1.21629186882845E+00
(PID.TID 0000.0001)  ploadbar=  1.01154611666581E+05
 cg2d: Sum(rhs),rhsMax =  -5.89451631484012E+01  1.21595503026225E+00
(PID.TID 0000.0001)  ploadbar=  1.01155633202438E+05
 cg2d: Sum(rhs),rhsMax =  -5.89387785055503E+01  1.21572929474933E+00
(PID.TID 0000.0001)  ploadbar=  1.01156654738294E+05
 cg2d: Sum(rhs),rhsMax =  -5.89339133242395E+01  1.21551463934782E+00
(PID.TID 0000.0001)  ploadbar=  1.01157676274151E+05
 cg2d: Sum(rhs),rhsMax =  -5.89255097857445E+01  1.21541214943391E+00
(PID.TID 0000.0001)  ploadbar=  1.01158697810007E+05
 cg2d: Sum(rhs),rhsMax =  -5.89119762195664E+01  1.21544957371055E+00
(PID.TID 0000.0001)  ploadbar=  1.01159719345864E+05
 cg2d: Sum(rhs),rhsMax =  -5.88928341281429E+01  1.21562777724698E+00
(PID.TID 0000.0001)  ploadbar=  1.01160740881720E+05
 cg2d: Sum(rhs),rhsMax =  -5.88704546961038E+01  1.21587142206627E+00
(PID.TID 0000.0001)  ploadbar=  1.01160328741133E+05
 cg2d: Sum(rhs),rhsMax =  -5.88433656876951E+01  1.21620766949404E+00
(PID.TID 0000.0001)  ploadbar=  1.01159916600547E+05
 cg2d: Sum(rhs),rhsMax =  -5.88098647591142E+01  1.21666355439497E+00
(PID.TID 0000.0001)  ploadbar=  1.01159504459960E+05
 cg2d: Sum(rhs),rhsMax =  -5.87711881466786E+01  1.21720668921783E+00
(PID.TID 0000.0001)  ploadbar=  1.01159092319373E+05
 cg2d: Sum(rhs),rhsMax =  -5.87295842457664E+01  1.21778412077691E+00
(PID.TID 0000.0001)  ploadbar=  1.01158680178786E+05
 cg2d: Sum(rhs),rhsMax =  -5.86858478653827E+01  1.21837557469283E+00
(PID.TID 0000.0001)  ploadbar=  1.01158268038200E+05
 cg2d: Sum(rhs),rhsMax =  -5.86323222115998E+01  1.21919106921349E+00
(PID.TID 0000.0001)  ploadbar=  1.01157250891005E+05
 cg2d: Sum(rhs),rhsMax =  -5.85778354906584E+01  1.22004511948695E+00
(PID.TID 0000.0001)  ploadbar=  1.01156233743810E+05
 cg2d: Sum(rhs),rhsMax =  -5.85297839795216E+01  1.22078040626352E+00
(PID.TID 0000.0001)  ploadbar=  1.01155216596616E+05
 cg2d: Sum(rhs),rhsMax =  -5.84853411172685E+01  1.22144691148737E+00
(PID.TID 0000.0001)  ploadbar=  1.01154199449421E+05
 cg2d: Sum(rhs),rhsMax =  -5.84459300604075E+01  1.22200893028361E+00
(PID.TID 0000.0001)  ploadbar=  1.01153182302226E+05
 cg2d: Sum(rhs),rhsMax =  -5.84147003161023E+01  1.22239355933841E+00
(PID.TID 0000.0001)  ploadbar=  1.01152165155031E+05
 cg2d: Sum(rhs),rhsMax =  -5.84070721081093E+01  1.22222673834208E+00
(PID.TID 0000.0001)  ploadbar=  1.01151734585887E+05
 cg2d: Sum(rhs),rhsMax =  -5.84196206194481E+01  1.22157668873798E+00
(PID.TID 0000.0001)  ploadbar=  1.01151304016743E+05
 cg2d: Sum(rhs),rhsMax =  -5.80305929210508E+01  1.22931357682327E+00
(PID.TID 0000.0001)  ploadbar=  1.01150873447598E+05
 cg2d: Sum(rhs),rhsMax =  -5.67181405126665E+01  1.25723032215537E+00
(PID.TID 0000.0001)  ploadbar=  1.01150442878454E+05
 cg2d: Sum(rhs),rhsMax =  -5.54631074425365E+01  1.28506585624732E+00
(PID.TID 0000.0001)  ploadbar=  1.01150012309309E+05
 cg2d: Sum(rhs),rhsMax =  -5.42859568837547E+01  1.31223131082290E+00
(PID.TID 0000.0001)  ploadbar=  1.01149581740165E+05
 cg2d: Sum(rhs),rhsMax =  -5.32447595575814E+01  1.33725981723673E+00
(PID.TID 0000.0001)  ploadbar=  1.01149070617488E+05
 cg2d: Sum(rhs),rhsMax =  -5.23216593150124E+01  1.36028856904027E+00
(PID.TID 0000.0001)  ploadbar=  1.01148559494811E+05
 cg2d: Sum(rhs),rhsMax =  -5.16391822886758E+01  1.37777184121505E+00
(PID.TID 0000.0001)  ploadbar=  1.01148048372135E+05
 cg2d: Sum(rhs),rhsMax =  -5.11376052108240E+01  1.39086238305521E+00
(PID.TID 0000.0001)  ploadbar=  1.01147537249458E+05
 cg2d: Sum(rhs),rhsMax =  -5.07344736835233E+01  1.40155919986745E+00
(PID.TID 0000.0001)  ploadbar=  1.01147026126781E+05
 cg2d: Sum(rhs),rhsMax =  -5.03678751178467E+01  1.41146543760583E+00
(PID.TID 0000.0001)  ploadbar=  1.01146515004104E+05
 cg2d: Sum(rhs),rhsMax =  -4.99581351849390E+01  1.42277285565559E+00
(PID.TID 0000.0001)  ploadbar=  1.01145398191749E+05
 cg2d: Sum(rhs),rhsMax =  -4.94958233588049E+01  1.43580732967711E+00
(PID.TID 0000.0001)  ploadbar=  1.01144281379393E+05
 cg2d: Sum(rhs),rhsMax =  -4.89922037139432E+01  1.45032028420750E+00
(PID.TID 0000.0001)  ploadbar=  1.01143164567037E+05
 cg2d: Sum(rhs),rhsMax =  -4.84735128014239E+01  1.46559709424605E+00
(PID.TID 0000.0001)  ploadbar=  1.01142047754681E+05
 cg2d: Sum(rhs),rhsMax =  -4.79312389911857E+01  1.48193596925552E+00
(PID.TID 0000.0001)  ploadbar=  1.01140930942325E+05
 cg2d: Sum(rhs),rhsMax =  -4.74283442104027E+01  1.49740624728672E+00
(PID.TID 0000.0001)  ploadbar=  1.01139814129970E+05
 cg2d: Sum(rhs),rhsMax =  -4.69838014409767E+01  1.51131372633447E+00
(PID.TID 0000.0001)  ploadbar=  1.01139931359417E+05
 cg2d: Sum(rhs),rhsMax =  -4.66201954454462E+01  1.52281962470897E+00
(PID.TID 0000.0001)  ploadbar=  1.01140048588864E+05
 cg2d: Sum(rhs),rhsMax =  -4.63411718972464E+01  1.53168319544186E+00
(PID.TID 0000.0001)  ploadbar=  1.01140165818311E+05
 cg2d: Sum(rhs),rhsMax =  -4.61381524012044E+01  1.53808587461173E+00
(PID.TID 0000.0001)  ploadbar=  1.01140283047758E+05
 cg2d: Sum(rhs),rhsMax =  -4.59991712497912E+01  1.54235720960460E+00
(PID.TID 0000.0001)  ploadbar=  1.01140400277205E+05
 cg2d: Sum(rhs),rhsMax =  -4.59082780705872E+01  1.54498974964035E+00
(PID.TID 0000.0001)  ploadbar=  1.01140517506652E+05
 cg2d: Sum(rhs),rhsMax =  -4.58572560585467E+01  1.54623207894635E+00
(PID.TID 0000.0001)  ploadbar=  1.01140714940362E+05
 cg2d: Sum(rhs),rhsMax =  -4.58174590489029E+01  1.54703931623234E+00
(PID.TID 0000.0001)  ploadbar=  1.01140912374071E+05
 cg2d: Sum(rhs),rhsMax =  -4.57812927640786E+01  1.54766207707922E+00
(PID.TID 0000.0001)  ploadbar=  1.01141109807781E+05
 cg2d: Sum(rhs),rhsMax =  -4.57440294324155E+01  1.54825527578413E+00
(PID.TID 0000.0001)  ploadbar=  1.01141307241491E+05
 cg2d: Sum(rhs),rhsMax =  -4.57044106962750E+01  1.54886138564513E+00
(PID.TID 0000.0001)  ploadbar=  1.01141504675200E+05
 cg2d: Sum(rhs),rhsMax =  -4.56642696720971E+01  1.54941759783866E+00
(PID.TID 0000.0001)  ploadbar=  1.01141702108910E+05
 cg2d: Sum(rhs),rhsMax =  -4.56069293603167E+01  1.55063257510816E+00
(PID.TID 0000.0001)  ploadbar=  1.01141320733737E+05
 cg2d: Sum(rhs),rhsMax =  -4.55328620245470E+01  1.55248974761841E+00
(PID.TID 0000.0001)  ploadbar=  1.01140939358565E+05
 cg2d: Sum(rhs),rhsMax =  -4.54510567123613E+01  1.55468408398281E+00
(PID.TID 0000.0001)  ploadbar=  1.01140557983392E+05
 cg2d: Sum(rhs),rhsMax =  -4.55888210906958E+01  1.54944861029664E+00
(PID.TID 0000.0001)  ploadbar=  1.01140176608219E+05
 cg2d: Sum(rhs),rhsMax =  -4.58271204133982E+01  1.54091288820085E+00
(PID.TID 0000.0001)  ploadbar=  1.01139795233047E+05
 cg2d: Sum(rhs),rhsMax =  -4.61151064708622E+01  1.53086157752010E+00
(PID.TID 0000.0001)  ploadbar=  1.01139413857874E+05
 cg2d: Sum(rhs),rhsMax =  -4.64341709992237E+01  1.51993956351185E+00
(PID.TID 0000.0001)  ploadbar=  1.01138831493154E+05
 cg2d: Sum(rhs),rhsMax =  -4.67801653684306E+01  1.50830801333616E+00
(PID.TID 0000.0001)  ploadbar=  1.01138249128433E+05
 cg2d: Sum(rhs),rhsMax =  -4.71534252148613E+01  1.49598860079217E+00
(PID.TID 0000.0001)  ploadbar=  1.01137666763713E+05
 cg2d: Sum(rhs),rhsMax =  -4.75516438879291E+01  1.48308784525776E+00
(PID.TID 0000.0001)  ploadbar=  1.01137084398992E+05
 cg2d: Sum(rhs),rhsMax =  -4.79899040452918E+01  1.46917502586690E+00
(PID.TID 0000.0001)  ploadbar=  1.01136502034272E+05
 cg2d: Sum(rhs),rhsMax =  -4.85165180057086E+01  1.45285898273226E+00
(PID.TID 0000.0001)  ploadbar=  1.01135919669552E+05
 cg2d: Sum(rhs),rhsMax =  -4.90331399651433E+01  1.43718955903428E+00
(PID.TID 0000.0001)  ploadbar=  1.01135696235600E+05
 cg2d: Sum(rhs),rhsMax =  -4.95607882647644E+01  1.42153105972837E+00
(PID.TID 0000.0001)  ploadbar=  1.01135472801648E+05
 cg2d: Sum(rhs),rhsMax =  -5.01117120921878E+01  1.40554447445978E+00
(PID.TID 0000.0001)  ploadbar=  1.01135249367696E+05
 cg2d: Sum(rhs),rhsMax =  -5.07017750465136E+01  1.38882342594749E+00
(PID.TID 0000.0001)  ploadbar=  1.01135025933744E+05
 cg2d: Sum(rhs),rhsMax =  -5.13405865889196E+01  1.37116718438310E+00
(PID.TID 0000.0001)  ploadbar=  1.01134802499792E+05
 cg2d: Sum(rhs),rhsMax =  -5.20332785671353E+01  1.35251999773624E+00
(PID.TID 0000.0001)  ploadbar=  1.01134579065841E+05
 cg2d: Sum(rhs),rhsMax =  -5.26712511605952E+01  1.33573164976798E+00
(PID.TID 0000.0001)  ploadbar=  1.01133836001613E+05
 cg2d: Sum(rhs),rhsMax =  -5.32607779618435E+01  1.32052326004549E+00
(PID.TID 0000.0001)  ploadbar=  1.01133092937385E+05
 cg2d: Sum(rhs),rhsMax =  -5.38278871522625E+01  1.30616743088013E+00
(PID.TID 0000.0001)  ploadbar=  1.01132349873157E+05
 cg2d: Sum(rhs),rhsMax =  -5.44132398938159E+01  1.29165159071955E+00
(PID.TID 0000.0001)  ploadbar=  1.01131606808929E+05
 cg2d: Sum(rhs),rhsMax =  -5.50615912767726E+01  1.27595523699515E+00
(PID.TID 0000.0001)  ploadbar=  1.01130863744701E+05
 cg2d: Sum(rhs),rhsMax =  -5.58125394567454E+01  1.25827838376392E+00
(PID.TID 0000.0001)  ploadbar=  1.01130120680473E+05
 cg2d: Sum(rhs),rhsMax =  -5.65495985114553E+01  1.24142101062434E+00
(PID.TID 0000.0001)  ploadbar=  1.01129803542803E+05
 cg2d: Sum(rhs),rhsMax =  -5.73444987263945E+01  1.22380304120744E+00
(PID.TID 0000.0001)  ploadbar=  1.01129486405133E+05
 cg2d: Sum(rhs),rhsMax =  -5.81376526261150E+01  1.20673953795069E+00
(PID.TID 0000.0001)  ploadbar=  1.01129169267463E+05
 cg2d: Sum(rhs),rhsMax =  -5.89151244554977E+01  1.19048396895990E+00
(PID.TID 0000.0001)  ploadbar=  1.01128852129794E+05
 cg2d: Sum(rhs),rhsMax =  -5.95604923830395E+01  1.17728582898575E+00
(PID.TID 0000.0001)  ploadbar=  1.01128534992124E+05
 cg2d: Sum(rhs),rhsMax =  -6.00122461418568E+01  1.16814834583228E+00
(PID.TID 0000.0001)  ploadbar=  1.01128217854454E+05
 cg2d: Sum(rhs),rhsMax =  -6.03612818125762E+01  1.16113943532829E+00
(PID.TID 0000.0001)  ploadbar=  1.01127231719532E+05
 cg2d: Sum(rhs),rhsMax =  -6.06409363327868E+01  1.15554814772726E+00
(PID.TID 0000.0001)  ploadbar=  1.01126245584610E+05
 cg2d: Sum(rhs),rhsMax =  -6.07110162100051E+01  1.15399228377620E+00
(PID.TID 0000.0001)  ploadbar=  1.01125259449688E+05
 cg2d: Sum(rhs),rhsMax =  -5.99405769189846E+01  1.16861069584139E+00
(PID.TID 0000.0001)  ploadbar=  1.01124273314766E+05
 cg2d: Sum(rhs),rhsMax =  -5.90676775769571E+01  1.18566989277494E+00
(PID.TID 0000.0001)  ploadbar=  1.01123287179844E+05
 cg2d: Sum(rhs),rhsMax =  -5.81121822838763E+01  1.20495294446485E+00
(PID.TID 0000.0001)  ploadbar=  1.01122301044922E+05
 cg2d: Sum(rhs),rhsMax =  -5.70195734446352E+01  1.22782238460784E+00
(PID.TID 0000.0001)  ploadbar=  1.01122453575512E+05
 cg2d: Sum(rhs),rhsMax =  -5.59169910938413E+01  1.25180240935073E+00
(PID.TID 0000.0001)  ploadbar=  1.01122606106102E+05
 cg2d: Sum(rhs),rhsMax =  -5.48280881914025E+01  1.27641740808992E+00
(PID.TID 0000.0001)  ploadbar=  1.01122758636691E+05
 cg2d: Sum(rhs),rhsMax =  -5.37476415592149E+01  1.30181210220082E+00
(PID.TID 0000.0001)  ploadbar=  1.01122911167281E+05
 cg2d: Sum(rhs),rhsMax =  -5.26821215507445E+01  1.32785557453473E+00
(PID.TID 0000.0001)  ploadbar=  1.01123063697871E+05
 cg2d: Sum(rhs),rhsMax =  -5.16288143262531E+01  1.35463041233413E+00
(PID.TID 0000.0001)  ploadbar=  1.01123216228460E+05
 cg2d: Sum(rhs),rhsMax =  -5.07384085676834E+01  1.37805145809094E+00
(PID.TID 0000.0001)  ploadbar=  1.01122750044224E+05
 cg2d: Sum(rhs),rhsMax =  -5.01899601733347E+01  1.39272337029371E+00
(PID.TID 0000.0001)  ploadbar=  1.01122283859988E+05
 cg2d: Sum(rhs),rhsMax =  -4.97676116651385E+01  1.40411858450320E+00
(PID.TID 0000.0001)  ploadbar=  1.01121817675751E+05
 cg2d: Sum(rhs),rhsMax =  -4.94248105681998E+01  1.41339447195670E+00
(PID.TID 0000.0001)  ploadbar=  1.01121351491515E+05
 cg2d: Sum(rhs),rhsMax =  -4.90090795594748E+01  1.42487825257318E+00
(PID.TID 0000.0001)  ploadbar=  1.01120885307279E+05
 cg2d: Sum(rhs),rhsMax =  -4.86875326912424E+01  1.43373916526825E+00
(PID.TID 0000.0001)  ploadbar=  1.01120419123042E+05
 cg2d: Sum(rhs),rhsMax =  -4.85507057511733E+01  1.43727703330945E+00
(PID.TID 0000.0001)  ploadbar=  1.01121045662023E+05
 cg2d: Sum(rhs),rhsMax =  -4.86258718684487E+01  1.43459535258180E+00
(PID.TID 0000.0001)  ploadbar=  1.01121672201004E+05
 cg2d: Sum(rhs),rhsMax =  -4.87619835993967E+01  1.43017161590135E+00
(PID.TID 0000.0001)  ploadbar=  1.01122298739984E+05
 cg2d: Sum(rhs),rhsMax =  -4.89775997728924E+01  1.42349620520215E+00
(PID.TID 0000.0001)  ploadbar=  1.01122925278965E+05
 cg2d: Sum(rhs),rhsMax =  -4.92178191013378E+01  1.41620543303428E+00
(PID.TID 0000.0001)  ploadbar=  1.01123551817946E+05
 cg2d: Sum(rhs),rhsMax =  -4.94399084876238E+01  1.40952848145852E+00
(PID.TID 0000.0001)  ploadbar=  1.01124178356926E+05
 cg2d: Sum(rhs),rhsMax =  -4.95219480696707E+01  1.40688092239094E+00
(PID.TID 0000.0001)  ploadbar=  1.01124805063512E+05
 cg2d: Sum(rhs),rhsMax =  -4.95888367447232E+01  1.40467126797198E+00
(PID.TID 0000.0001)  ploadbar=  1.01125431770097E+05
 cg2d: Sum(rhs),rhsMax =  -4.96593677266555E+01  1.40236026835500E+00
(PID.TID 0000.0001)  ploadbar=  1.01126058476682E+05
 cg2d: Sum(rhs),rhsMax =  -4.97265357914712E+01  1.40014466586049E+00
(PID.TID 0000.0001)  ploadbar=  1.01126685183268E+05
 cg2d: Sum(rhs),rhsMax =  -4.97972315742656E+01  1.39782654557176E+00
(PID.TID 0000.0001)  ploadbar=  1.01127311889853E+05
 cg2d: Sum(rhs),rhsMax =  -4.98768570894446E+01  1.39525105560323E+00
(PID.TID 0000.0001)  ploadbar=  1.01127938596438E+05
 cg2d: Sum(rhs),rhsMax =  -4.99290781631101E+01  1.39345176532581E+00
(PID.TID 0000.0001)  ploadbar=  1.01128126306179E+05
 cg2d: Sum(rhs),rhsMax =  -5.00190224292801E+01  1.39060442501861E+00
(PID.TID 0000.0001)  ploadbar=  1.01128314015919E+05
 cg2d: Sum(rhs),rhsMax =  -5.01772757392595E+01  1.38587266734812E+00
(PID.TID 0000.0001)  ploadbar=  1.01128501725659E+05
 cg2d: Sum(rhs),rhsMax =  -5.04330479580281E+01  1.37848948254687E+00
(PID.TID 0000.0001)  ploadbar=  1.01128689435399E+05
 cg2d: Sum(rhs),rhsMax =  -5.08161609324075E+01  1.36773095164213E+00
(PID.TID 0000.0001)  ploadbar=  1.01128877145140E+05
 cg2d: Sum(rhs),rhsMax =  -5.13494015540440E+01  1.35314746067688E+00
(PID.TID 0000.0001)  ploadbar=  1.01129064854880E+05
 cg2d: Sum(rhs),rhsMax =  -5.19228974771631E+01  1.33778876786916E+00
(PID.TID 0000.0001)  ploadbar=  1.01129288456005E+05
 cg2d: Sum(rhs),rhsMax =  -5.25235073949068E+01  1.32204532846238E+00
(PID.TID 0000.0001)  ploadbar=  1.01129512057130E+05
 cg2d: Sum(rhs),rhsMax =  -5.31088646211020E+01  1.30699564379987E+00
(PID.TID 0000.0001)  ploadbar=  1.01129735658255E+05
 cg2d: Sum(rhs),rhsMax =  -5.36777703461530E+01  1.29263101819949E+00
(PID.TID 0000.0001)  ploadbar=  1.01129959259380E+05
 cg2d: Sum(rhs),rhsMax =  -5.42457515823375E+01  1.27854777801198E+00
(PID.TID 0000.0001)  ploadbar=  1.01130182860506E+05
 cg2d: Sum(rhs),rhsMax =  -5.48324912957286E+01  1.26428055937651E+00
(PID.TID 0000.0001)  ploadbar=  1.01130406461631E+05
 cg2d: Sum(rhs),rhsMax =  -5.56422960242583E+01  1.24539943135485E+00
(PID.TID 0000.0001)  ploadbar=  1.01130340233188E+05
 cg2d: Sum(rhs),rhsMax =  -5.64285356928931E+01  1.22766317952247E+00
(PID.TID 0000.0001)  ploadbar=  1.01130274004746E+05
 cg2d: Sum(rhs),rhsMax =  -5.71525273854351E+01  1.21181945334071E+00
(PID.TID 0000.0001)  ploadbar=  1.01130207776304E+05
 cg2d: Sum(rhs),rhsMax =  -5.77142217914785E+01  1.19981882854826E+00
(PID.TID 0000.0001)  ploadbar=  1.01130141547862E+05
 cg2d: Sum(rhs),rhsMax =  -5.81373002745360E+01  1.19096055194483E+00
(PID.TID 0000.0001)  ploadbar=  1.01130075319419E+05
 cg2d: Sum(rhs),rhsMax =  -5.84674916025981E+01  1.18418080828558E+00
(PID.TID 0000.0001)  ploadbar=  1.01130009090977E+05
 cg2d: Sum(rhs),rhsMax =  -5.86851585425660E+01  1.17971488694405E+00
(PID.TID 0000.0001)  ploadbar=  1.01129859640716E+05
 cg2d: Sum(rhs),rhsMax =  -5.89060183003288E+01  1.17519202390229E+00
(PID.TID 0000.0001)  ploadbar=  1.01129710190454E+05
 cg2d: Sum(rhs),rhsMax =  -5.91100658294039E+01  1.17100852784407E+00
(PID.TID 0000.0001)  ploadbar=  1.01129560740193E+05
 cg2d: Sum(rhs),rhsMax =  -5.93048602088084E+01  1.16700758201556E+00
(PID.TID 0000.0001)  ploadbar=  1.01129411289932E+05
 cg2d: Sum(rhs),rhsMax =  -5.94782658742058E+01  1.16342137605718E+00
(PID.TID 0000.0001)  ploadbar=  1.01129261839671E+05
 cg2d: Sum(rhs),rhsMax =  -5.96150903479134E+01  1.16053543970301E+00
(PID.TID 0000.0001)  ploadbar=  1.01129112389409E+05
 cg2d: Sum(rhs),rhsMax =  -5.95291811306496E+01  1.16199545420362E+00
(PID.TID 0000.0001)  ploadbar=  1.01129549914557E+05
 cg2d: Sum(rhs),rhsMax =  -5.94772109315150E+01  1.16279582513773E+00
(PID.TID 0000.0001)  ploadbar=  1.01129987439705E+05
 cg2d: Sum(rhs),rhsMax =  -5.94481515007442E+01  1.16314711340027E+00
(PID.TID 0000.0001)  ploadbar=  1.01130424964853E+05
 cg2d: Sum(rhs),rhsMax =  -5.94064547682820E+01  1.16373939400199E+00
(PID.TID 0000.0001)  ploadbar=  1.01130862490000E+05
 cg2d: Sum(rhs),rhsMax =  -5.93678536939052E+01  1.16426061277055E+00
(PID.TID 0000.0001)  ploadbar=  1.01131300015148E+05
 cg2d: Sum(rhs),rhsMax =  -5.94050772476869E+01  1.16328114433989E+00
(PID.TID 0000.0001)  ploadbar=  1.01131737540296E+05
 cg2d: Sum(rhs),rhsMax =  -5.96113341328489E+01  1.15899386133633E+00
(PID.TID 0000.0001)  ploadbar=  1.01130988179612E+05
 cg2d: Sum(rhs),rhsMax =  -5.98762566242032E+01  1.15359156949964E+00
(PID.TID 0000.0001)  ploadbar=  1.01130238818927E+05
 cg2d: Sum(rhs),rhsMax =  -6.01934514864229E+01  1.14722489253818E+00
(PID.TID 0000.0001)  ploadbar=  1.01129489458243E+05
 cg2d: Sum(rhs),rhsMax =  -6.05451607326420E+01  1.14026014887684E+00
(PID.TID 0000.0001)  ploadbar=  1.01128740097559E+05
 cg2d: Sum(rhs),rhsMax =  -6.09028875081546E+01  1.13325048152500E+00
(PID.TID 0000.0001)  ploadbar=  1.01127990736875E+05
 cg2d: Sum(rhs),rhsMax =  -6.11053077172383E+01  1.12917181454900E+00
(PID.TID 0000.0001)  ploadbar=  1.01127241376190E+05
 cg2d: Sum(rhs),rhsMax =  -6.14357030664581E+01  1.12281538430207E+00
(PID.TID 0000.0001)  ploadbar=  1.01125499179574E+05
 cg2d: Sum(rhs),rhsMax =  -6.18368666351685E+01  1.11528219879429E+00
(PID.TID 0000.0001)  ploadbar=  1.01123756982958E+05
 cg2d: Sum(rhs),rhsMax =  -6.23242191567949E+01  1.10634586135210E+00
(PID.TID 0000.0001)  ploadbar=  1.01122014786341E+05
 cg2d: Sum(rhs),rhsMax =  -6.29158041325125E+01  1.09576034311616E+00
(PID.TID 0000.0001)  ploadbar=  1.01120272589725E+05
 cg2d: Sum(rhs),rhsMax =  -6.31958942022709E+01  1.09075253329017E+00
(PID.TID 0000.0001)  ploadbar=  1.01118530393108E+05
 cg2d: Sum(rhs),rhsMax =  -6.32980497596468E+01  1.08886941009682E+00
(PID.TID 0000.0001)  ploadbar=  1.01116788196492E+05
 cg2d: Sum(rhs),rhsMax =  -6.34081037425242E+01  1.08685246533149E+00
(PID.TID 0000.0001)  ploadbar=  1.01116852702411E+05
 cg2d: Sum(rhs),rhsMax =  -6.35204041736529E+01  1.08479781965868E+00
(PID.TID 0000.0001)  ploadbar=  1.01116917208330E+05
 cg2d: Sum(rhs),rhsMax =  -6.36284864955610E+01  1.08281432078658E+00
(PID.TID 0000.0001)  ploadbar=  1.01116981714248E+05
 cg2d: Sum(rhs),rhsMax =  -6.37319618707382E+01  1.08090522260541E+00
(PID.TID 0000.0001)  ploadbar=  1.01117046220167E+05
 cg2d: Sum(rhs),rhsMax =  -6.38290549324973E+01  1.07909649514536E+00
(PID.TID 0000.0001)  ploadbar=  1.01117110726086E+05
 cg2d: Sum(rhs),rhsMax =  -6.39188670598190E+01  1.07739852472410E+00
(PID.TID 0000.0001)  ploadbar=  1.01117175232005E+05
 cg2d: Sum(rhs),rhsMax =  -6.40079780134689E+01  1.07573586767930E+00
(PID.TID 0000.0001)  ploadbar=  1.01118487521576E+05
 cg2d: Sum(rhs),rhsMax =  -6.41036423431550E+01  1.07398400167609E+00
(PID.TID 0000.0001)  ploadbar=  1.01119799811146E+05
 cg2d: Sum(rhs),rhsMax =  -6.41934907518936E+01  1.07234841155366E+00
(PID.TID 0000.0001)  ploadbar=  1.01121112100717E+05
 cg2d: Sum(rhs),rhsMax =  -6.42807684868026E+01  1.07077279955510E+00
(PID.TID 0000.0001)  ploadbar=  1.01122424390288E+05
 cg2d: Sum(rhs),rhsMax =  -6.43635792015814E+01  1.06928552960241E+00
(PID.TID 0000.0001)  ploadbar=  1.01123736679859E+05
 cg2d: Sum(rhs),rhsMax =  -6.44366972306009E+01  1.06796562017521E+00
(PID.TID 0000.0001)  ploadbar=  1.01125048969429E+05
 cg2d: Sum(rhs),rhsMax =  -6.45066142995464E+01  1.06667247553298E+00
(PID.TID 0000.0001)  ploadbar=  1.01125769583376E+05
 cg2d: Sum(rhs),rhsMax =  -6.45834019802284E+01  1.06523839851527E+00
(PID.TID 0000.0001)  ploadbar=  1.01126490197322E+05
 cg2d: Sum(rhs),rhsMax =  -6.46637173432156E+01  1.06371786433198E+00
(PID.TID 0000.0001)  ploadbar=  1.01127210811269E+05
 cg2d: Sum(rhs),rhsMax =  -6.47485572539299E+01  1.06209334385922E+00
(PID.TID 0000.0001)  ploadbar=  1.01127931425216E+05
 cg2d: Sum(rhs),rhsMax =  -6.48377284768430E+01  1.06036724853806E+00
(PID.TID 0000.0001)  ploadbar=  1.01128652039162E+05
 cg2d: Sum(rhs),rhsMax =  -6.49295247253484E+01  1.05856586007626E+00
(PID.TID 0000.0001)  ploadbar=  1.01129372653109E+05
 cg2d: Sum(rhs),rhsMax =  -6.50678354308247E+01  1.05607731581802E+00
(PID.TID 0000.0001)  ploadbar=  1.01129733617350E+05
 cg2d: Sum(rhs),rhsMax =  -6.52170388236112E+01  1.05348421889763E+00
(PID.TID 0000.0001)  ploadbar=  1.01130094581592E+05
 cg2d: Sum(rhs),rhsMax =  -6.53828792549035E+01  1.05069476964307E+00
(PID.TID 0000.0001)  ploadbar=  1.01130455545833E+05
 cg2d: Sum(rhs),rhsMax =  -6.55578480212899E+01  1.04783029993203E+00
(PID.TID 0000.0001)  ploadbar=  1.01130816510075E+05
 cg2d: Sum(rhs),rhsMax =  -6.57335142410533E+01  1.04502426958414E+00
(PID.TID 0000.0001)  ploadbar=  1.01131177474317E+05
 cg2d: Sum(rhs),rhsMax =  -6.59044289883728E+01  1.04236062429010E+00
(PID.TID 0000.0001)  ploadbar=  1.01131538438558E+05
 cg2d: Sum(rhs),rhsMax =  -6.60473116844723E+01  1.04014922773137E+00
(PID.TID 0000.0001)  ploadbar=  1.01131894109103E+05
 cg2d: Sum(rhs),rhsMax =  -6.61842929177200E+01  1.03803361046420E+00
(PID.TID 0000.0001)  ploadbar=  1.01132249779649E+05
 cg2d: Sum(rhs),rhsMax =  -6.63328792047206E+01  1.03573796801483E+00
(PID.TID 0000.0001)  ploadbar=  1.01132605450194E+05
 cg2d: Sum(rhs),rhsMax =  -6.64880211847248E+01  1.03333965256975E+00
(PID.TID 0000.0001)  ploadbar=  1.01132961120739E+05
 cg2d: Sum(rhs),rhsMax =  -6.66508694836731E+01  1.03081683495670E+00
(PID.TID 0000.0001)  ploadbar=  1.01133316791284E+05
 cg2d: Sum(rhs),rhsMax =  -6.68261242953672E+01  1.02809585870012E+00
(PID.TID 0000.0001)  ploadbar=  1.01133672461830E+05
 cg2d: Sum(rhs),rhsMax =  -6.70876274071624E+01  1.02408552081964E+00
(PID.TID 0000.0001)  ploadbar=  1.01134885946353E+05
 cg2d: Sum(rhs),rhsMax =  -6.73600774964788E+01  1.01995326564208E+00
(PID.TID 0000.0001)  ploadbar=  1.01136099430877E+05
 cg2d: Sum(rhs),rhsMax =  -6.76430282429479E+01  1.01570270782235E+00
(PID.TID 0000.0001)  ploadbar=  1.01137312915400E+05
 cg2d: Sum(rhs),rhsMax =  -6.79454500078365E+01  1.01119858770280E+00
(PID.TID 0000.0001)  ploadbar=  1.01138526399924E+05
 cg2d: Sum(rhs),rhsMax =  -6.82723972179947E+01  1.00637043160003E+00
(PID.TID 0000.0001)  ploadbar=  1.01139739884447E+05
 cg2d: Sum(rhs),rhsMax =  -6.86352853064138E+01  1.00105756112766E+00
(PID.TID 0000.0001)  ploadbar=  1.01140953368971E+05
 cg2d: Sum(rhs),rhsMax =  -6.89456974560922E+01  9.96504865304877E-01
(PID.TID 0000.0001)  ploadbar=  1.01140354532123E+05
 cg2d: Sum(rhs),rhsMax =  -6.92563795119459E+01  9.91934092116465E-01
(PID.TID 0000.0001)  ploadbar=  1.01139755695275E+05
 cg2d: Sum(rhs),rhsMax =  -6.95674465236903E+01  9.87342960026762E-01
(PID.TID 0000.0001)  ploadbar=  1.01139156858427E+05
 cg2d: Sum(rhs),rhsMax =  -6.98652799145607E+01  9.82922060116557E-01
(PID.TID 0000.0001)  ploadbar=  1.01138558021579E+05
 cg2d: Sum(rhs),rhsMax =  -7.01517495514196E+01  9.78639056383766E-01
(PID.TID 0000.0001)  ploadbar=  1.01137959184731E+05
 cg2d: Sum(rhs),rhsMax =  -7.04270214342303E+01  9.74487475214260E-01
(PID.TID 0000.0001)  ploadbar=  1.01137360347884E+05
 cg2d: Sum(rhs),rhsMax =  -7.06286788413014E+01  9.71409183828485E-01
(PID.TID 0000.0001)  ploadbar=  1.01137710124583E+05
 cg2d: Sum(rhs),rhsMax =  -7.08207638595484E+01  9.68506667752468E-01
(PID.TID 0000.0001)  ploadbar=  1.01138059901282E+05
 cg2d: Sum(rhs),rhsMax =  -7.10256143370946E+01  9.65470390271540E-01
(PID.TID 0000.0001)  ploadbar=  1.01138409677981E+05
 cg2d: Sum(rhs),rhsMax =  -7.12310133561990E+01  9.62464452084333E-01
(PID.TID 0000.0001)  ploadbar=  1.01138759454680E+05
 cg2d: Sum(rhs),rhsMax =  -7.14328310363231E+01  9.59542241256754E-01
(PID.TID 0000.0001)  ploadbar=  1.01139109231379E+05
 cg2d: Sum(rhs),rhsMax =  -7.16248992169839E+01  9.56781946060798E-01
(PID.TID 0000.0001)  ploadbar=  1.01139459008078E+05
 cg2d: Sum(rhs),rhsMax =  -7.17841754643281E+01  9.54482390293352E-01
(PID.TID 0000.0001)  ploadbar=  1.01139039124933E+05
 cg2d: Sum(rhs),rhsMax =  -7.19039056219297E+01  9.52723508391360E-01
(PID.TID 0000.0001)  ploadbar=  1.01138619241788E+05
 cg2d: Sum(rhs),rhsMax =  -7.19765895167754E+01  9.51596651951832E-01
(PID.TID 0000.0001)  ploadbar=  1.01138199358643E+05
 cg2d: Sum(rhs),rhsMax =  -7.20221468610670E+01  9.50834365468892E-01
(PID.TID 0000.0001)  ploadbar=  1.01137779475498E+05
 cg2d: Sum(rhs),rhsMax =  -7.20496642610810E+01  9.50314172071182E-01
(PID.TID 0000.0001)  ploadbar=  1.01137359592353E+05
 cg2d: Sum(rhs),rhsMax =  -7.20603652001318E+01  9.50017560652418E-01
(PID.TID 0000.0001)  ploadbar=  1.01136939709208E+05
 cg2d: Sum(rhs),rhsMax =  -7.21371961216462E+01  9.48858046297851E-01
(PID.TID 0000.0001)  ploadbar=  1.01138474762085E+05
 cg2d: Sum(rhs),rhsMax =  -7.22379085000125E+01  9.47391233020112E-01
(PID.TID 0000.0001)  ploadbar=  1.01140009814961E+05
 cg2d: Sum(rhs),rhsMax =  -7.23494023310246E+01  9.45785870688029E-01
(PID.TID 0000.0001)  ploadbar=  1.01141544867837E+05
 cg2d: Sum(rhs),rhsMax =  -7.24778639707751E+01  9.43959378798516E-01
(PID.TID 0000.0001)  ploadbar=  1.01143079920713E+05
 cg2d: Sum(rhs),rhsMax =  -7.26208154193602E+01  9.41945196562391E-01
(PID.TID 0000.0001)  ploadbar=  1.01144614973590E+05
 cg2d: Sum(rhs),rhsMax =  -7.27752530863632E+01  9.39782513004958E-01
(PID.TID 0000.0001)  ploadbar=  1.01146150026466E+05
 cg2d: Sum(rhs),rhsMax =  -7.30076130585541E+01  9.36606302918472E-01
(PID.TID 0000.0001)  ploadbar=  1.01145852031405E+05
 cg2d: Sum(rhs),rhsMax =  -7.32689126189526E+01  9.33059238057387E-01
(PID.TID 0000.0001)  ploadbar=  1.01145554036344E+05
 cg2d: Sum(rhs),rhsMax =  -7.35659152057815E+01  9.29063518007545E-01
(PID.TID 0000.0001)  ploadbar=  1.01145256041283E+05
 cg2d: Sum(rhs),rhsMax =  -7.39106760586626E+01  9.24478301338688E-01
(PID.TID 0000.0001)  ploadbar=  1.01144958046222E+05
 cg2d: Sum(rhs),rhsMax =  -7.43152558830129E+01  9.19171127747176E-01
(PID.TID 0000.0001)  ploadbar=  1.01144660051161E+05
 cg2d: Sum(rhs),rhsMax =  -7.47931397159497E+01  9.13000460870996E-01
(PID.TID 0000.0001)  ploadbar=  1.01144362056100E+05
 cg2d: Sum(rhs),rhsMax =  -7.52725437003169E+01  9.06928060854534E-01
(PID.TID 0000.0001)  ploadbar=  1.01144043623650E+05
 cg2d: Sum(rhs),rhsMax =  -7.58023860973156E+01  9.00369813096075E-01
(PID.TID 0000.0001)  ploadbar=  1.01143725191201E+05
 cg2d: Sum(rhs),rhsMax =  -7.38106990239653E+01  9.24476486384076E-01
(PID.TID 0000.0001)  ploadbar=  1.01143406758752E+05
 cg2d: Sum(rhs),rhsMax =  -7.06620655212954E+01  9.65509238723506E-01
(PID.TID 0000.0001)  ploadbar=  1.01143088326303E+05
 cg2d: Sum(rhs),rhsMax =  -6.77223896999556E+01  1.00728528670285E+00
(PID.TID 0000.0001)  ploadbar=  1.01142769893853E+05
 cg2d: Sum(rhs),rhsMax =  -6.50527222873058E+01  1.04851209954118E+00
(PID.TID 0000.0001)  ploadbar=  1.01142451461404E+05
 cg2d: Sum(rhs),rhsMax =  -6.29003640556929E+01  1.08430803556956E+00
(PID.TID 0000.0001)  ploadbar=  1.01140919505926E+05
 cg2d: Sum(rhs),rhsMax =  -6.11562644083703E+01  1.11517696467274E+00
(PID.TID 0000.0001)  ploadbar=  1.01139387550449E+05
 cg2d: Sum(rhs),rhsMax =  -5.97468068947767E+01  1.14145806372798E+00
(PID.TID 0000.0001)  ploadbar=  1.01137855594971E+05
 cg2d: Sum(rhs),rhsMax =  -5.86764291074852E+01  1.16228145680557E+00
(PID.TID 0000.0001)  ploadbar=  1.01136323639493E+05
 cg2d: Sum(rhs),rhsMax =  -5.79390134886482E+01  1.17710220837994E+00
(PID.TID 0000.0001)  ploadbar=  1.01134791684015E+05
 cg2d: Sum(rhs),rhsMax =  -5.74492630281413E+01  1.18718994150503E+00
(PID.TID 0000.0001)  ploadbar=  1.01133259728538E+05
 cg2d: Sum(rhs),rhsMax =  -5.71118258403177E+01  1.19425451729972E+00
(PID.TID 0000.0001)  ploadbar=  1.01131319470125E+05
 cg2d: Sum(rhs),rhsMax =  -5.68042567457402E+01  1.20076266712377E+00
(PID.TID 0000.0001)  ploadbar=  1.01129379211712E+05
 cg2d: Sum(rhs),rhsMax =  -5.65152934119119E+01  1.20692957537104E+00
(PID.TID 0000.0001)  ploadbar=  1.01127438953299E+05
 cg2d: Sum(rhs),rhsMax =  -5.62504674689814E+01  1.21262199838886E+00
(PID.TID 0000.0001)  ploadbar=  1.01125498694887E+05
 cg2d: Sum(rhs),rhsMax =  -5.60229453844917E+01  1.21753504389387E+00
(PID.TID 0000.0001)  ploadbar=  1.01123558436474E+05
 cg2d: Sum(rhs),rhsMax =  -5.58438712853486E+01  1.22140262543600E+00
(PID.TID 0000.0001)  ploadbar=  1.01121618178061E+05
 cg2d: Sum(rhs),rhsMax =  -5.56950103520530E+01  1.22459440402773E+00
(PID.TID 0000.0001)  ploadbar=  1.01119780079373E+05
 cg2d: Sum(rhs),rhsMax =  -5.56091612799698E+01  1.22637399622790E+00
(PID.TID 0000.0001)  ploadbar=  1.01117941980685E+05
 cg2d: Sum(rhs),rhsMax =  -5.55725721287364E+01  1.22703126468029E+00
(PID.TID 0000.0001)  ploadbar=  1.01116103881996E+05
 cg2d: Sum(rhs),rhsMax =  -5.55645923857041E+01  1.22701566759681E+00
(PID.TID 0000.0001)  ploadbar=  1.01114265783308E+05
 cg2d: Sum(rhs),rhsMax =  -5.55632214319235E+01  1.22680581544323E+00
(PID.TID 0000.0001)  ploadbar=  1.01112427684620E+05
 cg2d: Sum(rhs),rhsMax =  -5.55434241999980E+01  1.22695403418651E+00
(PID.TID 0000.0001)  ploadbar=  1.01110589585931E+05
 cg2d: Sum(rhs),rhsMax =  -5.54397214605442E+01  1.22903409117876E+00
(PID.TID 0000.0001)  ploadbar=  1.01109603580876E+05
 cg2d: Sum(rhs),rhsMax =  -5.53808993361590E+01  1.23019639336948E+00
(PID.TID 0000.0001)  ploadbar=  1.01108617575820E+05
 cg2d: Sum(rhs),rhsMax =  -5.53609540466158E+01  1.23056544458014E+00
(PID.TID 0000.0001)  ploadbar=  1.01107631570765E+05
 cg2d: Sum(rhs),rhsMax =  -5.53836233968982E+01  1.23005282221129E+00
(PID.TID 0000.0001)  ploadbar=  1.01106645565709E+05
 cg2d: Sum(rhs),rhsMax =  -5.54507257525757E+01  1.22861608524043E+00
(PID.TID 0000.0001)  ploadbar=  1.01105659560653E+05
 cg2d: Sum(rhs),rhsMax =  -5.55764221821492E+01  1.22594742801559E+00
(PID.TID 0000.0001)  ploadbar=  1.01104673555598E+05
 cg2d: Sum(rhs),rhsMax =  -5.57399050620444E+01  1.22244755455399E+00
(PID.TID 0000.0001)  ploadbar=  1.01103958698674E+05
 cg2d: Sum(rhs),rhsMax =  -5.59584425537821E+01  1.21775121628239E+00
(PID.TID 0000.0001)  ploadbar=  1.01103243841751E+05
 cg2d: Sum(rhs),rhsMax =  -5.62385379285410E+01  1.21174482575998E+00
(PID.TID 0000.0001)  ploadbar=  1.01102528984827E+05
 cg2d: Sum(rhs),rhsMax =  -5.65981956483408E+01  1.20408122456991E+00
(PID.TID 0000.0001)  ploadbar=  1.01101814127904E+05
 cg2d: Sum(rhs),rhsMax =  -5.70459340539818E+01  1.19464105390957E+00
(PID.TID 0000.0001)  ploadbar=  1.01101099270980E+05
 cg2d: Sum(rhs),rhsMax =  -5.75804542037103E+01  1.18353303874164E+00
(PID.TID 0000.0001)  ploadbar=  1.01100384414056E+05
 cg2d: Sum(rhs),rhsMax =  -5.81614693530146E+01  1.17167071962556E+00
(PID.TID 0000.0001)  ploadbar=  1.01098876136126E+05
 cg2d: Sum(rhs),rhsMax =  -5.88124308462280E+01  1.15863735633664E+00
(PID.TID 0000.0001)  ploadbar=  1.01097367858196E+05
 cg2d: Sum(rhs),rhsMax =  -5.95200098882664E+01  1.14476823871311E+00
(PID.TID 0000.0001)  ploadbar=  1.01095859580266E+05
 cg2d: Sum(rhs),rhsMax =  -6.03017516699389E+01  1.12979966304675E+00
(PID.TID 0000.0001)  ploadbar=  1.01094351302336E+05
 cg2d: Sum(rhs),rhsMax =  -6.11488679045988E+01  1.11398587143626E+00
(PID.TID 0000.0001)  ploadbar=  1.01092843024406E+05
 cg2d: Sum(rhs),rhsMax =  -6.02939787164227E+01  1.12957729067018E+00
(PID.TID 0000.0001)  ploadbar=  1.01091334746476E+05
 cg2d: Sum(rhs),rhsMax =  -5.92039921455102E+01  1.15013319651797E+00
(PID.TID 0000.0001)  ploadbar=  1.01090510690710E+05
 cg2d: Sum(rhs),rhsMax =  -5.81057075833750E+01  1.17159298095659E+00
(PID.TID 0000.0001)  ploadbar=  1.01089686634944E+05
 cg2d: Sum(rhs),rhsMax =  -5.70175083776561E+01  1.19363218059357E+00
(PID.TID 0000.0001)  ploadbar=  1.01088862579179E+05
 cg2d: Sum(rhs),rhsMax =  -5.59440942939921E+01  1.21616474384081E+00
(PID.TID 0000.0001)  ploadbar=  1.01088038523413E+05
 cg2d: Sum(rhs),rhsMax =  -5.48942707923772E+01  1.23899753524148E+00
(PID.TID 0000.0001)  ploadbar=  1.01087214467647E+05
 cg2d: Sum(rhs),rhsMax =  -5.38796431323693E+01  1.26184517674915E+00
(PID.TID 0000.0001)  ploadbar=  1.01086390411881E+05
 cg2d: Sum(rhs),rhsMax =  -5.29599917937774E+01  1.28334151657627E+00
(PID.TID 0000.0001)  ploadbar=  1.01085996581884E+05
 cg2d: Sum(rhs),rhsMax =  -5.21268452715390E+01  1.30350611919879E+00
(PID.TID 0000.0001)  ploadbar=  1.01085602751887E+05
 cg2d: Sum(rhs),rhsMax =  -5.13823774702049E+01  1.32210788978762E+00
(PID.TID 0000.0001)  ploadbar=  1.01085208921889E+05
 cg2d: Sum(rhs),rhsMax =  -5.07161229454003E+01  1.33924986861300E+00
(PID.TID 0000.0001)  ploadbar=  1.01084815091892E+05
 cg2d: Sum(rhs),rhsMax =  -5.01149226933840E+01  1.35514096052385E+00
(PID.TID 0000.0001)  ploadbar=  1.01084421261895E+05
 cg2d: Sum(rhs),rhsMax =  -4.95642290599496E+01  1.37006620443666E+00
(PID.TID 0000.0001)  ploadbar=  1.01084027431897E+05
 cg2d: Sum(rhs),rhsMax =  -4.90256827391410E+01  1.38499408297634E+00
(PID.TID 0000.0001)  ploadbar=  1.01083930055933E+05
 cg2d: Sum(rhs),rhsMax =  -4.85111470600974E+01  1.39956471642519E+00
(PID.TID 0000.0001)  ploadbar=  1.01083832679969E+05
 cg2d: Sum(rhs),rhsMax =  -4.80278051683051E+01  1.41353255350379E+00
(PID.TID 0000.0001)  ploadbar=  1.01083735304004E+05
 cg2d: Sum(rhs),rhsMax =  -4.75674687992099E+01  1.42709587239873E+00
(PID.TID 0000.0001)  ploadbar=  1.01083637928040E+05
 cg2d: Sum(rhs),rhsMax =  -4.71258667644007E+01  1.44035059850648E+00
(PID.TID 0000.0001)  ploadbar=  1.01083540552076E+05
 cg2d: Sum(rhs),rhsMax =  -4.67007108468561E+01  1.45333885884641E+00
(PID.TID 0000.0001)  ploadbar=  1.01083443176111E+05
 cg2d: Sum(rhs),rhsMax =  -4.63203180136120E+01  1.46513163469419E+00
(PID.TID 0000.0001)  ploadbar=  1.01083004729416E+05
 cg2d: Sum(rhs),rhsMax =  -4.59699157904003E+01  1.47613354902054E+00
(PID.TID 0000.0001)  ploadbar=  1.01082566282721E+05
 cg2d: Sum(rhs),rhsMax =  -4.56499403588846E+01  1.48628661741053E+00
(PID.TID 0000.0001)  ploadbar=  1.01082127836026E+05
 cg2d: Sum(rhs),rhsMax =  -4.53628362113994E+01  1.49546720972377E+00
(PID.TID 0000.0001)  ploadbar=  1.01081689389330E+05
 cg2d: Sum(rhs),rhsMax =  -4.51067655947374E+01  1.50369300907378E+00
(PID.TID 0000.0001)  ploadbar=  1.01081250942635E+05
 cg2d: Sum(rhs),rhsMax =  -4.48794835144123E+01  1.51100249502834E+00
(PID.TID 0000.0001)  ploadbar=  1.01080812495940E+05
 cg2d: Sum(rhs),rhsMax =  -4.46586586022605E+01  1.51812611345748E+00
(PID.TID 0000.0001)  ploadbar=  1.01080532984969E+05
 cg2d: Sum(rhs),rhsMax =  -4.44502065678033E+01  1.52484731864306E+00
(PID.TID 0000.0001)  ploadbar=  1.01080253473999E+05
 cg2d: Sum(rhs),rhsMax =  -4.42557523189255E+01  1.53108536881097E+00
(PID.TID 0000.0001)  ploadbar=  1.01079973963028E+05
 cg2d: Sum(rhs),rhsMax =  -4.40744338988137E+01  1.53685157809847E+00
(PID.TID 0000.0001)  ploadbar=  1.01079694452057E+05
 cg2d: Sum(rhs),rhsMax =  -4.39072965610911E+01  1.54209353643017E+00
(PID.TID 0000.0001)  ploadbar=  1.01079414941086E+05
 cg2d: Sum(rhs),rhsMax =  -4.37568132140853E+01  1.54671691316408E+00
(PID.TID 0000.0001)  ploadbar=  1.01079135430116E+05
 cg2d: Sum(rhs),rhsMax =  -4.36251603633466E+01  1.55080624646880E+00
(PID.TID 0000.0001)  ploadbar=  1.01077883336689E+05
 cg2d: Sum(rhs),rhsMax =  -4.35235254683197E+01  1.55395065098767E+00
(PID.TID 0000.0001)  ploadbar=  1.01076631243261E+05
 cg2d: Sum(rhs),rhsMax =  -4.34462815435263E+01  1.55633156200584E+00
(PID.TID 0000.0001)  ploadbar=  1.01075379149834E+05
 cg2d: Sum(rhs),rhsMax =  -4.33897743803729E+01  1.55805874787471E+00
(PID.TID 0000.0001)  ploadbar=  1.01074127056407E+05
 cg2d: Sum(rhs),rhsMax =  -4.33501565850895E+01  1.55925327918645E+00
(PID.TID 0000.0001)  ploadbar=  1.01072874962980E+05
 cg2d: Sum(rhs),rhsMax =  -4.33219603936203E+01  1.56009069235922E+00
(PID.TID 0000.0001)  ploadbar=  1.01071622869553E+05
 cg2d: Sum(rhs),rhsMax =  -4.33020870756745E+01  1.56057295427310E+00
(PID.TID 0000.0001)  ploadbar=  1.01071646639080E+05
 cg2d: Sum(rhs),rhsMax =  -4.32858675576424E+01  1.56085982322048E+00
(PID.TID 0000.0001)  ploadbar=  1.01071670408606E+05
 cg2d: Sum(rhs),rhsMax =  -4.32788695773987E+01  1.56074546826691E+00
(PID.TID 0000.0001)  ploadbar=  1.01071694178133E+05
 cg2d: Sum(rhs),rhsMax =  -4.32880469044305E+01  1.55997767349064E+00
(PID.TID 0000.0001)  ploadbar=  1.01071717947660E+05
 cg2d: Sum(rhs),rhsMax =  -4.33179535604559E+01  1.55838650606679E+00
(PID.TID 0000.0001)  ploadbar=  1.01071741717187E+05
 cg2d: Sum(rhs),rhsMax =  -4.33705930116593E+01  1.55589969417893E+00
(PID.TID 0000.0001)  ploadbar=  1.01071765486713E+05
 cg2d: Sum(rhs),rhsMax =  -4.34647143841919E+01  1.55196519149187E+00
(PID.TID 0000.0001)  ploadbar=  1.01071777061769E+05
 cg2d: Sum(rhs),rhsMax =  -4.35729588679282E+01  1.54756137901309E+00
(PID.TID 0000.0001)  ploadbar=  1.01071788636826E+05
 cg2d: Sum(rhs),rhsMax =  -4.36933076930949E+01  1.54275566836729E+00
(PID.TID 0000.0001)  ploadbar=  1.01071800211882E+05
 cg2d: Sum(rhs),rhsMax =  -4.38270121625133E+01  1.53750628926317E+00
(PID.TID 0000.0001)  ploadbar=  1.01071811786938E+05
 cg2d: Sum(rhs),rhsMax =  -4.39603498822392E+01  1.53229291815820E+00
(PID.TID 0000.0001)  ploadbar=  1.01071823361994E+05
 cg2d: Sum(rhs),rhsMax =  -4.41019275053132E+01  1.52680920987464E+00
(PID.TID 0000.0001)  ploadbar=  1.01071834937050E+05
 cg2d: Sum(rhs),rhsMax =  -4.42514712404886E+01  1.52102801625301E+00
(PID.TID 0000.0001)  ploadbar=  1.01071747452683E+05
 cg2d: Sum(rhs),rhsMax =  -4.44089085210874E+01  1.51494831098351E+00
(PID.TID 0000.0001)  ploadbar=  1.01071659968316E+05
 cg2d: Sum(rhs),rhsMax =  -4.45740296942312E+01  1.50857500861836E+00
(PID.TID 0000.0001)  ploadbar=  1.01071572483949E+05
 cg2d: Sum(rhs),rhsMax =  -4.47467299449297E+01  1.50190195783246E+00
(PID.TID 0000.0001)  ploadbar=  1.01071484999582E+05
 cg2d: Sum(rhs),rhsMax =  -4.49271246394792E+01  1.49492759113287E+00
(PID.TID 0000.0001)  ploadbar=  1.01071397515215E+05
 cg2d: Sum(rhs),rhsMax =  -4.51140271014758E+01  1.48770178275745E+00
(PID.TID 0000.0001)  ploadbar=  1.01071310030848E+05
 cg2d: Sum(rhs),rhsMax =  -4.53020521248315E+01  1.48061742456173E+00
(PID.TID 0000.0001)  ploadbar=  1.01070367543600E+05
 cg2d: Sum(rhs),rhsMax =  -4.54970825690381E+01  1.47348032873415E+00
(PID.TID 0000.0001)  ploadbar=  1.01069425056353E+05
 cg2d: Sum(rhs),rhsMax =  -4.57002022053045E+01  1.46625495958183E+00
(PID.TID 0000.0001)  ploadbar=  1.01068482569105E+05
 cg2d: Sum(rhs),rhsMax =  -4.59067658417052E+01  1.45908578404388E+00
(PID.TID 0000.0001)  ploadbar=  1.01067540081858E+05
 cg2d: Sum(rhs),rhsMax =  -4.46478399241870E+01  1.49973284794129E+00
(PID.TID 0000.0001)  ploadbar=  1.01066597594610E+05
 cg2d: Sum(rhs),rhsMax =  -4.33313209631383E+01  1.54487831182744E+00
(PID.TID 0000.0001)  ploadbar=  1.01065655107363E+05
 cg2d: Sum(rhs),rhsMax =  -4.21653782242159E+01  1.58713761947382E+00
(PID.TID 0000.0001)  ploadbar=  1.01064799105323E+05
 cg2d: Sum(rhs),rhsMax =  -4.11318795349094E+01  1.62650667895640E+00
(PID.TID 0000.0001)  ploadbar=  1.01063943103282E+05
 cg2d: Sum(rhs),rhsMax =  -4.02400075410913E+01  1.66198372207308E+00
(PID.TID 0000.0001)  ploadbar=  1.01063087101242E+05
 cg2d: Sum(rhs),rhsMax =  -3.94984314567631E+01  1.69254902994220E+00
(PID.TID 0000.0001)  ploadbar=  1.01062231099202E+05
 cg2d: Sum(rhs),rhsMax =  -3.88737069732926E+01  1.71904037398631E+00
(PID.TID 0000.0001)  ploadbar=  1.01061375097161E+05
 cg2d: Sum(rhs),rhsMax =  -3.83778685469170E+01  1.74046622646782E+00
(PID.TID 0000.0001)  ploadbar=  1.01060519095121E+05
 cg2d: Sum(rhs),rhsMax =  -3.81403945372025E+01  1.75058797167703E+00
(PID.TID 0000.0001)  ploadbar=  1.01059895293362E+05
 cg2d: Sum(rhs),rhsMax =  -3.80708747939750E+01  1.75313923290907E+00
(PID.TID 0000.0001)  ploadbar=  1.01059271491602E+05
 cg2d: Sum(rhs),rhsMax =  -3.81409627674805E+01  1.74933498852668E+00
(PID.TID 0000.0001)  ploadbar=  1.01058647689843E+05
 cg2d: Sum(rhs),rhsMax =  -3.83107398078645E+01  1.74105637795110E+00
(PID.TID 0000.0001)  ploadbar=  1.01058023888084E+05
 cg2d: Sum(rhs),rhsMax =  -3.85452124078889E+01  1.72999351762660E+00
(PID.TID 0000.0001)  ploadbar=  1.01057400086325E+05
 cg2d: Sum(rhs),rhsMax =  -3.88095501917588E+01  1.71778791772926E+00
(PID.TID 0000.0001)  ploadbar=  1.01056776284566E+05
 cg2d: Sum(rhs),rhsMax =  -3.89368721167332E+01  1.71169709511075E+00
(PID.TID 0000.0001)  ploadbar=  1.01056694400296E+05
 cg2d: Sum(rhs),rhsMax =  -3.90474905298424E+01  1.70632416530468E+00
(PID.TID 0000.0001)  ploadbar=  1.01056612516026E+05
 cg2d: Sum(rhs),rhsMax =  -3.91335025909403E+01  1.70199182649645E+00
(PID.TID 0000.0001)  ploadbar=  1.01056530631756E+05
 cg2d: Sum(rhs),rhsMax =  -3.91962629371344E+01  1.69862499751595E+00
(PID.TID 0000.0001)  ploadbar=  1.01056448747487E+05
 cg2d: Sum(rhs),rhsMax =  -3.92372620006166E+01  1.69614674740629E+00
(PID.TID 0000.0001)  ploadbar=  1.01056366863217E+05
 cg2d: Sum(rhs),rhsMax =  -3.92605256899181E+01  1.69437336452556E+00
(PID.TID 0000.0001)  ploadbar=  1.01056284978947E+05
 cg2d: Sum(rhs),rhsMax =  -3.91831599835060E+01  1.69707829777262E+00
(PID.TID 0000.0001)  ploadbar=  1.01055968081138E+05
 cg2d: Sum(rhs),rhsMax =  -3.91048496106077E+01  1.69996172087259E+00
(PID.TID 0000.0001)  ploadbar=  1.01055651183329E+05
 cg2d: Sum(rhs),rhsMax =  -3.90249561457856E+01  1.70305230556603E+00
(PID.TID 0000.0001)  ploadbar=  1.01055334285519E+05
 cg2d: Sum(rhs),rhsMax =  -3.89487244117499E+01  1.70611464759867E+00
(PID.TID 0000.0001)  ploadbar=  1.01055017387710E+05
 cg2d: Sum(rhs),rhsMax =  -3.88748590025368E+01  1.70919117336990E+00
(PID.TID 0000.0001)  ploadbar=  1.01054700489901E+05
 cg2d: Sum(rhs),rhsMax =  -3.88040106045886E+01  1.71224461364435E+00
(PID.TID 0000.0001)  ploadbar=  1.01054383592092E+05
 cg2d: Sum(rhs),rhsMax =  -3.88344315533479E+01  1.71080373945874E+00
(PID.TID 0000.0001)  ploadbar=  1.01054798138971E+05
 cg2d: Sum(rhs),rhsMax =  -3.88708086367421E+01  1.70906226596895E+00
(PID.TID 0000.0001)  ploadbar=  1.01055212685849E+05
 cg2d: Sum(rhs),rhsMax =  -3.89036253503877E+01  1.70743281807071E+00
(PID.TID 0000.0001)  ploadbar=  1.01055627232728E+05
 cg2d: Sum(rhs),rhsMax =  -3.89359625037245E+01  1.70577249283375E+00
(PID.TID 0000.0001)  ploadbar=  1.01056041779606E+05
 cg2d: Sum(rhs),rhsMax =  -3.89685422528628E+01  1.70404785729460E+00
(PID.TID 0000.0001)  ploadbar=  1.01056456326485E+05
 cg2d: Sum(rhs),rhsMax =  -3.90004282174234E+01  1.70229603508828E+00
(PID.TID 0000.0001)  ploadbar=  1.01056870873363E+05
 cg2d: Sum(rhs),rhsMax =  -3.90112169216934E+01  1.70151350101687E+00
(PID.TID 0000.0001)  ploadbar=  1.01057985636577E+05
 cg2d: Sum(rhs),rhsMax =  -3.90227488001351E+01  1.70073942918042E+00
(PID.TID 0000.0001)  ploadbar=  1.01059100399792E+05
 cg2d: Sum(rhs),rhsMax =  -3.90362657567871E+01  1.69991257038822E+00
(PID.TID 0000.0001)  ploadbar=  1.01060215163006E+05
 cg2d: Sum(rhs),rhsMax =  -3.90502744097384E+01  1.69909351605691E+00
(PID.TID 0000.0001)  ploadbar=  1.01061329926220E+05
 cg2d: Sum(rhs),rhsMax =  -3.90655414411909E+01  1.69824312902626E+00
(PID.TID 0000.0001)  ploadbar=  1.01062444689434E+05
 cg2d: Sum(rhs),rhsMax =  -3.90813600570033E+01  1.69738838383940E+00
(PID.TID 0000.0001)  ploadbar=  1.01063559452648E+05
 cg2d: Sum(rhs),rhsMax =  -3.90876731834444E+01  1.69687142957548E+00
(PID.TID 0000.0001)  ploadbar=  1.01064955965281E+05
 cg2d: Sum(rhs),rhsMax =  -3.90996145382176E+01  1.69603056831235E+00
(PID.TID 0000.0001)  ploadbar=  1.01066352477913E+05
 cg2d: Sum(rhs),rhsMax =  -3.91085040479356E+01  1.69524031593648E+00
(PID.TID 0000.0001)  ploadbar=  1.01067748990546E+05
 cg2d: Sum(rhs),rhsMax =  -3.91176271153418E+01  1.69435554509525E+00
(PID.TID 0000.0001)  ploadbar=  1.01069145503179E+05
 cg2d: Sum(rhs),rhsMax =  -3.91312731604494E+01  1.69318707888015E+00
(PID.TID 0000.0001)  ploadbar=  1.01070542015811E+05
 cg2d: Sum(rhs),rhsMax =  -3.91468747975224E+01  1.69184412973168E+00
(PID.TID 0000.0001)  ploadbar=  1.01071938528444E+05
 cg2d: Sum(rhs),rhsMax =  -3.91888408021885E+01  1.68949577051152E+00
(PID.TID 0000.0001)  ploadbar=  1.01074157361816E+05
 cg2d: Sum(rhs),rhsMax =  -3.92302844835634E+01  1.68730394532008E+00
(PID.TID 0000.0001)  ploadbar=  1.01076376195187E+05
 cg2d: Sum(rhs),rhsMax =  -3.92787305292394E+01  1.68494270414413E+00
(PID.TID 0000.0001)  ploadbar=  1.01078595028559E+05
 cg2d: Sum(rhs),rhsMax =  -3.93300569010100E+01  1.68258089671032E+00
(PID.TID 0000.0001)  ploadbar=  1.01080813861930E+05
 cg2d: Sum(rhs),rhsMax =  -3.93834983495803E+01  1.68023962376211E+00
(PID.TID 0000.0001)  ploadbar=  1.01083032695302E+05
 cg2d: Sum(rhs),rhsMax =  -3.94385937443859E+01  1.67792941074986E+00
(PID.TID 0000.0001)  ploadbar=  1.01085251528674E+05
 cg2d: Sum(rhs),rhsMax =  -3.94735035405047E+01  1.67644213340302E+00
(PID.TID 0000.0001)  ploadbar=  1.01087341469830E+05
 cg2d: Sum(rhs),rhsMax =  -3.95048696883441E+01  1.67505191621024E+00
(PID.TID 0000.0001)  ploadbar=  1.01089431410987E+05
 cg2d: Sum(rhs),rhsMax =  -3.95351835400583E+01  1.67364590256495E+00
(PID.TID 0000.0001)  ploadbar=  1.01091521352144E+05
 cg2d: Sum(rhs),rhsMax =  -3.95613760839278E+01  1.67234993917390E+00
(PID.TID 0000.0001)  ploadbar=  1.01093611293301E+05
 cg2d: Sum(rhs),rhsMax =  -3.95835267065808E+01  1.67115403338610E+00
(PID.TID 0000.0001)  ploadbar=  1.01095701234458E+05
 cg2d: Sum(rhs),rhsMax =  -3.96021477569568E+01  1.67003239803139E+00
(PID.TID 0000.0001)  ploadbar=  1.01097791175615E+05
 cg2d: Sum(rhs),rhsMax =  -3.96190199176047E+01  1.66902857909072E+00
(PID.TID 0000.0001)  ploadbar=  1.01099971274169E+05
 cg2d: Sum(rhs),rhsMax =  -3.96316490060293E+01  1.66824380919293E+00
(PID.TID 0000.0001)  ploadbar=  1.01102151372723E+05
 cg2d: Sum(rhs),rhsMax =  -3.96424897424911E+01  1.66756290778254E+00
(PID.TID 0000.0001)  ploadbar=  1.01104331471277E+05
 cg2d: Sum(rhs),rhsMax =  -3.96527052689321E+01  1.66692858047534E+00
(PID.TID 0000.0001)  ploadbar=  1.01106511569831E+05
 cg2d: Sum(rhs),rhsMax =  -3.96618287688354E+01  1.66635372578497E+00
(PID.TID 0000.0001)  ploadbar=  1.01108691668385E+05
 cg2d: Sum(rhs),rhsMax =  -3.96698698890592E+01  1.66582995001069E+00
(PID.TID 0000.0001)  ploadbar=  1.01110871766939E+05
 cg2d: Sum(rhs),rhsMax =  -3.96844875727467E+01  1.66495264739781E+00
(PID.TID 0000.0001)  ploadbar=  1.01111685215701E+05
 cg2d: Sum(rhs),rhsMax =  -3.96919237671099E+01  1.66429137127381E+00
(PID.TID 0000.0001)  ploadbar=  1.01112498664463E+05
 cg2d: Sum(rhs),rhsMax =  -3.96935095070180E+01  1.66378794696083E+00
(PID.TID 0000.0001)  ploadbar=  1.01113312113225E+05
 cg2d: Sum(rhs),rhsMax =  -3.96894628795952E+01  1.66342863132215E+00
(PID.TID 0000.0001)  ploadbar=  1.01114125561987E+05
 cg2d: Sum(rhs),rhsMax =  -3.96790653981268E+01  1.66324225671627E+00
(PID.TID 0000.0001)  ploadbar=  1.01114939010749E+05
 cg2d: Sum(rhs),rhsMax =  -3.96623105139444E+01  1.66322573486351E+00
(PID.TID 0000.0001)  ploadbar=  1.01115752459511E+05
 cg2d: Sum(rhs),rhsMax =  -3.96318815086768E+01  1.66387874354790E+00
(PID.TID 0000.0001)  ploadbar=  1.01116741777957E+05
 cg2d: Sum(rhs),rhsMax =  -3.95920843575835E+01  1.66501381732065E+00
(PID.TID 0000.0001)  ploadbar=  1.01117731096404E+05
 cg2d: Sum(rhs),rhsMax =  -3.95507318820821E+01  1.66629791181569E+00
(PID.TID 0000.0001)  ploadbar=  1.01118720414850E+05
 cg2d: Sum(rhs),rhsMax =  -3.95073000147668E+01  1.66774817914047E+00
(PID.TID 0000.0001)  ploadbar=  1.01119709733296E+05
 cg2d: Sum(rhs),rhsMax =  -3.94602457626522E+01  1.66942232348733E+00
(PID.TID 0000.0001)  ploadbar=  1.01120699051743E+05
 cg2d: Sum(rhs),rhsMax =  -3.94080727391239E+01  1.67137047785359E+00
(PID.TID 0000.0001)  ploadbar=  1.01121688370189E+05
 cg2d: Sum(rhs),rhsMax =  -3.93410508481085E+01  1.67392192864248E+00
(PID.TID 0000.0001)  ploadbar=  1.01121819752288E+05
 cg2d: Sum(rhs),rhsMax =  -3.92664521609818E+01  1.67676734486960E+00
(PID.TID 0000.0001)  ploadbar=  1.01121951134387E+05
 cg2d: Sum(rhs),rhsMax =  -3.91861187163065E+01  1.67982196766587E+00
(PID.TID 0000.0001)  ploadbar=  1.01122082516486E+05
 cg2d: Sum(rhs),rhsMax =  -3.91005646599962E+01  1.68305451329378E+00
(PID.TID 0000.0001)  ploadbar=  1.01122213898585E+05
 cg2d: Sum(rhs),rhsMax =  -3.90095112992040E+01  1.68647087406983E+00
(PID.TID 0000.0001)  ploadbar=  1.01122345280684E+05
 cg2d: Sum(rhs),rhsMax =  -3.89133880028669E+01  1.69004200635786E+00
(PID.TID 0000.0001)  ploadbar=  1.01122476662783E+05
 cg2d: Sum(rhs),rhsMax =  -3.88503107725942E+01  1.69221989535926E+00
(PID.TID 0000.0001)  ploadbar=  1.01121801712918E+05
 cg2d: Sum(rhs),rhsMax =  -3.87837136514247E+01  1.69457803730423E+00
(PID.TID 0000.0001)  ploadbar=  1.01121126763053E+05
 cg2d: Sum(rhs),rhsMax =  -3.87177473516711E+01  1.69692570396566E+00
(PID.TID 0000.0001)  ploadbar=  1.01120451813188E+05
 cg2d: Sum(rhs),rhsMax =  -3.86527232566706E+01  1.69923278461054E+00
(PID.TID 0000.0001)  ploadbar=  1.01119776863324E+05
 cg2d: Sum(rhs),rhsMax =  -3.85907488461219E+01  1.70138792982856E+00
(PID.TID 0000.0001)  ploadbar=  1.01119101913459E+05
 cg2d: Sum(rhs),rhsMax =  -3.85340950759456E+01  1.70327672242908E+00
(PID.TID 0000.0001)  ploadbar=  1.01118426963594E+05
 cg2d: Sum(rhs),rhsMax =  -3.84826195777230E+01  1.70491293679183E+00
(PID.TID 0000.0001)  ploadbar=  1.01118367182500E+05
 cg2d: Sum(rhs),rhsMax =  -3.84536501584628E+01  1.70552233262405E+00
(PID.TID 0000.0001)  ploadbar=  1.01118307401407E+05
 cg2d: Sum(rhs),rhsMax =  -3.84387345236682E+01  1.70547402213952E+00
(PID.TID 0000.0001)  ploadbar=  1.01118247620313E+05
 cg2d: Sum(rhs),rhsMax =  -3.84393683309765E+01  1.70469951657749E+00
(PID.TID 0000.0001)  ploadbar=  1.01118187839219E+05
 cg2d: Sum(rhs),rhsMax =  -3.84545029574024E+01  1.70324366272498E+00
(PID.TID 0000.0001)  ploadbar=  1.01118128058126E+05
 cg2d: Sum(rhs),rhsMax =  -3.84791444023928E+01  1.70132524283484E+00
(PID.TID 0000.0001)  ploadbar=  1.01118068277032E+05
 cg2d: Sum(rhs),rhsMax =  -3.84819670021255E+01  1.70044978663086E+00
(PID.TID 0000.0001)  ploadbar=  1.01118148900964E+05
 cg2d: Sum(rhs),rhsMax =  -3.84807125810940E+01  1.69982095180902E+00
(PID.TID 0000.0001)  ploadbar=  1.01118229524896E+05
 cg2d: Sum(rhs),rhsMax =  -3.84693066454372E+01  1.69970416330938E+00
(PID.TID 0000.0001)  ploadbar=  1.01118310148829E+05
 cg2d: Sum(rhs),rhsMax =  -3.84514519433742E+01  1.69993156392034E+00
(PID.TID 0000.0001)  ploadbar=  1.01118390772761E+05
 cg2d: Sum(rhs),rhsMax =  -3.84328180729827E+01  1.70024489181664E+00
(PID.TID 0000.0001)  ploadbar=  1.01118471396693E+05
 cg2d: Sum(rhs),rhsMax =  -3.84177671046885E+01  1.70044139495444E+00
(PID.TID 0000.0001)  ploadbar=  1.01118552020625E+05
 cg2d: Sum(rhs),rhsMax =  -3.84137497929105E+01  1.70016549165906E+00
(PID.TID 0000.0001)  ploadbar=  1.01117786163803E+05
 cg2d: Sum(rhs),rhsMax =  -3.84136742142569E+01  1.69972300746571E+00
(PID.TID 0000.0001)  ploadbar=  1.01117020306982E+05
 cg2d: Sum(rhs),rhsMax =  -3.84157463699029E+01  1.69917811510647E+00
(PID.TID 0000.0001)  ploadbar=  1.01116254450161E+05
 cg2d: Sum(rhs),rhsMax =  -3.84209198402279E+01  1.69848053470933E+00
(PID.TID 0000.0001)  ploadbar=  1.01115488593339E+05
 cg2d: Sum(rhs),rhsMax =  -3.84273575379532E+01  1.69769882781305E+00
(PID.TID 0000.0001)  ploadbar=  1.01114722736518E+05
 cg2d: Sum(rhs),rhsMax =  -3.84335585951966E+01  1.69688925229211E+00
(PID.TID 0000.0001)  ploadbar=  1.01113956879696E+05
 cg2d: Sum(rhs),rhsMax =  -3.84095152908326E+01  1.69750932331821E+00
(PID.TID 0000.0001)  ploadbar=  1.01113547689723E+05
 cg2d: Sum(rhs),rhsMax =  -3.83886010960378E+01  1.69807826551021E+00
(PID.TID 0000.0001)  ploadbar=  1.01113138499750E+05
 cg2d: Sum(rhs),rhsMax =  -3.83701559179641E+01  1.69861407353329E+00
(PID.TID 0000.0001)  ploadbar=  1.01112729309778E+05
 cg2d: Sum(rhs),rhsMax =  -3.83504204110931E+01  1.69926688213140E+00
(PID.TID 0000.0001)  ploadbar=  1.01112320119805E+05
 cg2d: Sum(rhs),rhsMax =  -3.83267856309427E+01  1.70014221330945E+00
(PID.TID 0000.0001)  ploadbar=  1.01111910929832E+05
 cg2d: Sum(rhs),rhsMax =  -3.83006600793176E+01  1.70116339639239E+00
(PID.TID 0000.0001)  ploadbar=  1.01111501739859E+05
 cg2d: Sum(rhs),rhsMax =  -3.82886841301999E+01  1.70151278809217E+00
(PID.TID 0000.0001)  ploadbar=  1.01111018444716E+05
 cg2d: Sum(rhs),rhsMax =  -3.82719236353775E+01  1.70202916860026E+00
(PID.TID 0000.0001)  ploadbar=  1.01110535149573E+05
 cg2d: Sum(rhs),rhsMax =  -3.82570075709469E+01  1.70241534862174E+00
(PID.TID 0000.0001)  ploadbar=  1.01110051854430E+05
 cg2d: Sum(rhs),rhsMax =  -3.82457752023021E+01  1.70258740548239E+00
(PID.TID 0000.0001)  ploadbar=  1.01109568559287E+05
 cg2d: Sum(rhs),rhsMax =  -3.82384058398751E+01  1.70253895654042E+00
(PID.TID 0000.0001)  ploadbar=  1.01109085264144E+05
 cg2d: Sum(rhs),rhsMax =  -3.82351074379911E+01  1.70225911679895E+00
(PID.TID 0000.0001)  ploadbar=  1.01108601969001E+05
 cg2d: Sum(rhs),rhsMax =  -3.82371647534977E+01  1.70183827802227E+00
(PID.TID 0000.0001)  ploadbar=  1.01107578744919E+05
 cg2d: Sum(rhs),rhsMax =  -3.82436813321003E+01  1.70130511054324E+00
(PID.TID 0000.0001)  ploadbar=  1.01106555520837E+05
 cg2d: Sum(rhs),rhsMax =  -3.82572466719563E+01  1.70053959301486E+00
(PID.TID 0000.0001)  ploadbar=  1.01105532296754E+05
 cg2d: Sum(rhs),rhsMax =  -3.82782220784113E+01  1.69952359724741E+00
(PID.TID 0000.0001)  ploadbar=  1.01104509072672E+05
 cg2d: Sum(rhs),rhsMax =  -3.83091545627792E+01  1.69814358265197E+00
(PID.TID 0000.0001)  ploadbar=  1.01103485848590E+05
 cg2d: Sum(rhs),rhsMax =  -3.83528896712350E+01  1.69626453175201E+00
(PID.TID 0000.0001)  ploadbar=  1.01102462624508E+05
 cg2d: Sum(rhs),rhsMax =  -3.84166879562126E+01  1.69346689827585E+00
(PID.TID 0000.0001)  ploadbar=  1.01102334025643E+05
 cg2d: Sum(rhs),rhsMax =  -3.84974948017345E+01  1.68988924775737E+00
(PID.TID 0000.0001)  ploadbar=  1.01102205426777E+05
 cg2d: Sum(rhs),rhsMax =  -3.85925272446708E+01  1.68565659855316E+00
(PID.TID 0000.0001)  ploadbar=  1.01102076827912E+05
 cg2d: Sum(rhs),rhsMax =  -3.87063930890084E+01  1.68057264305117E+00
(PID.TID 0000.0001)  ploadbar=  1.01101948229046E+05
 cg2d: Sum(rhs),rhsMax =  -3.88443761845701E+01  1.67442089919208E+00
(PID.TID 0000.0001)  ploadbar=  1.01101819630181E+05
 cg2d: Sum(rhs),rhsMax =  -3.90089194316423E+01  1.66711778657424E+00
(PID.TID 0000.0001)  ploadbar=  1.01101691031315E+05
 cg2d: Sum(rhs),rhsMax =  -3.92071797548499E+01  1.65843633405402E+00
(PID.TID 0000.0001)  ploadbar=  1.01101555925063E+05
 cg2d: Sum(rhs),rhsMax =  -3.94318043834068E+01  1.64872577362176E+00
(PID.TID 0000.0001)  ploadbar=  1.01101420818810E+05
 cg2d: Sum(rhs),rhsMax =  -3.96760194447536E+01  1.63829750769380E+00
(PID.TID 0000.0001)  ploadbar=  1.01101285712558E+05
 cg2d: Sum(rhs),rhsMax =  -3.99363175661159E+01  1.62731354761439E+00
(PID.TID 0000.0001)  ploadbar=  1.01101150606306E+05
 cg2d: Sum(rhs),rhsMax =  -4.02107416275722E+01  1.61586469184730E+00
(PID.TID 0000.0001)  ploadbar=  1.01101015500054E+05
 cg2d: Sum(rhs),rhsMax =  -4.04949401568187E+01  1.60412770925370E+00
(PID.TID 0000.0001)  ploadbar=  1.01100880393801E+05
 cg2d: Sum(rhs),rhsMax =  -4.07723558040415E+01  1.59275662894590E+00
(PID.TID 0000.0001)  ploadbar=  1.01100123687476E+05
 cg2d: Sum(rhs),rhsMax =  -4.10428929815917E+01  1.58174264984972E+00
(PID.TID 0000.0001)  ploadbar=  1.01099366981150E+05
 cg2d: Sum(rhs),rhsMax =  -4.13080909166583E+01  1.57101247802932E+00
(PID.TID 0000.0001)  ploadbar=  1.01098610274825E+05
 cg2d: Sum(rhs),rhsMax =  -4.15356821983527E+01  1.56176523320386E+00
(PID.TID 0000.0001)  ploadbar=  1.01097853568499E+05
 cg2d: Sum(rhs),rhsMax =  -4.16839977309553E+01  1.55550634192701E+00
(PID.TID 0000.0001)  ploadbar=  1.01097096862174E+05
 cg2d: Sum(rhs),rhsMax =  -4.17733822877142E+01  1.55141047256343E+00
(PID.TID 0000.0001)  ploadbar=  1.01096340155849E+05
 cg2d: Sum(rhs),rhsMax =  -4.18057179155729E+01  1.54954797974577E+00
(PID.TID 0000.0001)  ploadbar=  1.01095142609924E+05
 cg2d: Sum(rhs),rhsMax =  -4.16731958500802E+01  1.55390827022671E+00
(PID.TID 0000.0001)  ploadbar=  1.01093945064000E+05
 cg2d: Sum(rhs),rhsMax =  -4.16801736470041E+01  1.55317728300194E+00
(PID.TID 0000.0001)  ploadbar=  1.01092747518076E+05
 cg2d: Sum(rhs),rhsMax =  -4.17684053632248E+01  1.54951858258483E+00
(PID.TID 0000.0001)  ploadbar=  1.01091549972151E+05
 cg2d: Sum(rhs),rhsMax =  -4.16042841076404E+01  1.55533648634381E+00
(PID.TID 0000.0001)  ploadbar=  1.01090352426227E+05
 cg2d: Sum(rhs),rhsMax =  -4.11920625126122E+01  1.57067585834849E+00
(PID.TID 0000.0001)  ploadbar=  1.01089154880303E+05
 cg2d: Sum(rhs),rhsMax =  -4.07569590118083E+01  1.58724894488716E+00
(PID.TID 0000.0001)  ploadbar=  1.01089068997920E+05
 cg2d: Sum(rhs),rhsMax =  -4.03260678287845E+01  1.60403979908334E+00
(PID.TID 0000.0001)  ploadbar=  1.01088983115538E+05
 cg2d: Sum(rhs),rhsMax =  -3.99141745001481E+01  1.62043903307416E+00
(PID.TID 0000.0001)  ploadbar=  1.01088897233155E+05
 cg2d: Sum(rhs),rhsMax =  -3.95252292454605E+01  1.63623280256193E+00
(PID.TID 0000.0001)  ploadbar=  1.01088811350773E+05
 cg2d: Sum(rhs),rhsMax =  -3.91607365818377E+01  1.65130339370949E+00
(PID.TID 0000.0001)  ploadbar=  1.01088725468390E+05
 cg2d: Sum(rhs),rhsMax =  -3.88194672719281E+01  1.66564738555816E+00
(PID.TID 0000.0001)  ploadbar=  1.01088639586008E+05
 cg2d: Sum(rhs),rhsMax =  -3.85139462266164E+01  1.67871060597651E+00
(PID.TID 0000.0001)  ploadbar=  1.01088964295826E+05
 cg2d: Sum(rhs),rhsMax =  -3.82277113024077E+01  1.69114884713238E+00
(PID.TID 0000.0001)  ploadbar=  1.01089289005644E+05
 cg2d: Sum(rhs),rhsMax =  -3.79553152725371E+01  1.70316209856731E+00
(PID.TID 0000.0001)  ploadbar=  1.01089613715463E+05
 cg2d: Sum(rhs),rhsMax =  -3.76967257170364E+01  1.71472297320079E+00
(PID.TID 0000.0001)  ploadbar=  1.01089938425281E+05
 cg2d: Sum(rhs),rhsMax =  -3.74504093890133E+01  1.72586949665241E+00
(PID.TID 0000.0001)  ploadbar=  1.01090263135099E+05
 cg2d: Sum(rhs),rhsMax =  -3.72166649017337E+01  1.73655897160734E+00
(PID.TID 0000.0001)  ploadbar=  1.01090587844917E+05
 cg2d: Sum(rhs),rhsMax =  -3.70078501125120E+01  1.74618889044047E+00
(PID.TID 0000.0001)  ploadbar=  1.01091423636497E+05
 cg2d: Sum(rhs),rhsMax =  -3.68137315762203E+01  1.75520643306455E+00
(PID.TID 0000.0001)  ploadbar=  1.01092259428076E+05
 cg2d: Sum(rhs),rhsMax =  -3.66396999833700E+01  1.76332817616185E+00
(PID.TID 0000.0001)  ploadbar=  1.01093095219655E+05
 cg2d: Sum(rhs),rhsMax =  -3.64841354755452E+01  1.77060559829310E+00
(PID.TID 0000.0001)  ploadbar=  1.01093931011234E+05
 cg2d: Sum(rhs),rhsMax =  -3.63452320634145E+01  1.77710684003521E+00
(PID.TID 0000.0001)  ploadbar=  1.01094766802813E+05
 cg2d: Sum(rhs),rhsMax =  -3.62217904492229E+01  1.78287076622422E+00
(PID.TID 0000.0001)  ploadbar=  1.01095602594392E+05
 cg2d: Sum(rhs),rhsMax =  -3.61026136036366E+01  1.78854450065211E+00
(PID.TID 0000.0001)  ploadbar=  1.01096222823048E+05
 cg2d: Sum(rhs),rhsMax =  -3.59910703121922E+01  1.79395294900439E+00
(PID.TID 0000.0001)  ploadbar=  1.01096843051704E+05
 cg2d: Sum(rhs),rhsMax =  -3.58840302531277E+01  1.79924144219453E+00
(PID.TID 0000.0001)  ploadbar=  1.01097463280360E+05
 cg2d: Sum(rhs),rhsMax =  -3.57773633624934E+01  1.80460917237777E+00
(PID.TID 0000.0001)  ploadbar=  1.01098083509016E+05
 cg2d: Sum(rhs),rhsMax =  -3.56694345281191E+01  1.81012784573692E+00
(PID.TID 0000.0001)  ploadbar=  1.01098703737672E+05
 cg2d: Sum(rhs),rhsMax =  -3.55575538539749E+01  1.81591907153761E+00
(PID.TID 0000.0001)  ploadbar=  1.01099323966328E+05
 cg2d: Sum(rhs),rhsMax =  -3.54560008182659E+01  1.82121634029827E+00
(PID.TID 0000.0001)  ploadbar=  1.01100348389267E+05
 cg2d: Sum(rhs),rhsMax =  -3.53485185699854E+01  1.82682747971695E+00
(PID.TID 0000.0001)  ploadbar=  1.01101372812206E+05
 cg2d: Sum(rhs),rhsMax =  -3.52287445509385E+01  1.83306565939603E+00
(PID.TID 0000.0001)  ploadbar=  1.01102397235146E+05
 cg2d: Sum(rhs),rhsMax =  -3.50905907654647E+01  1.84025304655494E+00
(PID.TID 0000.0001)  ploadbar=  1.01103421658085E+05
 cg2d: Sum(rhs),rhsMax =  -3.49299204152634E+01  1.84862775356408E+00
(PID.TID 0000.0001)  ploadbar=  1.01104446081025E+05
 cg2d: Sum(rhs),rhsMax =  -3.47364598529388E+01  1.85876494025583E+00
(PID.TID 0000.0001)  ploadbar=  1.01105470503964E+05
 cg2d: Sum(rhs),rhsMax =  -3.45227394253939E+01  1.87011823646772E+00
(PID.TID 0000.0001)  ploadbar=  1.01106141543152E+05
 cg2d: Sum(rhs),rhsMax =  -3.42976500646883E+01  1.88223796306339E+00
(PID.TID 0000.0001)  ploadbar=  1.01106812582340E+05
 cg2d: Sum(rhs),rhsMax =  -3.40691043256216E+01  1.89470143820191E+00
(PID.TID 0000.0001)  ploadbar=  1.01107483621528E+05
 cg2d: Sum(rhs),rhsMax =  -3.38418157018955E+01  1.90724116349967E+00
(PID.TID 0000.0001)  ploadbar=  1.01108154660716E+05
 cg2d: Sum(rhs),rhsMax =  -3.36181670719849E+01  1.91971042265807E+00
(PID.TID 0000.0001)  ploadbar=  1.01108825699904E+05
 cg2d: Sum(rhs),rhsMax =  -3.33985088119778E+01  1.93206912144529E+00
(PID.TID 0000.0001)  ploadbar=  1.01109496739092E+05
 cg2d: Sum(rhs),rhsMax =  -3.31904246753277E+01  1.94387628409560E+00
(PID.TID 0000.0001)  ploadbar=  1.01111659513205E+05
 cg2d: Sum(rhs),rhsMax =  -3.29940304916400E+01  1.95509492321685E+00
(PID.TID 0000.0001)  ploadbar=  1.01113822287317E+05
 cg2d: Sum(rhs),rhsMax =  -3.28055825374023E+01  1.96592284740221E+00
(PID.TID 0000.0001)  ploadbar=  1.01115985061430E+05
 cg2d: Sum(rhs),rhsMax =  -3.26264379145550E+01  1.97625737581913E+00
(PID.TID 0000.0001)  ploadbar=  1.01118147835542E+05
 cg2d: Sum(rhs),rhsMax =  -3.24582766789622E+01  1.98597778634189E+00
(PID.TID 0000.0001)  ploadbar=  1.01120310609655E+05
 cg2d: Sum(rhs),rhsMax =  -3.22992735753886E+01  1.99517654494655E+00
(PID.TID 0000.0001)  ploadbar=  1.01122473383767E+05
 cg2d: Sum(rhs),rhsMax =  -3.21470732489143E+01  2.00415273680470E+00
(PID.TID 0000.0001)  ploadbar=  1.01122488344493E+05
 cg2d: Sum(rhs),rhsMax =  -3.20087199780854E+01  2.01244886127350E+00
(PID.TID 0000.0001)  ploadbar=  1.01122503305219E+05
 cg2d: Sum(rhs),rhsMax =  -3.18793790380584E+01  2.02034575868514E+00
(PID.TID 0000.0001)  ploadbar=  1.01122518265945E+05
 cg2d: Sum(rhs),rhsMax =  -3.17584964165743E+01  2.02786362199817E+00
(PID.TID 0000.0001)  ploadbar=  1.01122533226671E+05
 cg2d: Sum(rhs),rhsMax =  -3.16465320507869E+01  2.03495315050860E+00
(PID.TID 0000.0001)  ploadbar=  1.01122548187398E+05
 cg2d: Sum(rhs),rhsMax =  -3.15431990112574E+01  2.04160667381370E+00
(PID.TID 0000.0001)  ploadbar=  1.01122563148124E+05
 cg2d: Sum(rhs),rhsMax =  -3.14541190423187E+01  2.04738467739761E+00
(PID.TID 0000.0001)  ploadbar=  1.01123765120838E+05
 cg2d: Sum(rhs),rhsMax =  -3.13772978670511E+01  2.05237947766403E+00
(PID.TID 0000.0001)  ploadbar=  1.01124967093553E+05
 cg2d: Sum(rhs),rhsMax =  -3.13085221292251E+01  2.05684688764506E+00
(PID.TID 0000.0001)  ploadbar=  1.01126169066267E+05
 cg2d: Sum(rhs),rhsMax =  -3.12494789660918E+01  2.06066502459530E+00
(PID.TID 0000.0001)  ploadbar=  1.01127371038981E+05
 cg2d: Sum(rhs),rhsMax =  -3.11997635873624E+01  2.06384571786361E+00
(PID.TID 0000.0001)  ploadbar=  1.01128573011696E+05
 cg2d: Sum(rhs),rhsMax =  -3.11589872479391E+01  2.06640412757523E+00
(PID.TID 0000.0001)  ploadbar=  1.01129774984410E+05
 cg2d: Sum(rhs),rhsMax =  -3.11275584897164E+01  2.06834972572941E+00
(PID.TID 0000.0001)  ploadbar=  1.01131624570225E+05
 cg2d: Sum(rhs),rhsMax =  -3.11073364541960E+01  2.06954809335779E+00
(PID.TID 0000.0001)  ploadbar=  1.01133474156040E+05
 cg2d: Sum(rhs),rhsMax =  -3.10968369178418E+01  2.07008926479070E+00
(PID.TID 0000.0001)  ploadbar=  1.01135323741855E+05
 cg2d: Sum(rhs),rhsMax =  -3.10953361051444E+01  2.07001035615508E+00
(PID.TID 0000.0001)  ploadbar=  1.01137173327670E+05
 cg2d: Sum(rhs),rhsMax =  -3.11010456280977E+01  2.06942484124005E+00
(PID.TID 0000.0001)  ploadbar=  1.01139022913485E+05
 cg2d: Sum(rhs),rhsMax =  -3.11134792090025E+01  2.06835685609655E+00
(PID.TID 0000.0001)  ploadbar=  1.01140872499300E+05
 cg2d: Sum(rhs),rhsMax =  -3.11301820645013E+01  2.06697056030849E+00
(PID.TID 0000.0001)  ploadbar=  1.01143066438089E+05
 cg2d: Sum(rhs),rhsMax =  -3.11522467338380E+01  2.06518959481930E+00
(PID.TID 0000.0001)  ploadbar=  1.01145260376879E+05
 cg2d: Sum(rhs),rhsMax =  -3.11800444349861E+01  2.06299020693116E+00
(PID.TID 0000.0001)  ploadbar=  1.01147454315669E+05
 cg2d: Sum(rhs),rhsMax =  -3.12144305258814E+01  2.06031285354506E+00
(PID.TID 0000.0001)  ploadbar=  1.01149648254459E+05
 cg2d: Sum(rhs),rhsMax =  -3.12545321200168E+01  2.05721662353540E+00
(PID.TID 0000.0001)  ploadbar=  1.01151842193248E+05
 cg2d: Sum(rhs),rhsMax =  -3.12992991688622E+01  2.05377595084593E+00
(PID.TID 0000.0001)  ploadbar=  1.01154036132038E+05
 cg2d: Sum(rhs),rhsMax =  -3.13504810087486E+01  2.05006719157467E+00
(PID.TID 0000.0001)  ploadbar=  1.01155806791723E+05
 cg2d: Sum(rhs),rhsMax =  -3.14062955560334E+01  2.04619882521811E+00
(PID.TID 0000.0001)  ploadbar=  1.01157577451408E+05
 cg2d: Sum(rhs),rhsMax =  -3.14651808276620E+01  2.04227043935203E+00
(PID.TID 0000.0001)  ploadbar=  1.01159348111093E+05
 cg2d: Sum(rhs),rhsMax =  -3.15267614124223E+01  2.03830888753654E+00
(PID.TID 0000.0001)  ploadbar=  1.01161118770777E+05
 cg2d: Sum(rhs),rhsMax =  -3.15884952320363E+01  2.03447718017893E+00
(PID.TID 0000.0001)  ploadbar=  1.01162889430462E+05
 cg2d: Sum(rhs),rhsMax =  -3.16479867254281E+01  2.03091773435892E+00
(PID.TID 0000.0001)  ploadbar=  1.01164660090147E+05
 cg2d: Sum(rhs),rhsMax =  -3.16993825106916E+01  2.02785263706051E+00
(PID.TID 0000.0001)  ploadbar=  1.01166069779088E+05
 cg2d: Sum(rhs),rhsMax =  -3.17477269489095E+01  2.02493636447196E+00
(PID.TID 0000.0001)  ploadbar=  1.01167479468029E+05
 cg2d: Sum(rhs),rhsMax =  -3.17957472388183E+01  2.02198414278305E+00
(PID.TID 0000.0001)  ploadbar=  1.01168889156970E+05
 cg2d: Sum(rhs),rhsMax =  -3.18465280695371E+01  2.01879773085911E+00
(PID.TID 0000.0001)  ploadbar=  1.01170298845910E+05
 cg2d: Sum(rhs),rhsMax =  -3.19018890267448E+01  2.01525811443232E+00
(PID.TID 0000.0001)  ploadbar=  1.01171708534851E+05
 cg2d: Sum(rhs),rhsMax =  -3.19637663758951E+01  2.01123959151359E+00
(PID.TID 0000.0001)  ploadbar=  1.01173118223792E+05
 cg2d: Sum(rhs),rhsMax =  -3.20326443447086E+01  2.00686055849711E+00
(PID.TID 0000.0001)  ploadbar=  1.01173478769719E+05
 cg2d: Sum(rhs),rhsMax =  -3.21140244300874E+01  2.00176825812149E+00
(PID.TID 0000.0001)  ploadbar=  1.01173839315645E+05
 cg2d: Sum(rhs),rhsMax =  -3.22113466546151E+01  1.99575247417574E+00
(PID.TID 0000.0001)  ploadbar=  1.01174199861571E+05
 cg2d: Sum(rhs),rhsMax =  -3.23266619150124E+01  1.98869581160084E+00
(PID.TID 0000.0001)  ploadbar=  1.01174560407498E+05
 cg2d: Sum(rhs),rhsMax =  -3.24608087567843E+01  1.98055888375884E+00
(PID.TID 0000.0001)  ploadbar=  1.01174920953424E+05
 cg2d: Sum(rhs),rhsMax =  -3.26138798338186E+01  1.97135876069417E+00
(PID.TID 0000.0001)  ploadbar=  1.01175281499350E+05
 cg2d: Sum(rhs),rhsMax =  -3.27814878015200E+01  1.96138131158940E+00
(PID.TID 0000.0001)  ploadbar=  1.01174877572982E+05
 cg2d: Sum(rhs),rhsMax =  -3.29663945348991E+01  1.95048693747687E+00
(PID.TID 0000.0001)  ploadbar=  1.01174473646614E+05
 cg2d: Sum(rhs),rhsMax =  -3.31740127136460E+01  1.93839016003603E+00
(PID.TID 0000.0001)  ploadbar=  1.01174069720246E+05
 cg2d: Sum(rhs),rhsMax =  -3.34051752465346E+01  1.92509228115581E+00
(PID.TID 0000.0001)  ploadbar=  1.01173665793878E+05
 cg2d: Sum(rhs),rhsMax =  -3.36605560158925E+01  1.91060830469129E+00
(PID.TID 0000.0001)  ploadbar=  1.01173261867510E+05
 cg2d: Sum(rhs),rhsMax =  -3.39397218424725E+01  1.89502039838671E+00
(PID.TID 0000.0001)  ploadbar=  1.01172857941142E+05
 cg2d: Sum(rhs),rhsMax =  -3.42213092247467E+01  1.87962342494619E+00
(PID.TID 0000.0001)  ploadbar=  1.01171076550907E+05
 cg2d: Sum(rhs),rhsMax =  -3.45147990373735E+01  1.86389776718101E+00
(PID.TID 0000.0001)  ploadbar=  1.01169295160672E+05
 cg2d: Sum(rhs),rhsMax =  -3.48188599200527E+01  1.84793371075725E+00
(PID.TID 0000.0001)  ploadbar=  1.01167513770437E+05
 cg2d: Sum(rhs),rhsMax =  -3.51274381310253E+01  1.83206577094677E+00
(PID.TID 0000.0001)  ploadbar=  1.01165732380203E+05
 cg2d: Sum(rhs),rhsMax =  -3.54369876808752E+01  1.81647412247386E+00
(PID.TID 0000.0001)  ploadbar=  1.01163950989968E+05
 cg2d: Sum(rhs),rhsMax =  -3.57453337835983E+01  1.80125504970207E+00
(PID.TID 0000.0001)  ploadbar=  1.01162169599733E+05
 cg2d: Sum(rhs),rhsMax =  -3.60541982323613E+01  1.78616125937851E+00
(PID.TID 0000.0001)  ploadbar=  1.01161473262575E+05
 cg2d: Sum(rhs),rhsMax =  -3.63631429725327E+01  1.77119595987253E+00
(PID.TID 0000.0001)  ploadbar=  1.01160776925417E+05
 cg2d: Sum(rhs),rhsMax =  -3.66892099913085E+01  1.75552959501636E+00
(PID.TID 0000.0001)  ploadbar=  1.01160080588258E+05
 cg2d: Sum(rhs),rhsMax =  -3.70503933404313E+01  1.73835351050221E+00
(PID.TID 0000.0001)  ploadbar=  1.01159384251100E+05
 cg2d: Sum(rhs),rhsMax =  -3.74630035569555E+01  1.71900379281555E+00
(PID.TID 0000.0001)  ploadbar=  1.01158687913942E+05
 cg2d: Sum(rhs),rhsMax =  -3.79369270482178E+01  1.69718369075222E+00
(PID.TID 0000.0001)  ploadbar=  1.01157991576783E+05
 cg2d: Sum(rhs),rhsMax =  -3.84804865810667E+01  1.67290532371191E+00
(PID.TID 0000.0001)  ploadbar=  1.01156358325538E+05
 cg2d: Sum(rhs),rhsMax =  -3.90823578108204E+01  1.64686537686270E+00
(PID.TID 0000.0001)  ploadbar=  1.01154725074292E+05
 cg2d: Sum(rhs),rhsMax =  -3.97270302727106E+01  1.61988105447530E+00
(PID.TID 0000.0001)  ploadbar=  1.01153091823047E+05
 cg2d: Sum(rhs),rhsMax =  -4.04067960620693E+01  1.59237636892136E+00
(PID.TID 0000.0001)  ploadbar=  1.01151458571801E+05
 cg2d: Sum(rhs),rhsMax =  -4.11142157695354E+01  1.56472369845505E+00
(PID.TID 0000.0001)  ploadbar=  1.01149825320556E+05
 cg2d: Sum(rhs),rhsMax =  -4.18463669709753E+01  1.53708836599224E+00
(PID.TID 0000.0001)  ploadbar=  1.01148192069310E+05
 cg2d: Sum(rhs),rhsMax =  -4.26061533793600E+01  1.50934668135508E+00
(PID.TID 0000.0001)  ploadbar=  1.01147804059550E+05
 cg2d: Sum(rhs),rhsMax =  -4.33663016054897E+01  1.48249062946066E+00
(PID.TID 0000.0001)  ploadbar=  1.01147416049791E+05
 cg2d: Sum(rhs),rhsMax =  -4.41182021829318E+01  1.45675502774574E+00
(PID.TID 0000.0001)  ploadbar=  1.01147028040031E+05
 cg2d: Sum(rhs),rhsMax =  -4.48580464142017E+01  1.43218908215913E+00
(PID.TID 0000.0001)  ploadbar=  1.01146640030271E+05
 cg2d: Sum(rhs),rhsMax =  -4.55838150015437E+01  1.40877840638081E+00
(PID.TID 0000.0001)  ploadbar=  1.01146252020511E+05
 cg2d: Sum(rhs),rhsMax =  -4.64688149373481E+01  1.38127919524752E+00
(PID.TID 0000.0001)  ploadbar=  1.01145864010752E+05
 cg2d: Sum(rhs),rhsMax =  -4.73577919100694E+01  1.35481317082522E+00
(PID.TID 0000.0001)  ploadbar=  1.01145368764307E+05
 cg2d: Sum(rhs),rhsMax =  -4.82151809377366E+01  1.33030860985448E+00
(PID.TID 0000.0001)  ploadbar=  1.01144873517863E+05
 cg2d: Sum(rhs),rhsMax =  -4.90443592899061E+01  1.30752380938713E+00
(PID.TID 0000.0001)  ploadbar=  1.01144378271418E+05
 cg2d: Sum(rhs),rhsMax =  -4.98459871030970E+01  1.28631410327044E+00
(PID.TID 0000.0001)  ploadbar=  1.01143883024974E+05
 cg2d: Sum(rhs),rhsMax =  -5.06240219731588E+01  1.26646558482516E+00
(PID.TID 0000.0001)  ploadbar=  1.01143387778529E+05
 cg2d: Sum(rhs),rhsMax =  -5.13725731706315E+01  1.24802780197520E+00
(PID.TID 0000.0001)  ploadbar=  1.01142892532085E+05
 cg2d: Sum(rhs),rhsMax =  -5.16450432086218E+01  1.24142442015052E+00
(PID.TID 0000.0001)  ploadbar=  1.01142632435181E+05
 cg2d: Sum(rhs),rhsMax =  -5.15500144719898E+01  1.24365420752385E+00
(PID.TID 0000.0001)  ploadbar=  1.01142372338277E+05
 cg2d: Sum(rhs),rhsMax =  -5.14607701984970E+01  1.24570947294743E+00
(PID.TID 0000.0001)  ploadbar=  1.01142112241374E+05
 cg2d: Sum(rhs),rhsMax =  -5.13754016365354E+01  1.24763187790705E+00
(PID.TID 0000.0001)  ploadbar=  1.01141852144470E+05
 cg2d: Sum(rhs),rhsMax =  -5.12934957903433E+01  1.24942572524054E+00
(PID.TID 0000.0001)  ploadbar=  1.01141592047566E+05
 cg2d: Sum(rhs),rhsMax =  -5.12143545196491E+01  1.25109935825890E+00
(PID.TID 0000.0001)  ploadbar=  1.01141331950663E+05
 cg2d: Sum(rhs),rhsMax =  -5.11569416785974E+01  1.25225273524642E+00
(PID.TID 0000.0001)  ploadbar=  1.01141597837655E+05
 cg2d: Sum(rhs),rhsMax =  -5.11014138600076E+01  1.25336343960916E+00
(PID.TID 0000.0001)  ploadbar=  1.01141863724647E+05
 cg2d: Sum(rhs),rhsMax =  -5.10471383421530E+01  1.25443800617523E+00
(PID.TID 0000.0001)  ploadbar=  1.01142129611639E+05
 cg2d: Sum(rhs),rhsMax =  -5.09971356167158E+01  1.25539511427898E+00
(PID.TID 0000.0001)  ploadbar=  1.01142395498630E+05
 cg2d: Sum(rhs),rhsMax =  -5.09507621749803E+01  1.25623978355489E+00
(PID.TID 0000.0001)  ploadbar=  1.01142661385622E+05
 cg2d: Sum(rhs),rhsMax =  -5.09092187589250E+01  1.25693217906447E+00
(PID.TID 0000.0001)  ploadbar=  1.01142927272614E+05
 cg2d: Sum(rhs),rhsMax =  -5.08761817646789E+01  1.25736203733287E+00
(PID.TID 0000.0001)  ploadbar=  1.01143908037788E+05
 cg2d: Sum(rhs),rhsMax =  -5.08516192438846E+01  1.25752709816280E+00
(PID.TID 0000.0001)  ploadbar=  1.01144888802962E+05
 cg2d: Sum(rhs),rhsMax =  -5.08340770797355E+01  1.25746143481204E+00
(PID.TID 0000.0001)  ploadbar=  1.01145869568136E+05
 cg2d: Sum(rhs),rhsMax =  -5.08226199405424E+01  1.25718450919797E+00
(PID.TID 0000.0001)  ploadbar=  1.01146850333310E+05
 cg2d: Sum(rhs),rhsMax =  -5.08176931207811E+01  1.25668343340463E+00
(PID.TID 0000.0001)  ploadbar=  1.01147831098483E+05
 cg2d: Sum(rhs),rhsMax =  -5.08178506477920E+01  1.25599053223393E+00
(PID.TID 0000.0001)  ploadbar=  1.01148811863657E+05
 cg2d: Sum(rhs),rhsMax =  -5.08233108205371E+01  1.25526995003235E+00
(PID.TID 0000.0001)  ploadbar=  1.01149735332445E+05
 cg2d: Sum(rhs),rhsMax =  -5.08352973342785E+01  1.25448616806154E+00
(PID.TID 0000.0001)  ploadbar=  1.01150658801232E+05
 cg2d: Sum(rhs),rhsMax =  -5.08550048154171E+01  1.25360189413640E+00
(PID.TID 0000.0001)  ploadbar=  1.01151582270019E+05
 cg2d: Sum(rhs),rhsMax =  -5.08795195605846E+01  1.25267833010035E+00
(PID.TID 0000.0001)  ploadbar=  1.01152505738807E+05
 cg2d: Sum(rhs),rhsMax =  -5.09073578269065E+01  1.25174493237940E+00
(PID.TID 0000.0001)  ploadbar=  1.01153429207594E+05
 cg2d: Sum(rhs),rhsMax =  -5.09370467715160E+01  1.25082714531259E+00
(PID.TID 0000.0001)  ploadbar=  1.01154352676382E+05
 cg2d: Sum(rhs),rhsMax =  -5.09585349653194E+01  1.25009423374543E+00
(PID.TID 0000.0001)  ploadbar=  1.01154778556639E+05
 cg2d: Sum(rhs),rhsMax =  -5.09759948253667E+01  1.24943678288141E+00
(PID.TID 0000.0001)  ploadbar=  1.01155204436897E+05
 cg2d: Sum(rhs),rhsMax =  -5.09901084053344E+01  1.24883403658742E+00
(PID.TID 0000.0001)  ploadbar=  1.01155630317154E+05
 cg2d: Sum(rhs),rhsMax =  -5.10017616289700E+01  1.24825668236206E+00
(PID.TID 0000.0001)  ploadbar=  1.01156056197412E+05
 cg2d: Sum(rhs),rhsMax =  -5.10133474720006E+01  1.24763820752616E+00
(PID.TID 0000.0001)  ploadbar=  1.01156482077669E+05
 cg2d: Sum(rhs),rhsMax =  -5.10279638674885E+01  1.24690010925670E+00
(PID.TID 0000.0001)  ploadbar=  1.01156907957927E+05
 cg2d: Sum(rhs),rhsMax =  -5.10516016719404E+01  1.24600663641782E+00
(PID.TID 0000.0001)  ploadbar=  1.01155639887326E+05
 cg2d: Sum(rhs),rhsMax =  -5.10899065009236E+01  1.24481229093956E+00
(PID.TID 0000.0001)  ploadbar=  1.01154371816726E+05
 cg2d: Sum(rhs),rhsMax =  -5.11400774901198E+01  1.24337590819417E+00
(PID.TID 0000.0001)  ploadbar=  1.01153103746125E+05
 cg2d: Sum(rhs),rhsMax =  -5.12001946194574E+01  1.24173362957440E+00
(PID.TID 0000.0001)  ploadbar=  1.01151835675525E+05
 cg2d: Sum(rhs),rhsMax =  -5.12683887654311E+01  1.23992443119099E+00
(PID.TID 0000.0001)  ploadbar=  1.01150567604925E+05
 cg2d: Sum(rhs),rhsMax =  -5.13440702234005E+01  1.23795747044275E+00
(PID.TID 0000.0001)  ploadbar=  1.01149299534324E+05
 cg2d: Sum(rhs),rhsMax =  -5.14282262256920E+01  1.23578969849681E+00
(PID.TID 0000.0001)  ploadbar=  1.01149919317773E+05
 cg2d: Sum(rhs),rhsMax =  -5.15218701720110E+01  1.23339638403867E+00
(PID.TID 0000.0001)  ploadbar=  1.01150539101221E+05
 cg2d: Sum(rhs),rhsMax =  -5.16207046303722E+01  1.23087848184638E+00
(PID.TID 0000.0001)  ploadbar=  1.01151158884669E+05
 cg2d: Sum(rhs),rhsMax =  -5.17233668081928E+01  1.22826778964093E+00
(PID.TID 0000.0001)  ploadbar=  1.01151778668118E+05
 cg2d: Sum(rhs),rhsMax =  -5.18306366149382E+01  1.22554288257464E+00
(PID.TID 0000.0001)  ploadbar=  1.01152398451566E+05
 cg2d: Sum(rhs),rhsMax =  -5.19403636325354E+01  1.22275229422367E+00
(PID.TID 0000.0001)  ploadbar=  1.01153018235015E+05
 cg2d: Sum(rhs),rhsMax =  -5.20579563766970E+01  1.21987015292447E+00
(PID.TID 0000.0001)  ploadbar=  1.01152100380805E+05
 cg2d: Sum(rhs),rhsMax =  -5.21822620991007E+01  1.21691897914973E+00
(PID.TID 0000.0001)  ploadbar=  1.01151182526595E+05
 cg2d: Sum(rhs),rhsMax =  -5.23225193597084E+01  1.21368392323446E+00
(PID.TID 0000.0001)  ploadbar=  1.01150264672385E+05
 cg2d: Sum(rhs),rhsMax =  -5.24816762558805E+01  1.21009752706748E+00
(PID.TID 0000.0001)  ploadbar=  1.01149346818176E+05
 cg2d: Sum(rhs),rhsMax =  -5.26654700935990E+01  1.20602778122402E+00
(PID.TID 0000.0001)  ploadbar=  1.01148428963966E+05
 cg2d: Sum(rhs),rhsMax =  -5.28836933082585E+01  1.20125635667738E+00
(PID.TID 0000.0001)  ploadbar=  1.01147511109756E+05
 cg2d: Sum(rhs),rhsMax =  -5.31582407457431E+01  1.19520895870044E+00
(PID.TID 0000.0001)  ploadbar=  1.01147683406164E+05
 cg2d: Sum(rhs),rhsMax =  -5.35040470828827E+01  1.18758936206620E+00
(PID.TID 0000.0001)  ploadbar=  1.01147855702572E+05
 cg2d: Sum(rhs),rhsMax =  -5.39385214818532E+01  1.17807261339205E+00
(PID.TID 0000.0001)  ploadbar=  1.01148027998980E+05
 cg2d: Sum(rhs),rhsMax =  -5.44746776677413E+01  1.16646725728630E+00
(PID.TID 0000.0001)  ploadbar=  1.01148200295387E+05
 cg2d: Sum(rhs),rhsMax =  -5.51043748238057E+01  1.15306302631724E+00
(PID.TID 0000.0001)  ploadbar=  1.01148372591795E+05
 cg2d: Sum(rhs),rhsMax =  -5.58124709247642E+01  1.13829540752598E+00
(PID.TID 0000.0001)  ploadbar=  1.01148544888203E+05
 cg2d: Sum(rhs),rhsMax =  -5.65285089087000E+01  1.12375264200067E+00
(PID.TID 0000.0001)  ploadbar=  1.01147592168743E+05
 cg2d: Sum(rhs),rhsMax =  -5.71445355210786E+01  1.11152068609880E+00
(PID.TID 0000.0001)  ploadbar=  1.01146639449282E+05
 cg2d: Sum(rhs),rhsMax =  -5.60007384951112E+01  1.13410171581560E+00
(PID.TID 0000.0001)  ploadbar=  1.01145686729822E+05
 cg2d: Sum(rhs),rhsMax =  -5.49096713030070E+01  1.15650554186520E+00
(PID.TID 0000.0001)  ploadbar=  1.01144734010362E+05
 cg2d: Sum(rhs),rhsMax =  -5.38821614208516E+01  1.17841394749335E+00
(PID.TID 0000.0001)  ploadbar=  1.01143781290902E+05
 cg2d: Sum(rhs),rhsMax =  -5.29191457949742E+01  1.19969979666025E+00
(PID.TID 0000.0001)  ploadbar=  1.01142828571442E+05
 cg2d: Sum(rhs),rhsMax =  -5.19867873982555E+01  1.22102831025330E+00
(PID.TID 0000.0001)  ploadbar=  1.01142522505295E+05
 cg2d: Sum(rhs),rhsMax =  -5.11355039341141E+01  1.24113667536460E+00
(PID.TID 0000.0001)  ploadbar=  1.01142216439148E+05
 cg2d: Sum(rhs),rhsMax =  -5.03613644919971E+01  1.25996437373814E+00
(PID.TID 0000.0001)  ploadbar=  1.01141910373001E+05
 cg2d: Sum(rhs),rhsMax =  -4.96832871899898E+01  1.27688002291695E+00
(PID.TID 0000.0001)  ploadbar=  1.01141604306854E+05
 cg2d: Sum(rhs),rhsMax =  -4.90992690584519E+01  1.29176073485906E+00
(PID.TID 0000.0001)  ploadbar=  1.01141298240707E+05
 cg2d: Sum(rhs),rhsMax =  -4.86172412373200E+01  1.30423562289417E+00
(PID.TID 0000.0001)  ploadbar=  1.01140992174560E+05
 cg2d: Sum(rhs),rhsMax =  -4.82164302665134E+01  1.31484871248262E+00
(PID.TID 0000.0001)  ploadbar=  1.01140737216294E+05
 cg2d: Sum(rhs),rhsMax =  -4.78977527347785E+01  1.32347161498190E+00
(PID.TID 0000.0001)  ploadbar=  1.01140482258027E+05
 cg2d: Sum(rhs),rhsMax =  -4.76578552691482E+01  1.33011152509498E+00
(PID.TID 0000.0001)  ploadbar=  1.01140227299760E+05
 cg2d: Sum(rhs),rhsMax =  -4.75081528009131E+01  1.33438112537672E+00
(PID.TID 0000.0001)  ploadbar=  1.01139972341494E+05
 cg2d: Sum(rhs),rhsMax =  -4.74506050687842E+01  1.33617743635481E+00
(PID.TID 0000.0001)  ploadbar=  1.01139717383227E+05
 cg2d: Sum(rhs),rhsMax =  -4.74907633109332E+01  1.33532099654843E+00
(PID.TID 0000.0001)  ploadbar=  1.01139462424960E+05
 cg2d: Sum(rhs),rhsMax =  -4.76448766956135E+01  1.33125520684834E+00
(PID.TID 0000.0001)  ploadbar=  1.01139110885650E+05
 cg2d: Sum(rhs),rhsMax =  -4.79216431497468E+01  1.32379521955252E+00
(PID.TID 0000.0001)  ploadbar=  1.01138759346339E+05
 cg2d: Sum(rhs),rhsMax =  -4.83303231680422E+01  1.31279941448238E+00
(PID.TID 0000.0001)  ploadbar=  1.01138407807028E+05
 cg2d: Sum(rhs),rhsMax =  -4.88873923150358E+01  1.29800368807525E+00
(PID.TID 0000.0001)  ploadbar=  1.01138056267718E+05
 cg2d: Sum(rhs),rhsMax =  -4.98133922944405E+01  1.27399878586109E+00
(PID.TID 0000.0001)  ploadbar=  1.01137704728407E+05
 cg2d: Sum(rhs),rhsMax =  -4.81723265779002E+01  1.31748759018320E+00
(PID.TID 0000.0001)  ploadbar=  1.01137353189096E+05
 cg2d: Sum(rhs),rhsMax =  -4.60827656911016E+01  1.37732126310840E+00
(PID.TID 0000.0001)  ploadbar=  1.01135433671031E+05
 cg2d: Sum(rhs),rhsMax =  -4.42441211826097E+01  1.43465603973524E+00
(PID.TID 0000.0001)  ploadbar=  1.01133514152965E+05
 cg2d: Sum(rhs),rhsMax =  -4.26206801726171E+01  1.48940053657287E+00
(PID.TID 0000.0001)  ploadbar=  1.01131594634899E+05
 cg2d: Sum(rhs),rhsMax =  -4.11881034109234E+01  1.54129749443839E+00
(PID.TID 0000.0001)  ploadbar=  1.01129675116834E+05
 cg2d: Sum(rhs),rhsMax =  -3.99260467142239E+01  1.59009909419171E+00
(PID.TID 0000.0001)  ploadbar=  1.01127755598768E+05
 cg2d: Sum(rhs),rhsMax =  -3.88099569516657E+01  1.63588741894062E+00
(PID.TID 0000.0001)  ploadbar=  1.01125836080702E+05
 cg2d: Sum(rhs),rhsMax =  -3.78142160841583E+01  1.67887749775936E+00
(PID.TID 0000.0001)  ploadbar=  1.01123952432413E+05
 cg2d: Sum(rhs),rhsMax =  -3.69379465128111E+01  1.71846236384181E+00
(PID.TID 0000.0001)  ploadbar=  1.01122068784124E+05
 cg2d: Sum(rhs),rhsMax =  -3.61686141059206E+01  1.75460838955705E+00
(PID.TID 0000.0001)  ploadbar=  1.01120185135835E+05
 cg2d: Sum(rhs),rhsMax =  -3.54945639259929E+01  1.78735002502887E+00
(PID.TID 0000.0001)  ploadbar=  1.01118301487545E+05
 cg2d: Sum(rhs),rhsMax =  -3.49107174275127E+01  1.81648593582067E+00
(PID.TID 0000.0001)  ploadbar=  1.01116417839256E+05
 cg2d: Sum(rhs),rhsMax =  -3.44127449328663E+01  1.84183670730906E+00
(PID.TID 0000.0001)  ploadbar=  1.01114534190967E+05
 cg2d: Sum(rhs),rhsMax =  -3.39841241149390E+01  1.86424034393789E+00
(PID.TID 0000.0001)  ploadbar=  1.01112714093351E+05
 cg2d: Sum(rhs),rhsMax =  -3.36327871642311E+01  1.88299559388801E+00
(PID.TID 0000.0001)  ploadbar=  1.01110893995734E+05
 cg2d: Sum(rhs),rhsMax =  -3.33524529114500E+01  1.89820679612414E+00
(PID.TID 0000.0001)  ploadbar=  1.01109073898118E+05
 cg2d: Sum(rhs),rhsMax =  -3.31967351519133E+01  1.90659529021324E+00
(PID.TID 0000.0001)  ploadbar=  1.01107253800501E+05
 cg2d: Sum(rhs),rhsMax =  -3.30988675885975E+01  1.91181667584721E+00
(PID.TID 0000.0001)  ploadbar=  1.01105433702885E+05
 cg2d: Sum(rhs),rhsMax =  -3.30571582895366E+01  1.91390690195597E+00
(PID.TID 0000.0001)  ploadbar=  1.01103613605269E+05
 cg2d: Sum(rhs),rhsMax =  -3.30707251623498E+01  1.91273393546082E+00
(PID.TID 0000.0001)  ploadbar=  1.01103125396296E+05
 cg2d: Sum(rhs),rhsMax =  -3.31474658635385E+01  1.90784417272464E+00
(PID.TID 0000.0001)  ploadbar=  1.01102637187323E+05
 cg2d: Sum(rhs),rhsMax =  -3.32594487705746E+01  1.90087408365343E+00
(PID.TID 0000.0001)  ploadbar=  1.01102148978350E+05
 cg2d: Sum(rhs),rhsMax =  -3.37774344270275E+01  1.87108779649736E+00
(PID.TID 0000.0001)  ploadbar=  1.01101660769377E+05
 cg2d: Sum(rhs),rhsMax =  -3.42799668455688E+01  1.84292398612544E+00
(PID.TID 0000.0001)  ploadbar=  1.01101172560404E+05
 cg2d: Sum(rhs),rhsMax =  -3.47684703431312E+01  1.81618978319495E+00
(PID.TID 0000.0001)  ploadbar=  1.01100684351431E+05
 cg2d: Sum(rhs),rhsMax =  -3.52083236021868E+01  1.79274288909808E+00
(PID.TID 0000.0001)  ploadbar=  1.01099224848596E+05
 cg2d: Sum(rhs),rhsMax =  -3.56274902722856E+01  1.77097131777615E+00
(PID.TID 0000.0001)  ploadbar=  1.01097765345762E+05
 cg2d: Sum(rhs),rhsMax =  -3.60241858990387E+01  1.75085889044167E+00
(PID.TID 0000.0001)  ploadbar=  1.01096305842927E+05
 cg2d: Sum(rhs),rhsMax =  -3.63893921092064E+01  1.73273568397162E+00
(PID.TID 0000.0001)  ploadbar=  1.01094846340093E+05
 cg2d: Sum(rhs),rhsMax =  -3.67335089638945E+01  1.71600057239014E+00
(PID.TID 0000.0001)  ploadbar=  1.01093386837258E+05
 cg2d: Sum(rhs),rhsMax =  -3.70609491923724E+01  1.70037742383729E+00
(PID.TID 0000.0001)  ploadbar=  1.01091927334424E+05
 cg2d: Sum(rhs),rhsMax =  -3.74151860840936E+01  1.68381408243288E+00
(PID.TID 0000.0001)  ploadbar=  1.01090487436766E+05
 cg2d: Sum(rhs),rhsMax =  -3.77601026766349E+01  1.66796246132663E+00
(PID.TID 0000.0001)  ploadbar=  1.01089047539108E+05
 cg2d: Sum(rhs),rhsMax =  -3.80976086484665E+01  1.65270652004579E+00
(PID.TID 0000.0001)  ploadbar=  1.01087607641450E+05
 cg2d: Sum(rhs),rhsMax =  -3.84213653438573E+01  1.63829252688250E+00
(PID.TID 0000.0001)  ploadbar=  1.01086167743792E+05
 cg2d: Sum(rhs),rhsMax =  -3.87191312686175E+01  1.62519720927600E+00
(PID.TID 0000.0001)  ploadbar=  1.01084727846134E+05
 cg2d: Sum(rhs),rhsMax =  -3.89815270237139E+01  1.61375318820713E+00
(PID.TID 0000.0001)  ploadbar=  1.01083287948476E+05
 cg2d: Sum(rhs),rhsMax =  -3.92347630359967E+01  1.60294170151501E+00
(PID.TID 0000.0001)  ploadbar=  1.01083396012160E+05
 cg2d: Sum(rhs),rhsMax =  -3.94528924948947E+01  1.59378596391238E+00
(PID.TID 0000.0001)  ploadbar=  1.01083504075844E+05
 cg2d: Sum(rhs),rhsMax =  -3.96434918968563E+01  1.58592404778419E+00
(PID.TID 0000.0001)  ploadbar=  1.01083612139528E+05
 cg2d: Sum(rhs),rhsMax =  -3.98150763904210E+01  1.57897949845275E+00
(PID.TID 0000.0001)  ploadbar=  1.01083720203212E+05
 cg2d: Sum(rhs),rhsMax =  -3.99760992575624E+01  1.57259585978519E+00
(PID.TID 0000.0001)  ploadbar=  1.01083828266896E+05
 cg2d: Sum(rhs),rhsMax =  -4.01360814018873E+01  1.56638471200469E+00
(PID.TID 0000.0001)  ploadbar=  1.01083936330580E+05
 cg2d: Sum(rhs),rhsMax =  -4.03436339933827E+01  1.55831804532275E+00
(PID.TID 0000.0001)  ploadbar=  1.01082435624897E+05
 cg2d: Sum(rhs),rhsMax =  -4.04562430792679E+01  1.55389818948322E+00
(PID.TID 0000.0001)  ploadbar=  1.01080934919214E+05
 cg2d: Sum(rhs),rhsMax =  -4.02520958546689E+01  1.56161144458666E+00
(PID.TID 0000.0001)  ploadbar=  1.01079434213531E+05
 cg2d: Sum(rhs),rhsMax =  -4.00133466914096E+01  1.57066289798247E+00
(PID.TID 0000.0001)  ploadbar=  1.01077933507848E+05
 cg2d: Sum(rhs),rhsMax =  -3.97399061293463E+01  1.58109810987439E+00
(PID.TID 0000.0001)  ploadbar=  1.01076432802165E+05
 cg2d: Sum(rhs),rhsMax =  -3.94506365895716E+01  1.59220619328206E+00
(PID.TID 0000.0001)  ploadbar=  1.01074932096482E+05
 cg2d: Sum(rhs),rhsMax =  -3.91262195373616E+01  1.60499803836577E+00
(PID.TID 0000.0001)  ploadbar=  1.01071664570980E+05
 cg2d: Sum(rhs),rhsMax =  -3.87879585740064E+01  1.61865737543305E+00
(PID.TID 0000.0001)  ploadbar=  1.01068397045478E+05
 cg2d: Sum(rhs),rhsMax =  -3.84456550028671E+01  1.63279895985813E+00
(PID.TID 0000.0001)  ploadbar=  1.01065129519976E+05
 cg2d: Sum(rhs),rhsMax =  -3.81079086447953E+01  1.64706151425977E+00
(PID.TID 0000.0001)  ploadbar=  1.01061861994473E+05
 cg2d: Sum(rhs),rhsMax =  -3.78060820184033E+01  1.66006430699760E+00
(PID.TID 0000.0001)  ploadbar=  1.01058594468971E+05
 cg2d: Sum(rhs),rhsMax =  -3.75354415992148E+01  1.67194032864429E+00
(PID.TID 0000.0001)  ploadbar=  1.01055326943469E+05
 cg2d: Sum(rhs),rhsMax =  -3.72856649301028E+01  1.68303612746861E+00
(PID.TID 0000.0001)  ploadbar=  1.01054084723413E+05
 cg2d: Sum(rhs),rhsMax =  -3.70763607137064E+01  1.69241915168849E+00
(PID.TID 0000.0001)  ploadbar=  1.01052842503357E+05
 cg2d: Sum(rhs),rhsMax =  -3.69143920645327E+01  1.69970693849856E+00
(PID.TID 0000.0001)  ploadbar=  1.01051600283301E+05
 cg2d: Sum(rhs),rhsMax =  -3.67992226166704E+01  1.70486293988097E+00
(PID.TID 0000.0001)  ploadbar=  1.01050358063244E+05
 cg2d: Sum(rhs),rhsMax =  -3.67306191044501E+01  1.70785819645710E+00
(PID.TID 0000.0001)  ploadbar=  1.01049115843188E+05
 cg2d: Sum(rhs),rhsMax =  -3.67051255684847E+01  1.70882719004151E+00
(PID.TID 0000.0001)  ploadbar=  1.01047873623132E+05
 cg2d: Sum(rhs),rhsMax =  -3.67323625018230E+01  1.70744695374837E+00
(PID.TID 0000.0001)  ploadbar=  1.01046627081530E+05
 cg2d: Sum(rhs),rhsMax =  -3.67889376977425E+01  1.70480750178569E+00
(PID.TID 0000.0001)  ploadbar=  1.01045380539929E+05
 cg2d: Sum(rhs),rhsMax =  -3.68610777850851E+01  1.70155106474438E+00
(PID.TID 0000.0001)  ploadbar=  1.01044133998327E+05
 cg2d: Sum(rhs),rhsMax =  -3.69437782888053E+01  1.69790937618653E+00
(PID.TID 0000.0001)  ploadbar=  1.01042887456725E+05
 cg2d: Sum(rhs),rhsMax =  -3.70306172027077E+01  1.69417510992290E+00
(PID.TID 0000.0001)  ploadbar=  1.01041640915124E+05
 cg2d: Sum(rhs),rhsMax =  -3.71113959030519E+01  1.69080313152188E+00
(PID.TID 0000.0001)  ploadbar=  1.01040394373522E+05
 cg2d: Sum(rhs),rhsMax =  -3.71543250062185E+01  1.68912864860500E+00
(PID.TID 0000.0001)  ploadbar=  1.01039341910982E+05
 cg2d: Sum(rhs),rhsMax =  -3.71843272904347E+01  1.68799528322200E+00
(PID.TID 0000.0001)  ploadbar=  1.01038289448441E+05
 cg2d: Sum(rhs),rhsMax =  -3.71967984700836E+01  1.68760435855899E+00
(PID.TID 0000.0001)  ploadbar=  1.01037236985901E+05
 cg2d: Sum(rhs),rhsMax =  -3.71951843394234E+01  1.68778982456778E+00
(PID.TID 0000.0001)  ploadbar=  1.01036184523360E+05
 cg2d: Sum(rhs),rhsMax =  -3.71848332679551E+01  1.68830174734428E+00
(PID.TID 0000.0001)  ploadbar=  1.01035132060820E+05
 cg2d: Sum(rhs),rhsMax =  -3.71698565880364E+01  1.68895185886777E+00
(PID.TID 0000.0001)  ploadbar=  1.01034079598279E+05
 cg2d: Sum(rhs),rhsMax =  -3.71587996791582E+01  1.68950131041291E+00
(PID.TID 0000.0001)  ploadbar=  1.01034163956601E+05
 cg2d: Sum(rhs),rhsMax =  -3.71478013504846E+01  1.69011289839056E+00
(PID.TID 0000.0001)  ploadbar=  1.01034248314923E+05
 cg2d: Sum(rhs),rhsMax =  -3.71257809089998E+01  1.69128742176666E+00
(PID.TID 0000.0001)  ploadbar=  1.01034332673245E+05
 cg2d: Sum(rhs),rhsMax =  -3.70942148516758E+01  1.69295289349699E+00
(PID.TID 0000.0001)  ploadbar=  1.01034417031567E+05
 cg2d: Sum(rhs),rhsMax =  -3.70527754923533E+01  1.69512156026883E+00
(PID.TID 0000.0001)  ploadbar=  1.01034501389889E+05
 cg2d: Sum(rhs),rhsMax =  -3.70075959032774E+01  1.69750846523206E+00
(PID.TID 0000.0001)  ploadbar=  1.01034585748211E+05
 cg2d: Sum(rhs),rhsMax =  -3.70927477632652E+01  1.69389807394219E+00
(PID.TID 0000.0001)  ploadbar=  1.01034497765648E+05
 cg2d: Sum(rhs),rhsMax =  -3.71666531901322E+01  1.69077718746524E+00
(PID.TID 0000.0001)  ploadbar=  1.01034409783085E+05
 cg2d: Sum(rhs),rhsMax =  -3.72287168420224E+01  1.68816470440924E+00
(PID.TID 0000.0001)  ploadbar=  1.01034321800521E+05
 cg2d: Sum(rhs),rhsMax =  -3.72819074643870E+01  1.68591979726521E+00
(PID.TID 0000.0001)  ploadbar=  1.01034233817958E+05
 cg2d: Sum(rhs),rhsMax =  -3.73263586028728E+01  1.68403138916521E+00
(PID.TID 0000.0001)  ploadbar=  1.01034145835395E+05
 cg2d: Sum(rhs),rhsMax =  -3.73637301955707E+01  1.68242211061021E+00
(PID.TID 0000.0001)  ploadbar=  1.01034057852832E+05
 cg2d: Sum(rhs),rhsMax =  -3.74005648630155E+01  1.68094349824563E+00
(PID.TID 0000.0001)  ploadbar=  1.01034277849312E+05
 cg2d: Sum(rhs),rhsMax =  -3.74410872056861E+01  1.67939918619624E+00
(PID.TID 0000.0001)  ploadbar=  1.01034497845792E+05
 cg2d: Sum(rhs),rhsMax =  -3.74875444863057E+01  1.67768475872205E+00
(PID.TID 0000.0001)  ploadbar=  1.01034717842272E+05
 cg2d: Sum(rhs),rhsMax =  -3.75422366009970E+01  1.67569470797148E+00
(PID.TID 0000.0001)  ploadbar=  1.01034937838752E+05
 cg2d: Sum(rhs),rhsMax =  -3.76055280645553E+01  1.67341051698279E+00
(PID.TID 0000.0001)  ploadbar=  1.01035157835232E+05
 cg2d: Sum(rhs),rhsMax =  -3.76803796091930E+01  1.67069950840721E+00
(PID.TID 0000.0001)  ploadbar=  1.01035377831712E+05
 cg2d: Sum(rhs),rhsMax =  -3.77352654091483E+01  1.66886648146342E+00
(PID.TID 0000.0001)  ploadbar=  1.01036455749169E+05
 cg2d: Sum(rhs),rhsMax =  -3.78050294633961E+01  1.66635918868044E+00
(PID.TID 0000.0001)  ploadbar=  1.01037533666626E+05
 cg2d: Sum(rhs),rhsMax =  -3.78959578370985E+01  1.66290143776982E+00
(PID.TID 0000.0001)  ploadbar=  1.01038611584084E+05
 cg2d: Sum(rhs),rhsMax =  -3.80020136011336E+01  1.65875988024864E+00
(PID.TID 0000.0001)  ploadbar=  1.01039689501541E+05
 cg2d: Sum(rhs),rhsMax =  -3.81088127809584E+01  1.65455817423120E+00
(PID.TID 0000.0001)  ploadbar=  1.01040767418998E+05
 cg2d: Sum(rhs),rhsMax =  -3.82234303790343E+01  1.64998758425809E+00
(PID.TID 0000.0001)  ploadbar=  1.01041845336456E+05
 cg2d: Sum(rhs),rhsMax =  -3.83825883396227E+01  1.64357654068272E+00
(PID.TID 0000.0001)  ploadbar=  1.01043112636184E+05
 cg2d: Sum(rhs),rhsMax =  -3.85712620107414E+01  1.63599945545255E+00
(PID.TID 0000.0001)  ploadbar=  1.01044379935913E+05
 cg2d: Sum(rhs),rhsMax =  -3.87837911770231E+01  1.62752545089207E+00
(PID.TID 0000.0001)  ploadbar=  1.01045647235642E+05
 cg2d: Sum(rhs),rhsMax =  -3.90165279793483E+01  1.61833000065852E+00
(PID.TID 0000.0001)  ploadbar=  1.01046914535371E+05
 cg2d: Sum(rhs),rhsMax =  -3.92690711686750E+01  1.60844882680424E+00
(PID.TID 0000.0001)  ploadbar=  1.01048181835100E+05
 cg2d: Sum(rhs),rhsMax =  -3.95364308851786E+01  1.59811070304788E+00
(PID.TID 0000.0001)  ploadbar=  1.01049449134829E+05
 cg2d: Sum(rhs),rhsMax =  -3.98204121416391E+01  1.58718736097086E+00
(PID.TID 0000.0001)  ploadbar=  1.01050591823586E+05
 cg2d: Sum(rhs),rhsMax =  -4.01094629625980E+01  1.57615445493418E+00
(PID.TID 0000.0001)  ploadbar=  1.01051734512343E+05
 cg2d: Sum(rhs),rhsMax =  -4.04028689678786E+01  1.56504127998113E+00
(PID.TID 0000.0001)  ploadbar=  1.01052877201100E+05
 cg2d: Sum(rhs),rhsMax =  -4.07011567152262E+01  1.55383058886734E+00
(PID.TID 0000.0001)  ploadbar=  1.01054019889857E+05
 cg2d: Sum(rhs),rhsMax =  -4.10062891389575E+01  1.54245465843350E+00
(PID.TID 0000.0001)  ploadbar=  1.01055162578614E+05
 cg2d: Sum(rhs),rhsMax =  -4.13200204462673E+01  1.53085784039050E+00
(PID.TID 0000.0001)  ploadbar=  1.01056305267372E+05
 cg2d: Sum(rhs),rhsMax =  -4.16372433010880E+01  1.51934568025067E+00
(PID.TID 0000.0001)  ploadbar=  1.01056902169072E+05
 cg2d: Sum(rhs),rhsMax =  -4.19649965631382E+01  1.50766674437170E+00
(PID.TID 0000.0001)  ploadbar=  1.01057499070773E+05
 cg2d: Sum(rhs),rhsMax =  -4.23077686441889E+01  1.49567460929697E+00
(PID.TID 0000.0001)  ploadbar=  1.01058095972473E+05
 cg2d: Sum(rhs),rhsMax =  -4.26624095413640E+01  1.48349752364810E+00
(PID.TID 0000.0001)  ploadbar=  1.01058692874174E+05
 cg2d: Sum(rhs),rhsMax =  -4.30232333275823E+01  1.47134281349081E+00
(PID.TID 0000.0001)  ploadbar=  1.01059289775874E+05
 cg2d: Sum(rhs),rhsMax =  -4.33891846753654E+01  1.45924741919278E+00
(PID.TID 0000.0001)  ploadbar=  1.01059886677575E+05
 cg2d: Sum(rhs),rhsMax =  -4.37389054331154E+01  1.44784254774183E+00
(PID.TID 0000.0001)  ploadbar=  1.01061105258000E+05
 cg2d: Sum(rhs),rhsMax =  -4.40880681118550E+01  1.43658281101991E+00
(PID.TID 0000.0001)  ploadbar=  1.01062323838425E+05
 cg2d: Sum(rhs),rhsMax =  -4.44401367573686E+01  1.42534746425282E+00
(PID.TID 0000.0001)  ploadbar=  1.01063542418850E+05
 cg2d: Sum(rhs),rhsMax =  -4.47903989409584E+01  1.41427957114039E+00
(PID.TID 0000.0001)  ploadbar=  1.01064760999275E+05
 cg2d: Sum(rhs),rhsMax =  -4.51352871266080E+01  1.40348136284551E+00
(PID.TID 0000.0001)  ploadbar=  1.01065979579700E+05
 cg2d: Sum(rhs),rhsMax =  -4.54693725411329E+01  1.39310954803794E+00
(PID.TID 0000.0001)  ploadbar=  1.01067198160125E+05
 cg2d: Sum(rhs),rhsMax =  -4.58093454461998E+01  1.38275754969475E+00
(PID.TID 0000.0001)  ploadbar=  1.01067270766572E+05
 cg2d: Sum(rhs),rhsMax =  -4.61462482060973E+01  1.37268743382278E+00
(PID.TID 0000.0001)  ploadbar=  1.01067343373020E+05
 cg2d: Sum(rhs),rhsMax =  -4.64795546539333E+01  1.36290441827166E+00
(PID.TID 0000.0001)  ploadbar=  1.01067415979467E+05
 cg2d: Sum(rhs),rhsMax =  -4.68043622262620E+01  1.35353859425795E+00
(PID.TID 0000.0001)  ploadbar=  1.01067488585915E+05
 cg2d: Sum(rhs),rhsMax =  -4.71126732070900E+01  1.34480012725219E+00
(PID.TID 0000.0001)  ploadbar=  1.01067561192362E+05
 cg2d: Sum(rhs),rhsMax =  -4.73975352557409E+01  1.33686151566360E+00
(PID.TID 0000.0001)  ploadbar=  1.01067633798810E+05
 cg2d: Sum(rhs),rhsMax =  -4.76853038603152E+01  1.32895716170097E+00
(PID.TID 0000.0001)  ploadbar=  1.01068563882807E+05
 cg2d: Sum(rhs),rhsMax =  -4.79648576946461E+01  1.32138965595900E+00
(PID.TID 0000.0001)  ploadbar=  1.01069493966805E+05
 cg2d: Sum(rhs),rhsMax =  -4.82383247520154E+01  1.31409114351309E+00
(PID.TID 0000.0001)  ploadbar=  1.01070424050803E+05
 cg2d: Sum(rhs),rhsMax =  -4.85109717336483E+01  1.30691123354635E+00
(PID.TID 0000.0001)  ploadbar=  1.01071354134801E+05
 cg2d: Sum(rhs),rhsMax =  -4.87842785545462E+01  1.29981253692057E+00
(PID.TID 0000.0001)  ploadbar=  1.01072284218799E+05
 cg2d: Sum(rhs),rhsMax =  -4.90574512523299E+01  1.29281481864332E+00
(PID.TID 0000.0001)  ploadbar=  1.01073214302797E+05
 cg2d: Sum(rhs),rhsMax =  -4.93384842576501E+01  1.28574569376812E+00
(PID.TID 0000.0001)  ploadbar=  1.01073988983020E+05
 cg2d: Sum(rhs),rhsMax =  -4.96293210410379E+01  1.27855461426853E+00
(PID.TID 0000.0001)  ploadbar=  1.01074763663242E+05
 cg2d: Sum(rhs),rhsMax =  -4.99269525004182E+01  1.27132285812326E+00
(PID.TID 0000.0001)  ploadbar=  1.01075538343465E+05
 cg2d: Sum(rhs),rhsMax =  -5.02322713255111E+01  1.26402909972263E+00
(PID.TID 0000.0001)  ploadbar=  1.01076313023688E+05
 cg2d: Sum(rhs),rhsMax =  -5.05444528009343E+01  1.25669856217017E+00
(PID.TID 0000.0001)  ploadbar=  1.01077087703911E+05
 cg2d: Sum(rhs),rhsMax =  -5.08630578776402E+01  1.24934193491205E+00
(PID.TID 0000.0001)  ploadbar=  1.01077862384134E+05
 cg2d: Sum(rhs),rhsMax =  -5.11932562497455E+01  1.24170650595836E+00
(PID.TID 0000.0001)  ploadbar=  1.01078529683079E+05
 cg2d: Sum(rhs),rhsMax =  -5.15325133981173E+01  1.23385982192346E+00
(PID.TID 0000.0001)  ploadbar=  1.01079196982024E+05
 cg2d: Sum(rhs),rhsMax =  -5.18757790595614E+01  1.22592223075760E+00
(PID.TID 0000.0001)  ploadbar=  1.01079864280969E+05
 cg2d: Sum(rhs),rhsMax =  -5.22213348283983E+01  1.21793281018415E+00
(PID.TID 0000.0001)  ploadbar=  1.01080531579914E+05
 cg2d: Sum(rhs),rhsMax =  -5.25680788348235E+01  1.20991435052962E+00
(PID.TID 0000.0001)  ploadbar=  1.01081198878859E+05
 cg2d: Sum(rhs),rhsMax =  -5.29151457151102E+01  1.20188716156323E+00
(PID.TID 0000.0001)  ploadbar=  1.01081866177804E+05
 cg2d: Sum(rhs),rhsMax =  -5.32877767374224E+01  1.19345836915427E+00
(PID.TID 0000.0001)  ploadbar=  1.01081904464539E+05
 cg2d: Sum(rhs),rhsMax =  -5.36713200379281E+01  1.18496230028436E+00
(PID.TID 0000.0001)  ploadbar=  1.01081942751273E+05
 cg2d: Sum(rhs),rhsMax =  -5.40637949498371E+01  1.17644605869230E+00
(PID.TID 0000.0001)  ploadbar=  1.01081981038008E+05
 cg2d: Sum(rhs),rhsMax =  -5.44606903665734E+01  1.16800768057752E+00
(PID.TID 0000.0001)  ploadbar=  1.01082019324743E+05
 cg2d: Sum(rhs),rhsMax =  -5.48520839565335E+01  1.15985516238397E+00
(PID.TID 0000.0001)  ploadbar=  1.01082057611477E+05
 cg2d: Sum(rhs),rhsMax =  -5.52334358149672E+01  1.15207160348366E+00
(PID.TID 0000.0001)  ploadbar=  1.01082095898212E+05
 cg2d: Sum(rhs),rhsMax =  -5.56070953994782E+01  1.14454547875917E+00
(PID.TID 0000.0001)  ploadbar=  1.01083223599957E+05
 cg2d: Sum(rhs),rhsMax =  -5.59720800755458E+01  1.13728879170277E+00
(PID.TID 0000.0001)  ploadbar=  1.01084351301702E+05
 cg2d: Sum(rhs),rhsMax =  -5.63274869561481E+01  1.13031265811970E+00
(PID.TID 0000.0001)  ploadbar=  1.01085479003446E+05
 cg2d: Sum(rhs),rhsMax =  -5.66738659759933E+01  1.12359616194191E+00
(PID.TID 0000.0001)  ploadbar=  1.01086606705191E+05
 cg2d: Sum(rhs),rhsMax =  -5.70152789730942E+01  1.11705150528726E+00
(PID.TID 0000.0001)  ploadbar=  1.01087734406936E+05
 cg2d: Sum(rhs),rhsMax =  -5.73561802032370E+01  1.11058834222260E+00
(PID.TID 0000.0001)  ploadbar=  1.01088862108681E+05
 cg2d: Sum(rhs),rhsMax =  -5.76481769405774E+01  1.10522499514835E+00
(PID.TID 0000.0001)  ploadbar=  1.01089686799558E+05
 cg2d: Sum(rhs),rhsMax =  -5.79480318638567E+01  1.09984973505391E+00
(PID.TID 0000.0001)  ploadbar=  1.01090511490435E+05
 cg2d: Sum(rhs),rhsMax =  -5.82655726279930E+01  1.09427816829654E+00
(PID.TID 0000.0001)  ploadbar=  1.01091336181312E+05
 cg2d: Sum(rhs),rhsMax =  -5.85998899964611E+01  1.08853327169998E+00
(PID.TID 0000.0001)  ploadbar=  1.01092160872189E+05
 cg2d: Sum(rhs),rhsMax =  -5.89456679541630E+01  1.08271809344234E+00
(PID.TID 0000.0001)  ploadbar=  1.01092985563066E+05
 cg2d: Sum(rhs),rhsMax =  -5.93020348735604E+01  1.07684948660869E+00
(PID.TID 0000.0001)  ploadbar=  1.01093810253942E+05
 cg2d: Sum(rhs),rhsMax =  -5.96495431660666E+01  1.07117866546770E+00
(PID.TID 0000.0001)  ploadbar=  1.01093209512456E+05
 cg2d: Sum(rhs),rhsMax =  -5.99983537824488E+01  1.06551443682659E+00
(PID.TID 0000.0001)  ploadbar=  1.01092608770970E+05
 cg2d: Sum(rhs),rhsMax =  -6.03466474270535E+01  1.05988658144417E+00
(PID.TID 0000.0001)  ploadbar=  1.01092008029484E+05
 cg2d: Sum(rhs),rhsMax =  -6.06958841139119E+01  1.05426275695029E+00
(PID.TID 0000.0001)  ploadbar=  1.01091407287998E+05
 cg2d: Sum(rhs),rhsMax =  -6.10464047625046E+01  1.04863517237555E+00
(PID.TID 0000.0001)  ploadbar=  1.01090806546512E+05
 cg2d: Sum(rhs),rhsMax =  -6.13997736151085E+01  1.04297720459656E+00
(PID.TID 0000.0001)  ploadbar=  1.01090205805026E+05
 cg2d: Sum(rhs),rhsMax =  -6.17750269155959E+01  1.03702710049005E+00
(PID.TID 0000.0001)  ploadbar=  1.01088234175209E+05
 cg2d: Sum(rhs),rhsMax =  -6.21527747412495E+01  1.03110846843295E+00
(PID.TID 0000.0001)  ploadbar=  1.01086262545391E+05
 cg2d: Sum(rhs),rhsMax =  -6.25353157788457E+01  1.02518046498994E+00
(PID.TID 0000.0001)  ploadbar=  1.01084290915574E+05
 cg2d: Sum(rhs),rhsMax =  -6.29238035128216E+01  1.01922347716853E+00
(PID.TID 0000.0001)  ploadbar=  1.01082319285756E+05
 cg2d: Sum(rhs),rhsMax =  -6.33200754259057E+01  1.01320604044975E+00
(PID.TID 0000.0001)  ploadbar=  1.01080347655938E+05
 cg2d: Sum(rhs),rhsMax =  -6.37296336197121E+01  1.00704180203419E+00
(PID.TID 0000.0001)  ploadbar=  1.01078376026121E+05
 cg2d: Sum(rhs),rhsMax =  -6.41687704948138E+01  1.00045925928337E+00
(PID.TID 0000.0001)  ploadbar=  1.01077796548182E+05
 cg2d: Sum(rhs),rhsMax =  -6.46059601839128E+01  9.93958130305687E-01
(PID.TID 0000.0001)  ploadbar=  1.01077217070244E+05
 cg2d: Sum(rhs),rhsMax =  -6.50396563467403E+01  9.87557869239596E-01
(PID.TID 0000.0001)  ploadbar=  1.01076637592306E+05
 cg2d: Sum(rhs),rhsMax =  -6.54775446369724E+01  9.81139281389906E-01
(PID.TID 0000.0001)  ploadbar=  1.01076058114368E+05
 cg2d: Sum(rhs),rhsMax =  -6.49464459064711E+01  9.89309955627030E-01
(PID.TID 0000.0001)  ploadbar=  1.01075478636429E+05
 cg2d: Sum(rhs),rhsMax =  -6.43810130612348E+01  9.98107220721479E-01
(PID.TID 0000.0001)  ploadbar=  1.01074899158491E+05
 cg2d: Sum(rhs),rhsMax =  -6.37572358266200E+01  1.00805764930966E+00
(PID.TID 0000.0001)  ploadbar=  1.01075380999151E+05
 cg2d: Sum(rhs),rhsMax =  -6.30870879245125E+01  1.01902658419300E+00
(PID.TID 0000.0001)  ploadbar=  1.01075862839810E+05
 cg2d: Sum(rhs),rhsMax =  -6.23874320205036E+01  1.03078977097400E+00
(PID.TID 0000.0001)  ploadbar=  1.01076344680470E+05
 cg2d: Sum(rhs),rhsMax =  -6.16655819677011E+01  1.04326626396087E+00
(PID.TID 0000.0001)  ploadbar=  1.01076826521130E+05
 cg2d: Sum(rhs),rhsMax =  -6.09258827210915E+01  1.05641704516306E+00
(PID.TID 0000.0001)  ploadbar=  1.01077308361790E+05
 cg2d: Sum(rhs),rhsMax =  -6.01681489840918E+01  1.07027910157565E+00
(PID.TID 0000.0001)  ploadbar=  1.01077790202450E+05
 cg2d: Sum(rhs),rhsMax =  -5.93834738471259E+01  1.08493400853834E+00
(PID.TID 0000.0001)  ploadbar=  1.01077305201141E+05
 cg2d: Sum(rhs),rhsMax =  -5.85971655178609E+01  1.09995706808982E+00
(PID.TID 0000.0001)  ploadbar=  1.01076820199832E+05
 cg2d: Sum(rhs),rhsMax =  -5.78319239336578E+01  1.11492472958234E+00
(PID.TID 0000.0001)  ploadbar=  1.01076335198523E+05
 cg2d: Sum(rhs),rhsMax =  -5.71009724714075E+01  1.12955388161520E+00
(PID.TID 0000.0001)  ploadbar=  1.01075850197214E+05
 cg2d: Sum(rhs),rhsMax =  -5.64135971153800E+01  1.14361387859839E+00
(PID.TID 0000.0001)  ploadbar=  1.01075365195905E+05
 cg2d: Sum(rhs),rhsMax =  -5.57767586590388E+01  1.15690581958618E+00
(PID.TID 0000.0001)  ploadbar=  1.01074880194596E+05
 cg2d: Sum(rhs),rhsMax =  -5.52074820229582E+01  1.16907974884550E+00
(PID.TID 0000.0001)  ploadbar=  1.01074089618622E+05
 cg2d: Sum(rhs),rhsMax =  -5.47115399451690E+01  1.17992492124583E+00
(PID.TID 0000.0001)  ploadbar=  1.01073299042648E+05
 cg2d: Sum(rhs),rhsMax =  -5.42865690463843E+01  1.18940680164552E+00
(PID.TID 0000.0001)  ploadbar=  1.01072508466674E+05
 cg2d: Sum(rhs),rhsMax =  -5.39314142005325E+01  1.19747680051257E+00
(PID.TID 0000.0001)  ploadbar=  1.01071717890700E+05
 cg2d: Sum(rhs),rhsMax =  -5.36520631300078E+01  1.20393850577706E+00
(PID.TID 0000.0001)  ploadbar=  1.01070927314726E+05
 cg2d: Sum(rhs),rhsMax =  -5.34290267680857E+01  1.20917598490714E+00
(PID.TID 0000.0001)  ploadbar=  1.01070136738752E+05
 cg2d: Sum(rhs),rhsMax =  -5.32342826957033E+01  1.21377573341051E+00
(PID.TID 0000.0001)  ploadbar=  1.01069870937047E+05
 cg2d: Sum(rhs),rhsMax =  -5.30258761988774E+01  1.21868607171954E+00
(PID.TID 0000.0001)  ploadbar=  1.01069605135342E+05
 cg2d: Sum(rhs),rhsMax =  -5.27881050516075E+01  1.22427707628524E+00
(PID.TID 0000.0001)  ploadbar=  1.01069339333637E+05
 cg2d: Sum(rhs),rhsMax =  -5.25125172979743E+01  1.23076374743329E+00
(PID.TID 0000.0001)  ploadbar=  1.01069073531932E+05
 cg2d: Sum(rhs),rhsMax =  -5.21962611712739E+01  1.23824171745923E+00
(PID.TID 0000.0001)  ploadbar=  1.01068807730227E+05
 cg2d: Sum(rhs),rhsMax =  -5.18375242202307E+01  1.24679031173694E+00
(PID.TID 0000.0001)  ploadbar=  1.01068541928522E+05
 cg2d: Sum(rhs),rhsMax =  -5.14275307355271E+01  1.25676758914800E+00
(PID.TID 0000.0001)  ploadbar=  1.01068967481420E+05
 cg2d: Sum(rhs),rhsMax =  -5.09648969366087E+01  1.26827242957227E+00
(PID.TID 0000.0001)  ploadbar=  1.01069393034319E+05
 cg2d: Sum(rhs),rhsMax =  -5.04535214202789E+01  1.28128013775605E+00
(PID.TID 0000.0001)  ploadbar=  1.01069818587217E+05
 cg2d: Sum(rhs),rhsMax =  -4.99120379584039E+01  1.29538773818142E+00
(PID.TID 0000.0001)  ploadbar=  1.01070244140115E+05
 cg2d: Sum(rhs),rhsMax =  -4.93551298350468E+01  1.31026656629963E+00
(PID.TID 0000.0001)  ploadbar=  1.01070669693013E+05
 cg2d: Sum(rhs),rhsMax =  -4.87981683320867E+01  1.32553830714359E+00
(PID.TID 0000.0001)  ploadbar=  1.01071095245912E+05
 cg2d: Sum(rhs),rhsMax =  -4.82356268301664E+01  1.34128689210753E+00
(PID.TID 0000.0001)  ploadbar=  1.01071302467314E+05
 cg2d: Sum(rhs),rhsMax =  -4.76766813579550E+01  1.35726971248550E+00
(PID.TID 0000.0001)  ploadbar=  1.01071509688717E+05
 cg2d: Sum(rhs),rhsMax =  -4.71100601492510E+01  1.37381746762627E+00
(PID.TID 0000.0001)  ploadbar=  1.01071716910119E+05
 cg2d: Sum(rhs),rhsMax =  -4.65777375313544E+01  1.38969937943590E+00
(PID.TID 0000.0001)  ploadbar=  1.01071924131522E+05
 cg2d: Sum(rhs),rhsMax =  -4.63327329066657E+01  1.39718097563648E+00
(PID.TID 0000.0001)  ploadbar=  1.01072131352924E+05
 cg2d: Sum(rhs),rhsMax =  -4.60982714237734E+01  1.40437021731655E+00
(PID.TID 0000.0001)  ploadbar=  1.01072338574327E+05
 cg2d: Sum(rhs),rhsMax =  -4.59282679327779E+01  1.40968205645624E+00
(PID.TID 0000.0001)  ploadbar=  1.01072547695481E+05
 cg2d: Sum(rhs),rhsMax =  -4.58370179709865E+01  1.41262424932896E+00
(PID.TID 0000.0001)  ploadbar=  1.01072756816636E+05
 cg2d: Sum(rhs),rhsMax =  -4.58136981977852E+01  1.41349050251511E+00
(PID.TID 0000.0001)  ploadbar=  1.01072965937790E+05
 cg2d: Sum(rhs),rhsMax =  -4.58493099531902E+01  1.41254888382883E+00
(PID.TID 0000.0001)  ploadbar=  1.01073175058944E+05
 cg2d: Sum(rhs),rhsMax =  -4.59342989865699E+01  1.41009469214622E+00
(PID.TID 0000.0001)  ploadbar=  1.01073384180098E+05
 cg2d: Sum(rhs),rhsMax =  -4.60578165352150E+01  1.40646952883550E+00
(PID.TID 0000.0001)  ploadbar=  1.01073593301253E+05
 cg2d: Sum(rhs),rhsMax =  -4.61947945359271E+01  1.40239915438120E+00
(PID.TID 0000.0001)  ploadbar=  1.01074275660696E+05
 cg2d: Sum(rhs),rhsMax =  -4.63711180109126E+01  1.39710796625340E+00
(PID.TID 0000.0001)  ploadbar=  1.01074958020140E+05
 cg2d: Sum(rhs),rhsMax =  -4.65843065584340E+01  1.39069487405310E+00
(PID.TID 0000.0001)  ploadbar=  1.01075640379583E+05
 cg2d: Sum(rhs),rhsMax =  -4.68216333849338E+01  1.38356430818851E+00
(PID.TID 0000.0001)  ploadbar=  1.01076322739027E+05
 cg2d: Sum(rhs),rhsMax =  -4.70992910813851E+01  1.37526605501579E+00
(PID.TID 0000.0001)  ploadbar=  1.01077005098470E+05
 cg2d: Sum(rhs),rhsMax =  -4.58527726836909E+01  1.41244416937511E+00
(PID.TID 0000.0001)  ploadbar=  1.01077687457914E+05
 cg2d: Sum(rhs),rhsMax =  -4.42587739875150E+01  1.46319129060333E+00
(PID.TID 0000.0001)  ploadbar=  1.01077970783535E+05
 cg2d: Sum(rhs),rhsMax =  -4.26637446828943E+01  1.51785975543540E+00
(PID.TID 0000.0001)  ploadbar=  1.01078254109156E+05
 cg2d: Sum(rhs),rhsMax =  -4.15493290691492E+01  1.55862776908486E+00
(PID.TID 0000.0001)  ploadbar=  1.01078537434777E+05
 cg2d: Sum(rhs),rhsMax =  -4.06984710990424E+01  1.59136404895788E+00
(PID.TID 0000.0001)  ploadbar=  1.01078820760398E+05
 cg2d: Sum(rhs),rhsMax =  -4.00847620976678E+01  1.61597575064165E+00
(PID.TID 0000.0001)  ploadbar=  1.01079104086019E+05
 cg2d: Sum(rhs),rhsMax =  -3.96290831605448E+01  1.63490047321112E+00
(PID.TID 0000.0001)  ploadbar=  1.01079387411640E+05
 cg2d: Sum(rhs),rhsMax =  -3.92586871057942E+01  1.65068662791098E+00
(PID.TID 0000.0001)  ploadbar=  1.01079803834281E+05
 cg2d: Sum(rhs),rhsMax =  -3.88869341950017E+01  1.66684281961067E+00
(PID.TID 0000.0001)  ploadbar=  1.01080220256923E+05
 cg2d: Sum(rhs),rhsMax =  -3.85248449489926E+01  1.68289100522721E+00
(PID.TID 0000.0001)  ploadbar=  1.01080636679564E+05
 cg2d: Sum(rhs),rhsMax =  -3.81962467729423E+01  1.69774775411504E+00
(PID.TID 0000.0001)  ploadbar=  1.01081053102205E+05
 cg2d: Sum(rhs),rhsMax =  -3.79168906987918E+01  1.71062857682320E+00
(PID.TID 0000.0001)  ploadbar=  1.01081469524846E+05
 cg2d: Sum(rhs),rhsMax =  -3.77028722642254E+01  1.72070346045835E+00
(PID.TID 0000.0001)  ploadbar=  1.01081885947487E+05
 cg2d: Sum(rhs),rhsMax =  -3.75411255555444E+01  1.72853364213167E+00
(PID.TID 0000.0001)  ploadbar=  1.01081120790955E+05
 cg2d: Sum(rhs),rhsMax =  -3.76752278476455E+01  1.72284160689203E+00
(PID.TID 0000.0001)  ploadbar=  1.01080355634423E+05
 cg2d: Sum(rhs),rhsMax =  -3.79167872991277E+01  1.71235992467404E+00
(PID.TID 0000.0001)  ploadbar=  1.01079590477892E+05
 cg2d: Sum(rhs),rhsMax =  -3.81194355884832E+01  1.70377760539567E+00
(PID.TID 0000.0001)  ploadbar=  1.01078825321360E+05
 cg2d: Sum(rhs),rhsMax =  -3.83593543492175E+01  1.69365650771910E+00
(PID.TID 0000.0001)  ploadbar=  1.01078060164828E+05
 cg2d: Sum(rhs),rhsMax =  -3.86096693927896E+01  1.68321677713055E+00
(PID.TID 0000.0001)  ploadbar=  1.01077295008296E+05
 cg2d: Sum(rhs),rhsMax =  -3.88691169661060E+01  1.67242151494345E+00
(PID.TID 0000.0001)  ploadbar=  1.01077553162755E+05
 cg2d: Sum(rhs),rhsMax =  -3.91374792675507E+01  1.66129237121355E+00
(PID.TID 0000.0001)  ploadbar=  1.01077811317213E+05
 cg2d: Sum(rhs),rhsMax =  -3.94122753295141E+01  1.64994736099128E+00
(PID.TID 0000.0001)  ploadbar=  1.01078069471672E+05
 cg2d: Sum(rhs),rhsMax =  -3.96941172834717E+01  1.63836964552517E+00
(PID.TID 0000.0001)  ploadbar=  1.01078327626130E+05
 cg2d: Sum(rhs),rhsMax =  -3.99794806008830E+01  1.62671401114922E+00
(PID.TID 0000.0001)  ploadbar=  1.01078585780589E+05
 cg2d: Sum(rhs),rhsMax =  -4.02639964312805E+01  1.61516185588347E+00
(PID.TID 0000.0001)  ploadbar=  1.01078843935047E+05
 cg2d: Sum(rhs),rhsMax =  -4.05447611031386E+01  1.60402884706330E+00
(PID.TID 0000.0001)  ploadbar=  1.01079433724395E+05
 cg2d: Sum(rhs),rhsMax =  -4.08172802459451E+01  1.59347281385091E+00
(PID.TID 0000.0001)  ploadbar=  1.01080023513742E+05
 cg2d: Sum(rhs),rhsMax =  -4.10768439353855E+01  1.58364986643927E+00
(PID.TID 0000.0001)  ploadbar=  1.01080613303090E+05
 cg2d: Sum(rhs),rhsMax =  -4.13231163403852E+01  1.57454338090750E+00
(PID.TID 0000.0001)  ploadbar=  1.01081203092438E+05
 cg2d: Sum(rhs),rhsMax =  -4.15598948782539E+01  1.56598757420532E+00
(PID.TID 0000.0001)  ploadbar=  1.01081792881785E+05
 cg2d: Sum(rhs),rhsMax =  -4.17893870373468E+01  1.55788470382179E+00
(PID.TID 0000.0001)  ploadbar=  1.01082382671133E+05
 cg2d: Sum(rhs),rhsMax =  -4.20250163000490E+01  1.54963592487175E+00
(PID.TID 0000.0001)  ploadbar=  1.01082695315896E+05
 cg2d: Sum(rhs),rhsMax =  -4.22647039396968E+01  1.54131559853790E+00
(PID.TID 0000.0001)  ploadbar=  1.01083007960659E+05
 cg2d: Sum(rhs),rhsMax =  -4.25030181536893E+01  1.53311372956439E+00
(PID.TID 0000.0001)  ploadbar=  1.01083320605423E+05
 cg2d: Sum(rhs),rhsMax =  -4.27457884115957E+01  1.52481283970088E+00
(PID.TID 0000.0001)  ploadbar=  1.01083633250186E+05
 cg2d: Sum(rhs),rhsMax =  -4.29876521286519E+01  1.51660476925735E+00
(PID.TID 0000.0001)  ploadbar=  1.01083945894949E+05
 cg2d: Sum(rhs),rhsMax =  -4.32141348191270E+01  1.50899278620897E+00
(PID.TID 0000.0001)  ploadbar=  1.01084258539713E+05
 cg2d: Sum(rhs),rhsMax =  -4.34329618696949E+01  1.50179271460211E+00
(PID.TID 0000.0001)  ploadbar=  1.01083360084891E+05
 cg2d: Sum(rhs),rhsMax =  -4.36484735299792E+01  1.49484161791775E+00
(PID.TID 0000.0001)  ploadbar=  1.01082461630070E+05
 cg2d: Sum(rhs),rhsMax =  -4.38586854611434E+01  1.48819216389310E+00
(PID.TID 0000.0001)  ploadbar=  1.01081563175248E+05
 cg2d: Sum(rhs),rhsMax =  -4.40607227316877E+01  1.48191896949569E+00
(PID.TID 0000.0001)  ploadbar=  1.01080664720426E+05
 cg2d: Sum(rhs),rhsMax =  -4.42553876642402E+01  1.47597890271848E+00
(PID.TID 0000.0001)  ploadbar=  1.01079766265605E+05
 cg2d: Sum(rhs),rhsMax =  -4.44434525737681E+01  1.47033134692107E+00
(PID.TID 0000.0001)  ploadbar=  1.01078867810783E+05
 cg2d: Sum(rhs),rhsMax =  -4.46234978388910E+01  1.46491524765827E+00
(PID.TID 0000.0001)  ploadbar=  1.01078046442995E+05
 cg2d: Sum(rhs),rhsMax =  -4.47942427410888E+01  1.45976557389475E+00
(PID.TID 0000.0001)  ploadbar=  1.01077225075208E+05
 cg2d: Sum(rhs),rhsMax =  -4.49527617017472E+01  1.45496942071602E+00
(PID.TID 0000.0001)  ploadbar=  1.01076403707420E+05
 cg2d: Sum(rhs),rhsMax =  -4.50969786162139E+01  1.45058576629778E+00
(PID.TID 0000.0001)  ploadbar=  1.01075582339632E+05
 cg2d: Sum(rhs),rhsMax =  -4.52278929911703E+01  1.44657462121573E+00
(PID.TID 0000.0001)  ploadbar=  1.01074760971845E+05
 cg2d: Sum(rhs),rhsMax =  -4.53459663381477E+01  1.44291488666834E+00
(PID.TID 0000.0001)  ploadbar=  1.01073939604057E+05
 cg2d: Sum(rhs),rhsMax =  -4.54211383567679E+01  1.44067113866769E+00
(PID.TID 0000.0001)  ploadbar=  1.01074144409993E+05
 cg2d: Sum(rhs),rhsMax =  -4.54859817514328E+01  1.43879252474874E+00
(PID.TID 0000.0001)  ploadbar=  1.01074349215928E+05
 cg2d: Sum(rhs),rhsMax =  -4.55380444450929E+01  1.43734438278443E+00
(PID.TID 0000.0001)  ploadbar=  1.01074554021864E+05
 cg2d: Sum(rhs),rhsMax =  -4.55752569716735E+01  1.43638687003132E+00
(PID.TID 0000.0001)  ploadbar=  1.01074758827799E+05
 cg2d: Sum(rhs),rhsMax =  -4.55991773280901E+01  1.43586878753758E+00
(PID.TID 0000.0001)  ploadbar=  1.01074963633735E+05
 cg2d: Sum(rhs),rhsMax =  -4.56095894790479E+01  1.43579516782459E+00
(PID.TID 0000.0001)  ploadbar=  1.01075168439670E+05
 cg2d: Sum(rhs),rhsMax =  -4.55877662667217E+01  1.43668832136180E+00
(PID.TID 0000.0001)  ploadbar=  1.01075171212820E+05
 cg2d: Sum(rhs),rhsMax =  -4.55544796913745E+01  1.43789075631144E+00
(PID.TID 0000.0001)  ploadbar=  1.01075173985970E+05
 cg2d: Sum(rhs),rhsMax =  -4.55073146973560E+01  1.43947162089483E+00
(PID.TID 0000.0001)  ploadbar=  1.01075176759120E+05
 cg2d: Sum(rhs),rhsMax =  -4.54391769071730E+01  1.44165258431663E+00
(PID.TID 0000.0001)  ploadbar=  1.01075179532270E+05
 cg2d: Sum(rhs),rhsMax =  -4.53466022805594E+01  1.44454616963795E+00
(PID.TID 0000.0001)  ploadbar=  1.01075182305420E+05
 cg2d: Sum(rhs),rhsMax =  -4.52277258882941E+01  1.44821897234512E+00
(PID.TID 0000.0001)  ploadbar=  1.01075185078570E+05
 cg2d: Sum(rhs),rhsMax =  -4.50428101561033E+01  1.45409848720771E+00
(PID.TID 0000.0001)  ploadbar=  1.01074697220188E+05
 cg2d: Sum(rhs),rhsMax =  -4.48395942973244E+01  1.46067919567888E+00
(PID.TID 0000.0001)  ploadbar=  1.01074209361806E+05
 cg2d: Sum(rhs),rhsMax =  -4.46242243056515E+01  1.46776828069186E+00
(PID.TID 0000.0001)  ploadbar=  1.01073721503424E+05
 cg2d: Sum(rhs),rhsMax =  -4.44043093692922E+01  1.47511372239094E+00
(PID.TID 0000.0001)  ploadbar=  1.01073233645042E+05
 cg2d: Sum(rhs),rhsMax =  -4.41889054404090E+01  1.48240547751316E+00
(PID.TID 0000.0001)  ploadbar=  1.01072745786659E+05
 cg2d: Sum(rhs),rhsMax =  -4.39936896080965E+01  1.48910668472186E+00
(PID.TID 0000.0001)  ploadbar=  1.01072257928277E+05
 cg2d: Sum(rhs),rhsMax =  -4.38494280491648E+01  1.49409523408124E+00
(PID.TID 0000.0001)  ploadbar=  1.01072215795796E+05
 cg2d: Sum(rhs),rhsMax =  -4.37560459867451E+01  1.49733842788797E+00
(PID.TID 0000.0001)  ploadbar=  1.01072173663315E+05
 cg2d: Sum(rhs),rhsMax =  -4.37150860703056E+01  1.49875951212991E+00
(PID.TID 0000.0001)  ploadbar=  1.01072131530834E+05
 cg2d: Sum(rhs),rhsMax =  -4.37133360190685E+01  1.49879857171903E+00
(PID.TID 0000.0001)  ploadbar=  1.01072089398353E+05
 cg2d: Sum(rhs),rhsMax =  -4.37326889488538E+01  1.49807413178192E+00
(PID.TID 0000.0001)  ploadbar=  1.01072047265872E+05
 cg2d: Sum(rhs),rhsMax =  -4.37621523260314E+01  1.49696439287163E+00
(PID.TID 0000.0001)  ploadbar=  1.01072005133390E+05
 cg2d: Sum(rhs),rhsMax =  -4.38567097645123E+01  1.49370465266611E+00
(PID.TID 0000.0001)  ploadbar=  1.01071854020955E+05
 cg2d: Sum(rhs),rhsMax =  -4.39611034219634E+01  1.49018901912114E+00
(PID.TID 0000.0001)  ploadbar=  1.01071702908519E+05
 cg2d: Sum(rhs),rhsMax =  -4.40666393169080E+01  1.48670743913200E+00
(PID.TID 0000.0001)  ploadbar=  1.01071551796083E+05
 cg2d: Sum(rhs),rhsMax =  -4.41768811226163E+01  1.48313459709085E+00
(PID.TID 0000.0001)  ploadbar=  1.01071400683647E+05
 cg2d: Sum(rhs),rhsMax =  -4.42999111198647E+01  1.47920171891764E+00
(PID.TID 0000.0001)  ploadbar=  1.01071249571211E+05
 cg2d: Sum(rhs),rhsMax =  -4.44380600630448E+01  1.47483857230728E+00
(PID.TID 0000.0001)  ploadbar=  1.01071098458776E+05
 cg2d: Sum(rhs),rhsMax =  -4.45713852886745E+01  1.47065304325394E+00
(PID.TID 0000.0001)  ploadbar=  1.01070616010841E+05
 cg2d: Sum(rhs),rhsMax =  -4.47145209608598E+01  1.46615886124040E+00
(PID.TID 0000.0001)  ploadbar=  1.01070133562907E+05
 cg2d: Sum(rhs),rhsMax =  -4.48620566918519E+01  1.46153229527088E+00
(PID.TID 0000.0001)  ploadbar=  1.01069651114972E+05
 cg2d: Sum(rhs),rhsMax =  -4.50228628909752E+01  1.45648119743722E+00
(PID.TID 0000.0001)  ploadbar=  1.01069168667038E+05
 cg2d: Sum(rhs),rhsMax =  -4.51944186084341E+01  1.45109267188215E+00
(PID.TID 0000.0001)  ploadbar=  1.01068686219104E+05
 cg2d: Sum(rhs),rhsMax =  -4.53751299223736E+01  1.44542542479880E+00
(PID.TID 0000.0001)  ploadbar=  1.01068203771169E+05
 cg2d: Sum(rhs),rhsMax =  -4.55528553537003E+01  1.43992839710915E+00
(PID.TID 0000.0001)  ploadbar=  1.01067889600660E+05
 cg2d: Sum(rhs),rhsMax =  -4.57478617729140E+01  1.43396161903962E+00
(PID.TID 0000.0001)  ploadbar=  1.01067575430150E+05
 cg2d: Sum(rhs),rhsMax =  -4.59705219234432E+01  1.42720673164159E+00
(PID.TID 0000.0001)  ploadbar=  1.01067261259640E+05
 cg2d: Sum(rhs),rhsMax =  -4.62249932836448E+01  1.41955126432367E+00
(PID.TID 0000.0001)  ploadbar=  1.01066947089130E+05
 cg2d: Sum(rhs),rhsMax =  -4.65130449275609E+01  1.41096810235925E+00
(PID.TID 0000.0001)  ploadbar=  1.01066632918621E+05
 cg2d: Sum(rhs),rhsMax =  -4.68423618880291E+01  1.40125805367479E+00
(PID.TID 0000.0001)  ploadbar=  1.01066318748111E+05
 cg2d: Sum(rhs),rhsMax =  -4.71876119663606E+01  1.39115421193947E+00
(PID.TID 0000.0001)  ploadbar=  1.01066523597464E+05
 cg2d: Sum(rhs),rhsMax =  -4.75878294292355E+01  1.37953943660514E+00
(PID.TID 0000.0001)  ploadbar=  1.01066728446818E+05
 cg2d: Sum(rhs),rhsMax =  -4.80655280440765E+01  1.36585180150741E+00
(PID.TID 0000.0001)  ploadbar=  1.01066933296171E+05
 cg2d: Sum(rhs),rhsMax =  -4.86253382300876E+01  1.35009186528901E+00
(PID.TID 0000.0001)  ploadbar=  1.01067138145524E+05
 cg2d: Sum(rhs),rhsMax =  -4.92847983372381E+01  1.33193473078890E+00
(PID.TID 0000.0001)  ploadbar=  1.01067342994877E+05
 cg2d: Sum(rhs),rhsMax =  -5.00656066620549E+01  1.31101445635588E+00
(PID.TID 0000.0001)  ploadbar=  1.01067547844231E+05
 cg2d: Sum(rhs),rhsMax =  -5.09646289190576E+01  1.28779940336533E+00
(PID.TID 0000.0001)  ploadbar=  1.01066804910001E+05
 cg2d: Sum(rhs),rhsMax =  -5.19813999688258E+01  1.26257560416010E+00
(PID.TID 0000.0001)  ploadbar=  1.01066061975771E+05
 cg2d: Sum(rhs),rhsMax =  -5.31412474404522E+01  1.23503169936056E+00
(PID.TID 0000.0001)  ploadbar=  1.01065319041542E+05
 cg2d: Sum(rhs),rhsMax =  -5.44339186743750E+01  1.20575367459373E+00
(PID.TID 0000.0001)  ploadbar=  1.01064576107312E+05
 cg2d: Sum(rhs),rhsMax =  -5.36128529860622E+01  1.22430540339220E+00
(PID.TID 0000.0001)  ploadbar=  1.01063833173083E+05
 cg2d: Sum(rhs),rhsMax =  -5.24741236631715E+01  1.25099598628339E+00
(PID.TID 0000.0001)  ploadbar=  1.01063090238853E+05
 cg2d: Sum(rhs),rhsMax =  -5.13943971332774E+01  1.27738680605505E+00
(PID.TID 0000.0001)  ploadbar=  1.01063379898394E+05
 cg2d: Sum(rhs),rhsMax =  -5.03745618978284E+01  1.30333895513759E+00
(PID.TID 0000.0001)  ploadbar=  1.01063669557936E+05
 cg2d: Sum(rhs),rhsMax =  -4.94336088522988E+01  1.32821026111012E+00
(PID.TID 0000.0001)  ploadbar=  1.01063959217477E+05
 cg2d: Sum(rhs),rhsMax =  -4.85703835555666E+01  1.35184560948714E+00
(PID.TID 0000.0001)  ploadbar=  1.01064248877018E+05
 cg2d: Sum(rhs),rhsMax =  -4.77790565236962E+01  1.37423066588126E+00
(PID.TID 0000.0001)  ploadbar=  1.01064538536560E+05
 cg2d: Sum(rhs),rhsMax =  -4.70502679023252E+01  1.39548037970963E+00
(PID.TID 0000.0001)  ploadbar=  1.01064828196101E+05
 cg2d: Sum(rhs),rhsMax =  -4.63885618923877E+01  1.41536909372458E+00
(PID.TID 0000.0001)  ploadbar=  1.01065356269236E+05
 cg2d: Sum(rhs),rhsMax =  -4.57697991977373E+01  1.43449868234077E+00
(PID.TID 0000.0001)  ploadbar=  1.01065884342370E+05
 cg2d: Sum(rhs),rhsMax =  -4.51910536309726E+01  1.45286501055683E+00
(PID.TID 0000.0001)  ploadbar=  1.01066412415505E+05
 cg2d: Sum(rhs),rhsMax =  -4.46517644078286E+01  1.47039744245070E+00
(PID.TID 0000.0001)  ploadbar=  1.01066940488639E+05
 cg2d: Sum(rhs),rhsMax =  -4.41527892462639E+01  1.48698772486071E+00
(PID.TID 0000.0001)  ploadbar=  1.01067468561774E+05
 cg2d: Sum(rhs),rhsMax =  -4.36966457216493E+01  1.50246948905144E+00
(PID.TID 0000.0001)  ploadbar=  1.01067996634908E+05
 cg2d: Sum(rhs),rhsMax =  -4.32804084094365E+01  1.51684255238935E+00
(PID.TID 0000.0001)  ploadbar=  1.01069738467390E+05
 cg2d: Sum(rhs),rhsMax =  -4.29113945666859E+01  1.52976770947572E+00
(PID.TID 0000.0001)  ploadbar=  1.01071480299873E+05
 cg2d: Sum(rhs),rhsMax =  -4.25765802148319E+01  1.54163222351699E+00
(PID.TID 0000.0001)  ploadbar=  1.01073222132355E+05
 cg2d: Sum(rhs),rhsMax =  -4.22766934490871E+01  1.55235427715731E+00
(PID.TID 0000.0001)  ploadbar=  1.01074963964837E+05
 cg2d: Sum(rhs),rhsMax =  -4.20065774618178E+01  1.56207473199626E+00
(PID.TID 0000.0001)  ploadbar=  1.01076705797319E+05
 cg2d: Sum(rhs),rhsMax =  -4.17686465137235E+01  1.57066021050070E+00
(PID.TID 0000.0001)  ploadbar=  1.01078447629801E+05
 cg2d: Sum(rhs),rhsMax =  -4.15300686260172E+01  1.57950094090219E+00
(PID.TID 0000.0001)  ploadbar=  1.01080620880506E+05
 cg2d: Sum(rhs),rhsMax =  -4.13015342243054E+01  1.58818988326912E+00
(PID.TID 0000.0001)  ploadbar=  1.01082794131211E+05
 cg2d: Sum(rhs),rhsMax =  -4.10793954453716E+01  1.59685648135059E+00
(PID.TID 0000.0001)  ploadbar=  1.01084967381915E+05
 cg2d: Sum(rhs),rhsMax =  -4.08683138573506E+01  1.60530457840334E+00
(PID.TID 0000.0001)  ploadbar=  1.01087140632620E+05
 cg2d: Sum(rhs),rhsMax =  -4.06775139405558E+01  1.61314768402243E+00
(PID.TID 0000.0001)  ploadbar=  1.01089313883325E+05
 cg2d: Sum(rhs),rhsMax =  -4.05146750876160E+01  1.62005691706356E+00
(PID.TID 0000.0001)  ploadbar=  1.01091487134029E+05
 cg2d: Sum(rhs),rhsMax =  -4.03693780333732E+01  1.62625456991575E+00
(PID.TID 0000.0001)  ploadbar=  1.01093559835072E+05
 cg2d: Sum(rhs),rhsMax =  -4.02421353835765E+01  1.63169440033319E+00
(PID.TID 0000.0001)  ploadbar=  1.01095632536115E+05
 cg2d: Sum(rhs),rhsMax =  -4.01252021648003E+01  1.63667721797622E+00
(PID.TID 0000.0001)  ploadbar=  1.01097705237158E+05
 cg2d: Sum(rhs),rhsMax =  -4.00133473024567E+01  1.64140644773663E+00
(PID.TID 0000.0001)  ploadbar=  1.01099777938200E+05
 cg2d: Sum(rhs),rhsMax =  -3.99079720664795E+01  1.64582100264568E+00
(PID.TID 0000.0001)  ploadbar=  1.01101850639243E+05
 cg2d: Sum(rhs),rhsMax =  -3.97974983305770E+01  1.65039276627081E+00
(PID.TID 0000.0001)  ploadbar=  1.01103923340286E+05
 cg2d: Sum(rhs),rhsMax =  -3.96587527033926E+01  1.65622548933078E+00
(PID.TID 0000.0001)  ploadbar=  1.01105917522678E+05
 cg2d: Sum(rhs),rhsMax =  -3.95018389237746E+01  1.66290927673214E+00
(PID.TID 0000.0001)  ploadbar=  1.01107911705070E+05
 cg2d: Sum(rhs),rhsMax =  -3.93218966273336E+01  1.67065569236959E+00
(PID.TID 0000.0001)  ploadbar=  1.01109905887462E+05
 cg2d: Sum(rhs),rhsMax =  -3.91201896100672E+01  1.67943224576510E+00
(PID.TID 0000.0001)  ploadbar=  1.01111900069854E+05
 cg2d: Sum(rhs),rhsMax =  -3.88997919962839E+01  1.68912838998389E+00
(PID.TID 0000.0001)  ploadbar=  1.01113894252246E+05
 cg2d: Sum(rhs),rhsMax =  -3.86650828149159E+01  1.69957334678614E+00
(PID.TID 0000.0001)  ploadbar=  1.01115888434637E+05
 cg2d: Sum(rhs),rhsMax =  -3.84027056386107E+01  1.71130492236914E+00
(PID.TID 0000.0001)  ploadbar=  1.01118159780462E+05
 cg2d: Sum(rhs),rhsMax =  -3.81091593893958E+01  1.72452992819922E+00
(PID.TID 0000.0001)  ploadbar=  1.01120431126287E+05
 cg2d: Sum(rhs),rhsMax =  -3.77891520656987E+01  1.73909483473300E+00
(PID.TID 0000.0001)  ploadbar=  1.01122702472113E+05
 cg2d: Sum(rhs),rhsMax =  -3.74422623281413E+01  1.75508404884563E+00
(PID.TID 0000.0001)  ploadbar=  1.01124973817938E+05
 cg2d: Sum(rhs),rhsMax =  -3.70694665512531E+01  1.77251922123776E+00
(PID.TID 0000.0001)  ploadbar=  1.01127245163763E+05
 cg2d: Sum(rhs),rhsMax =  -3.66735413243588E+01  1.79134403968173E+00
(PID.TID 0000.0001)  ploadbar=  1.01129516509588E+05
 cg2d: Sum(rhs),rhsMax =  -3.62312170424921E+01  1.81299812873518E+00
(PID.TID 0000.0001)  ploadbar=  1.01130659557137E+05
 cg2d: Sum(rhs),rhsMax =  -3.57593303049240E+01  1.83680336102122E+00
(PID.TID 0000.0001)  ploadbar=  1.01131802604686E+05
 cg2d: Sum(rhs),rhsMax =  -3.52771028940349E+01  1.86188362212999E+00
(PID.TID 0000.0001)  ploadbar=  1.01132945652235E+05
 cg2d: Sum(rhs),rhsMax =  -3.48031761379155E+01  1.88728469115549E+00
(PID.TID 0000.0001)  ploadbar=  1.01134088699784E+05
 cg2d: Sum(rhs),rhsMax =  -3.43631212631005E+01  1.91156944747717E+00
(PID.TID 0000.0001)  ploadbar=  1.01135231747333E+05
 cg2d: Sum(rhs),rhsMax =  -3.39816431350130E+01  1.93321157500706E+00
(PID.TID 0000.0001)  ploadbar=  1.01136374794883E+05
 cg2d: Sum(rhs),rhsMax =  -3.37098373183291E+01  1.94893167783914E+00
(PID.TID 0000.0001)  ploadbar=  1.01137932159011E+05
 cg2d: Sum(rhs),rhsMax =  -3.35615106038567E+01  1.95762229304662E+00
(PID.TID 0000.0001)  ploadbar=  1.01139489523139E+05
 cg2d: Sum(rhs),rhsMax =  -3.35528604106621E+01  1.95814810430177E+00
(PID.TID 0000.0001)  ploadbar=  1.01141046887267E+05
 cg2d: Sum(rhs),rhsMax =  -3.36775846281552E+01  1.95086006459431E+00
(PID.TID 0000.0001)  ploadbar=  1.01142604251395E+05
 cg2d: Sum(rhs),rhsMax =  -3.39279566779192E+01  1.93636963374893E+00
(PID.TID 0000.0001)  ploadbar=  1.01144161615524E+05
 cg2d: Sum(rhs),rhsMax =  -3.42936160490654E+01  1.91557671883244E+00
(PID.TID 0000.0001)  ploadbar=  1.01145718979652E+05
 cg2d: Sum(rhs),rhsMax =  -3.47601351619475E+01  1.88978195846127E+00
(PID.TID 0000.0001)  ploadbar=  1.01146384758125E+05
 cg2d: Sum(rhs),rhsMax =  -3.53241526552123E+01  1.85955589012207E+00
(PID.TID 0000.0001)  ploadbar=  1.01147050536597E+05
 cg2d: Sum(rhs),rhsMax =  -3.59879709196023E+01  1.82521663590606E+00
(PID.TID 0000.0001)  ploadbar=  1.01147716315070E+05
 cg2d: Sum(rhs),rhsMax =  -3.67589604140509E+01  1.78690362512459E+00
(PID.TID 0000.0001)  ploadbar=  1.01148382093543E+05
 cg2d: Sum(rhs),rhsMax =  -3.76382660959582E+01  1.74512612625212E+00
(PID.TID 0000.0001)  ploadbar=  1.01149047872016E+05
 cg2d: Sum(rhs),rhsMax =  -3.86166341067043E+01  1.70087811044722E+00
(PID.TID 0000.0001)  ploadbar=  1.01149713650489E+05
 cg2d: Sum(rhs),rhsMax =  -3.96947723273168E+01  1.65459569248126E+00
(PID.TID 0000.0001)  ploadbar=  1.01149938498112E+05
 cg2d: Sum(rhs),rhsMax =  -4.08580094238949E+01  1.60735164770967E+00
(PID.TID 0000.0001)  ploadbar=  1.01150163345735E+05
 cg2d: Sum(rhs),rhsMax =  -4.20827990539147E+01  1.56038017270581E+00
(PID.TID 0000.0001)  ploadbar=  1.01150388193358E+05
 cg2d: Sum(rhs),rhsMax =  -4.33594908595127E+01  1.51419022540555E+00
(PID.TID 0000.0001)  ploadbar=  1.01150613040981E+05
 cg2d: Sum(rhs),rhsMax =  -4.46749227164605E+01  1.46930124494440E+00
(PID.TID 0000.0001)  ploadbar=  1.01150837888604E+05
 cg2d: Sum(rhs),rhsMax =  -4.60134570014991E+01  1.42619775254540E+00
(PID.TID 0000.0001)  ploadbar=  1.01151062736228E+05
 cg2d: Sum(rhs),rhsMax =  -4.73864327247292E+01  1.38458082334201E+00
(PID.TID 0000.0001)  ploadbar=  1.01151058725650E+05
 cg2d: Sum(rhs),rhsMax =  -4.89855509130218E+01  1.33914850303805E+00
(PID.TID 0000.0001)  ploadbar=  1.01151054715073E+05
 cg2d: Sum(rhs),rhsMax =  -5.10065740903369E+01  1.28590743984784E+00
(PID.TID 0000.0001)  ploadbar=  1.01151050704496E+05
 cg2d: Sum(rhs),rhsMax =  -5.34940287873688E+01  1.22597975016499E+00
(PID.TID 0000.0001)  ploadbar=  1.01151046693919E+05
 cg2d: Sum(rhs),rhsMax =  -5.63879775898579E+01  1.16296148128091E+00
(PID.TID 0000.0001)  ploadbar=  1.01151042683342E+05
 cg2d: Sum(rhs),rhsMax =  -5.96586981413290E+01  1.09913113570458E+00
(PID.TID 0000.0001)  ploadbar=  1.01151038672765E+05
 cg2d: Sum(rhs),rhsMax =  -6.29891215459268E+01  1.04095059440242E+00
(PID.TID 0000.0001)  ploadbar=  1.01151425596515E+05
 cg2d: Sum(rhs),rhsMax =  -6.03598413808109E+01  1.08622417366700E+00
(PID.TID 0000.0001)  ploadbar=  1.01151812520265E+05
 cg2d: Sum(rhs),rhsMax =  -5.88640742389804E+01  1.11374898522129E+00
(PID.TID 0000.0001)  ploadbar=  1.01152199444016E+05
 cg2d: Sum(rhs),rhsMax =  -5.79565474571401E+01  1.13110349039960E+00
(PID.TID 0000.0001)  ploadbar=  1.01152586367766E+05
 cg2d: Sum(rhs),rhsMax =  -5.72691342709863E+01  1.14458434330690E+00
(PID.TID 0000.0001)  ploadbar=  1.01152973291516E+05
 cg2d: Sum(rhs),rhsMax =  -5.66381916385898E+01  1.15722586595749E+00
(PID.TID 0000.0001)  ploadbar=  1.01153360215266E+05
 cg2d: Sum(rhs),rhsMax =  -5.60064130395307E+01  1.17020563220691E+00
(PID.TID 0000.0001)  ploadbar=  1.01152903098197E+05
 cg2d: Sum(rhs),rhsMax =  -5.53926652593656E+01  1.18311959473940E+00
(PID.TID 0000.0001)  ploadbar=  1.01152445981128E+05
 cg2d: Sum(rhs),rhsMax =  -5.47966331128494E+01  1.19595633356902E+00
(PID.TID 0000.0001)  ploadbar=  1.01151988864059E+05
 cg2d: Sum(rhs),rhsMax =  -5.42209036193110E+01  1.20863901998451E+00
(PID.TID 0000.0001)  ploadbar=  1.01151531746990E+05
 cg2d: Sum(rhs),rhsMax =  -5.36665946729384E+01  1.22111997039756E+00
(PID.TID 0000.0001)  ploadbar=  1.01151074629921E+05
 cg2d: Sum(rhs),rhsMax =  -5.31647768539664E+01  1.23265317625778E+00
(PID.TID 0000.0001)  ploadbar=  1.01150617512851E+05
 cg2d: Sum(rhs),rhsMax =  -5.27585041241733E+01  1.24211265092753E+00
(PID.TID 0000.0001)  ploadbar=  1.01150405509316E+05
 cg2d: Sum(rhs),rhsMax =  -5.24026692616054E+01  1.25047125094410E+00
(PID.TID 0000.0001)  ploadbar=  1.01150193505780E+05
 cg2d: Sum(rhs),rhsMax =  -5.21455187424874E+01  1.25651774251723E+00
(PID.TID 0000.0001)  ploadbar=  1.01149981502245E+05
 cg2d: Sum(rhs),rhsMax =  -5.20546327156176E+01  1.25854027533129E+00
(PID.TID 0000.0001)  ploadbar=  1.01149769498709E+05
 cg2d: Sum(rhs),rhsMax =  -5.20649665813940E+01  1.25806614708743E+00
(PID.TID 0000.0001)  ploadbar=  1.01149557495173E+05
 cg2d: Sum(rhs),rhsMax =  -5.21121884343633E+01  1.25664921616536E+00
(PID.TID 0000.0001)  ploadbar=  1.01149345491638E+05
 cg2d: Sum(rhs),rhsMax =  -5.19531013751184E+01  1.26032752037802E+00
(PID.TID 0000.0001)  ploadbar=  1.01148151061403E+05
 cg2d: Sum(rhs),rhsMax =  -5.15152867676414E+01  1.27097291752089E+00
(PID.TID 0000.0001)  ploadbar=  1.01146956631168E+05
 cg2d: Sum(rhs),rhsMax =  -5.07948611098266E+01  1.28903665173695E+00
(PID.TID 0000.0001)  ploadbar=  1.01145762200933E+05
 cg2d: Sum(rhs),rhsMax =  -4.99230495517441E+01  1.31169189148880E+00
(PID.TID 0000.0001)  ploadbar=  1.01144567770698E+05
 cg2d: Sum(rhs),rhsMax =  -4.86093759178364E+01  1.34739755471076E+00
(PID.TID 0000.0001)  ploadbar=  1.01143373340463E+05
 cg2d: Sum(rhs),rhsMax =  -4.73143203443372E+01  1.38464600108454E+00
(PID.TID 0000.0001)  ploadbar=  1.01142178910229E+05
 cg2d: Sum(rhs),rhsMax =  -4.59385376175798E+01  1.42644238607484E+00
(PID.TID 0000.0001)  ploadbar=  1.01141401859692E+05
 cg2d: Sum(rhs),rhsMax =  -4.45479986178089E+01  1.47125046994926E+00
(PID.TID 0000.0001)  ploadbar=  1.01140624809155E+05
 cg2d: Sum(rhs),rhsMax =  -4.31751686500667E+01  1.51826241116184E+00
(PID.TID 0000.0001)  ploadbar=  1.01139847758618E+05
 cg2d: Sum(rhs),rhsMax =  -4.18232053663411E+01  1.56751195451163E+00
(PID.TID 0000.0001)  ploadbar=  1.01139070708081E+05
 cg2d: Sum(rhs),rhsMax =  -4.05126510600580E+01  1.61832175365479E+00
(PID.TID 0000.0001)  ploadbar=  1.01138293657544E+05
 cg2d: Sum(rhs),rhsMax =  -3.92541550970939E+01  1.67023053843606E+00
(PID.TID 0000.0001)  ploadbar=  1.01137516607007E+05
 cg2d: Sum(rhs),rhsMax =  -3.80134586426094E+01  1.72477586987067E+00
(PID.TID 0000.0001)  ploadbar=  1.01136493715836E+05
 cg2d: Sum(rhs),rhsMax =  -3.67798615287629E+01  1.78265366925592E+00
(PID.TID 0000.0001)  ploadbar=  1.01135470824665E+05
 cg2d: Sum(rhs),rhsMax =  -3.56283123640793E+01  1.84029087850228E+00
(PID.TID 0000.0001)  ploadbar=  1.01134447933494E+05
 cg2d: Sum(rhs),rhsMax =  -3.45582458920728E+01  1.89727917130910E+00
(PID.TID 0000.0001)  ploadbar=  1.01133425042324E+05
 cg2d: Sum(rhs),rhsMax =  -3.35486926829967E+01  1.95435789191801E+00
(PID.TID 0000.0001)  ploadbar=  1.01132402151153E+05
 cg2d: Sum(rhs),rhsMax =  -3.25916213469636E+01  2.01170545662976E+00
(PID.TID 0000.0001)  ploadbar=  1.01131379259982E+05
 cg2d: Sum(rhs),rhsMax =  -3.16887234357276E+01  2.06888472419687E+00
(PID.TID 0000.0001)  ploadbar=  1.01131016250265E+05
 cg2d: Sum(rhs),rhsMax =  -3.08444933088722E+01  2.12526413064217E+00
(PID.TID 0000.0001)  ploadbar=  1.01130653240549E+05
 cg2d: Sum(rhs),rhsMax =  -3.00651963095521E+01  2.17998622615739E+00
(PID.TID 0000.0001)  ploadbar=  1.01130290230832E+05
 cg2d: Sum(rhs),rhsMax =  -2.93515147795220E+01  2.23250171302394E+00
(PID.TID 0000.0001)  ploadbar=  1.01129927221115E+05
 cg2d: Sum(rhs),rhsMax =  -2.87016234288803E+01  2.28243014884515E+00
(PID.TID 0000.0001)  ploadbar=  1.01129564211398E+05
 cg2d: Sum(rhs),rhsMax =  -2.81113448308982E+01  2.32959725908300E+00
(PID.TID 0000.0001)  ploadbar=  1.01129201201681E+05
 cg2d: Sum(rhs),rhsMax =  -2.75742981853584E+01  2.37435516115741E+00
(PID.TID 0000.0001)  ploadbar=  1.01129176840250E+05
 cg2d: Sum(rhs),rhsMax =  -2.70870978467009E+01  2.41659523614262E+00
(PID.TID 0000.0001)  ploadbar=  1.01129152478819E+05
 cg2d: Sum(rhs),rhsMax =  -2.66484437479686E+01  2.45605686732817E+00
(PID.TID 0000.0001)  ploadbar=  1.01129128117388E+05
 cg2d: Sum(rhs),rhsMax =  -2.62560121889799E+01  2.49259634643900E+00
(PID.TID 0000.0001)  ploadbar=  1.01129103755956E+05
 cg2d: Sum(rhs),rhsMax =  -2.59236355666662E+01  2.52453128941879E+00
(PID.TID 0000.0001)  ploadbar=  1.01129079394525E+05
 cg2d: Sum(rhs),rhsMax =  -2.56419876755883E+01  2.55238144204544E+00
(PID.TID 0000.0001)  ploadbar=  1.01129055033094E+05
 cg2d: Sum(rhs),rhsMax =  -2.54117700044465E+01  2.57567126556745E+00
(PID.TID 0000.0001)  ploadbar=  1.01128435533051E+05
 cg2d: Sum(rhs),rhsMax =  -2.52242114036045E+01  2.59501565875653E+00
(PID.TID 0000.0001)  ploadbar=  1.01127816033008E+05
 cg2d: Sum(rhs),rhsMax =  -2.50649132199430E+01  2.61171156270968E+00
(PID.TID 0000.0001)  ploadbar=  1.01127196532965E+05
 cg2d: Sum(rhs),rhsMax =  -2.49147876921274E+01  2.62765238924639E+00
(PID.TID 0000.0001)  ploadbar=  1.01126577032922E+05
 cg2d: Sum(rhs),rhsMax =  -2.47790358562224E+01  2.64224351113015E+00
(PID.TID 0000.0001)  ploadbar=  1.01125957532880E+05
 cg2d: Sum(rhs),rhsMax =  -2.46578232897634E+01  2.65541403462970E+00
(PID.TID 0000.0001)  ploadbar=  1.01125338032837E+05
 cg2d: Sum(rhs),rhsMax =  -2.45556670227722E+01  2.66659271314767E+00
(PID.TID 0000.0001)  ploadbar=  1.01123930954953E+05
 cg2d: Sum(rhs),rhsMax =  -2.44711384580328E+01  2.67587387088054E+00
(PID.TID 0000.0001)  ploadbar=  1.01122523877070E+05
 cg2d: Sum(rhs),rhsMax =  -2.44014987281223E+01  2.68351137353988E+00
(PID.TID 0000.0001)  ploadbar=  1.01121116799187E+05
 cg2d: Sum(rhs),rhsMax =  -2.43431657393344E+01  2.68986658827798E+00
(PID.TID 0000.0001)  ploadbar=  1.01119709721303E+05
 cg2d: Sum(rhs),rhsMax =  -2.42938040215213E+01  2.69517431472551E+00
(PID.TID 0000.0001)  ploadbar=  1.01118302643420E+05
 cg2d: Sum(rhs),rhsMax =  -2.42509477049893E+01  2.69968576437590E+00
(PID.TID 0000.0001)  ploadbar=  1.01116895565537E+05
 cg2d: Sum(rhs),rhsMax =  -2.42046395702698E+01  2.70454883903283E+00
(PID.TID 0000.0001)  ploadbar=  1.01115522792191E+05
 cg2d: Sum(rhs),rhsMax =  -2.41598996881496E+01  2.70920043252286E+00
(PID.TID 0000.0001)  ploadbar=  1.01114150018846E+05
 cg2d: Sum(rhs),rhsMax =  -2.41243323531569E+01  2.71277667194457E+00
(PID.TID 0000.0001)  ploadbar=  1.01112777245501E+05
 cg2d: Sum(rhs),rhsMax =  -2.41037209626710E+01  2.71461678733611E+00
(PID.TID 0000.0001)  ploadbar=  1.01111404472156E+05
 cg2d: Sum(rhs),rhsMax =  -2.41018239332050E+01  2.71428537722969E+00
(PID.TID 0000.0001)  ploadbar=  1.01110031698811E+05
 cg2d: Sum(rhs),rhsMax =  -2.41164633515062E+01  2.71202341140879E+00
(PID.TID 0000.0001)  ploadbar=  1.01108658925465E+05
 cg2d: Sum(rhs),rhsMax =  -2.41507771443536E+01  2.70781522651952E+00
(PID.TID 0000.0001)  ploadbar=  1.01107490639403E+05
 cg2d: Sum(rhs),rhsMax =  -2.42015031002234E+01  2.70203448123154E+00
(PID.TID 0000.0001)  ploadbar=  1.01106322353341E+05
 cg2d: Sum(rhs),rhsMax =  -2.42670841048039E+01  2.69486704400150E+00
(PID.TID 0000.0001)  ploadbar=  1.01105154067278E+05
 cg2d: Sum(rhs),rhsMax =  -2.43458655540511E+01  2.68650481421370E+00
(PID.TID 0000.0001)  ploadbar=  1.01103985781216E+05
 cg2d: Sum(rhs),rhsMax =  -2.44358942811250E+01  2.67717889942860E+00
(PID.TID 0000.0001)  ploadbar=  1.01102817495154E+05
 cg2d: Sum(rhs),rhsMax =  -2.45354270270484E+01  2.66709676162818E+00
(PID.TID 0000.0001)  ploadbar=  1.01101649209091E+05
 cg2d: Sum(rhs),rhsMax =  -2.46392040505217E+01  2.65663840489474E+00
(PID.TID 0000.0001)  ploadbar=  1.01100497555610E+05
 cg2d: Sum(rhs),rhsMax =  -2.47462043037270E+01  2.64590954473273E+00
(PID.TID 0000.0001)  ploadbar=  1.01099345902128E+05
 cg2d: Sum(rhs),rhsMax =  -2.48561726801196E+01  2.63493526024634E+00
(PID.TID 0000.0001)  ploadbar=  1.01098194248647E+05
 cg2d: Sum(rhs),rhsMax =  -2.49698238363700E+01  2.62364723804436E+00
(PID.TID 0000.0001)  ploadbar=  1.01097042595166E+05
 cg2d: Sum(rhs),rhsMax =  -2.50872331163159E+01  2.61204373520579E+00
(PID.TID 0000.0001)  ploadbar=  1.01095890941684E+05
 cg2d: Sum(rhs),rhsMax =  -2.52084031481750E+01  2.60013024558008E+00
(PID.TID 0000.0001)  ploadbar=  1.01094739288203E+05
 cg2d: Sum(rhs),rhsMax =  -2.53378429235182E+01  2.58751742946179E+00
(PID.TID 0000.0001)  ploadbar=  1.01093022608513E+05
 cg2d: Sum(rhs),rhsMax =  -2.54702394087043E+01  2.57475185146168E+00
(PID.TID 0000.0001)  ploadbar=  1.01091305928823E+05
 cg2d: Sum(rhs),rhsMax =  -2.56048220052378E+01  2.56190729702317E+00
(PID.TID 0000.0001)  ploadbar=  1.01089589249133E+05
 cg2d: Sum(rhs),rhsMax =  -2.57403037223992E+01  2.54911016731949E+00
(PID.TID 0000.0001)  ploadbar=  1.01087872569443E+05
 cg2d: Sum(rhs),rhsMax =  -2.58759603879630E+01  2.53642853760595E+00
(PID.TID 0000.0001)  ploadbar=  1.01086155889754E+05
 cg2d: Sum(rhs),rhsMax =  -2.60090287846439E+01  2.52411763980011E+00
(PID.TID 0000.0001)  ploadbar=  1.01084439210064E+05
 cg2d: Sum(rhs),rhsMax =  -2.61313994174340E+01  2.51288427943925E+00
(PID.TID 0000.0001)  ploadbar=  1.01084061144732E+05
 cg2d: Sum(rhs),rhsMax =  -2.62446412961658E+01  2.50254472362049E+00
(PID.TID 0000.0001)  ploadbar=  1.01083683079401E+05
 cg2d: Sum(rhs),rhsMax =  -2.63505132362251E+01  2.49290337657210E+00
(PID.TID 0000.0001)  ploadbar=  1.01083305014070E+05
 cg2d: Sum(rhs),rhsMax =  -2.64537164650267E+01  2.48350199561081E+00
(PID.TID 0000.0001)  ploadbar=  1.01082926948738E+05
 cg2d: Sum(rhs),rhsMax =  -2.65550050794974E+01  2.47425807949485E+00
(PID.TID 0000.0001)  ploadbar=  1.01082548883407E+05
 cg2d: Sum(rhs),rhsMax =  -2.66537407607776E+01  2.46522367831182E+00
(PID.TID 0000.0001)  ploadbar=  1.01082170818075E+05
 cg2d: Sum(rhs),rhsMax =  -2.67582878663980E+01  2.45588090807952E+00
(PID.TID 0000.0001)  ploadbar=  1.01081397867251E+05
 cg2d: Sum(rhs),rhsMax =  -2.68703106218725E+01  2.44608303007233E+00
(PID.TID 0000.0001)  ploadbar=  1.01080624916427E+05
 cg2d: Sum(rhs),rhsMax =  -2.69882389219833E+01  2.43597973117610E+00
(PID.TID 0000.0001)  ploadbar=  1.01079851965602E+05
 cg2d: Sum(rhs),rhsMax =  -2.71112291044708E+01  2.42564804182101E+00
(PID.TID 0000.0001)  ploadbar=  1.01079079014778E+05
 cg2d: Sum(rhs),rhsMax =  -2.72385942951458E+01  2.41514780110816E+00
(PID.TID 0000.0001)  ploadbar=  1.01078306063954E+05
 cg2d: Sum(rhs),rhsMax =  -2.73699025919927E+01  2.40451345412901E+00
(PID.TID 0000.0001)  ploadbar=  1.01077533113129E+05
 cg2d: Sum(rhs),rhsMax =  -2.75001133298943E+01  2.39399962098175E+00
(PID.TID 0000.0001)  ploadbar=  1.01077195217701E+05
 cg2d: Sum(rhs),rhsMax =  -2.76286815204408E+01  2.38364131643763E+00
(PID.TID 0000.0001)  ploadbar=  1.01076857322273E+05
 cg2d: Sum(rhs),rhsMax =  -2.77577652713169E+01  2.37324730485138E+00
(PID.TID 0000.0001)  ploadbar=  1.01076519426845E+05
 cg2d: Sum(rhs),rhsMax =  -2.78852024147307E+01  2.36299711801719E+00
(PID.TID 0000.0001)  ploadbar=  1.01076181531416E+05
 cg2d: Sum(rhs),rhsMax =  -2.80108755862885E+01  2.35289357569824E+00
(PID.TID 0000.0001)  ploadbar=  1.01075843635988E+05
 cg2d: Sum(rhs),rhsMax =  -2.81347523516442E+01  2.34293312151449E+00
(PID.TID 0000.0001)  ploadbar=  1.01075505740560E+05
 cg2d: Sum(rhs),rhsMax =  -2.82577556570764E+01  2.33314876846639E+00
(PID.TID 0000.0001)  ploadbar=  1.01074733860763E+05
 cg2d: Sum(rhs),rhsMax =  -2.83784552761727E+01  2.32363895517720E+00
(PID.TID 0000.0001)  ploadbar=  1.01073961980966E+05
 cg2d: Sum(rhs),rhsMax =  -2.84983863860068E+01  2.31426579161407E+00
(PID.TID 0000.0001)  ploadbar=  1.01073190101169E+05
 cg2d: Sum(rhs),rhsMax =  -2.86180390539264E+01  2.30498594640400E+00
(PID.TID 0000.0001)  ploadbar=  1.01072418221371E+05
 cg2d: Sum(rhs),rhsMax =  -2.87382015126209E+01  2.29573047373709E+00
(PID.TID 0000.0001)  ploadbar=  1.01071646341574E+05
 cg2d: Sum(rhs),rhsMax =  -2.88596099193257E+01  2.28643517465395E+00
(PID.TID 0000.0001)  ploadbar=  1.01070874461777E+05
 cg2d: Sum(rhs),rhsMax =  -2.89815936644154E+01  2.27712747543814E+00
(PID.TID 0000.0001)  ploadbar=  1.01071143684117E+05
 cg2d: Sum(rhs),rhsMax =  -2.91039855724838E+01  2.26781135094222E+00
(PID.TID 0000.0001)  ploadbar=  1.01071412906457E+05
 cg2d: Sum(rhs),rhsMax =  -2.92269159021469E+01  2.25846923245659E+00
(PID.TID 0000.0001)  ploadbar=  1.01071682128797E+05
 cg2d: Sum(rhs),rhsMax =  -2.93504791358174E+01  2.24908882543561E+00
(PID.TID 0000.0001)  ploadbar=  1.01071951351136E+05
 cg2d: Sum(rhs),rhsMax =  -2.94746292722802E+01  2.23967314913468E+00
(PID.TID 0000.0001)  ploadbar=  1.01072220573476E+05
 cg2d: Sum(rhs),rhsMax =  -2.95999883246929E+01  2.23017214039244E+00
(PID.TID 0000.0001)  ploadbar=  1.01072489795816E+05
 cg2d: Sum(rhs),rhsMax =  -2.97318787568164E+01  2.22035633967907E+00
(PID.TID 0000.0001)  ploadbar=  1.01071474444831E+05
 cg2d: Sum(rhs),rhsMax =  -2.98684119756912E+01  2.21036963701314E+00
(PID.TID 0000.0001)  ploadbar=  1.01070459093845E+05
 cg2d: Sum(rhs),rhsMax =  -3.00093009215615E+01  2.20023004829577E+00
(PID.TID 0000.0001)  ploadbar=  1.01069443742860E+05
 cg2d: Sum(rhs),rhsMax =  -3.01544732939675E+01  2.18994517059567E+00
(PID.TID 0000.0001)  ploadbar=  1.01068428391875E+05
 cg2d: Sum(rhs),rhsMax =  -3.03032883575557E+01  2.17956401210077E+00
(PID.TID 0000.0001)  ploadbar=  1.01067413040889E+05
 cg2d: Sum(rhs),rhsMax =  -3.04555460224982E+01  2.16910430330449E+00
(PID.TID 0000.0001)  ploadbar=  1.01066397689904E+05
 cg2d: Sum(rhs),rhsMax =  -3.06093727714060E+01  2.15860039330262E+00
(PID.TID 0000.0001)  ploadbar=  1.01066324645351E+05
 cg2d: Sum(rhs),rhsMax =  -3.07637157092274E+01  2.14811621423070E+00
(PID.TID 0000.0001)  ploadbar=  1.01066251600798E+05
 cg2d: Sum(rhs),rhsMax =  -3.09163262823763E+01  2.13779851307455E+00
(PID.TID 0000.0001)  ploadbar=  1.01066178556244E+05
 cg2d: Sum(rhs),rhsMax =  -3.10666685407661E+01  2.12767054165744E+00
(PID.TID 0000.0001)  ploadbar=  1.01066105511691E+05
 cg2d: Sum(rhs),rhsMax =  -3.12147536470482E+01  2.11772144077555E+00
(PID.TID 0000.0001)  ploadbar=  1.01066032467138E+05
 cg2d: Sum(rhs),rhsMax =  -3.13605555748340E+01  2.10794424772692E+00
(PID.TID 0000.0001)  ploadbar=  1.01065959422585E+05
 cg2d: Sum(rhs),rhsMax =  -3.15052880528667E+01  2.09838278651316E+00
(PID.TID 0000.0001)  ploadbar=  1.01064580700647E+05
 cg2d: Sum(rhs),rhsMax =  -3.16482495408245E+01  2.08907195131001E+00
(PID.TID 0000.0001)  ploadbar=  1.01063201978709E+05
 cg2d: Sum(rhs),rhsMax =  -3.17865648893382E+01  2.08018623332041E+00
(PID.TID 0000.0001)  ploadbar=  1.01061823256771E+05
 cg2d: Sum(rhs),rhsMax =  -3.19196275311164E+01  2.07174728439209E+00
(PID.TID 0000.0001)  ploadbar=  1.01060444534833E+05
 cg2d: Sum(rhs),rhsMax =  -3.20468751896197E+01  2.06377704371185E+00
(PID.TID 0000.0001)  ploadbar=  1.01059065812896E+05
 cg2d: Sum(rhs),rhsMax =  -3.21670876580375E+01  2.05633614168108E+00
(PID.TID 0000.0001)  ploadbar=  1.01057687090958E+05
 cg2d: Sum(rhs),rhsMax =  -3.22800846646136E+01  2.04933721727596E+00
(PID.TID 0000.0001)  ploadbar=  1.01057266102706E+05
 cg2d: Sum(rhs),rhsMax =  -3.23894153525290E+01  2.04254124920924E+00
(PID.TID 0000.0001)  ploadbar=  1.01056845114454E+05
 cg2d: Sum(rhs),rhsMax =  -3.24940566497982E+01  2.03599769140429E+00
(PID.TID 0000.0001)  ploadbar=  1.01056424126202E+05
 cg2d: Sum(rhs),rhsMax =  -3.25933378972609E+01  2.02973179496481E+00
(PID.TID 0000.0001)  ploadbar=  1.01056003137950E+05
 cg2d: Sum(rhs),rhsMax =  -3.26873847879094E+01  2.02372354247357E+00
(PID.TID 0000.0001)  ploadbar=  1.01055582149698E+05
 cg2d: Sum(rhs),rhsMax =  -3.27758935849786E+01  2.01797958891465E+00
(PID.TID 0000.0001)  ploadbar=  1.01055161161446E+05
 cg2d: Sum(rhs),rhsMax =  -3.28612159993989E+01  2.01256281666867E+00
(PID.TID 0000.0001)  ploadbar=  1.01055209394536E+05
 cg2d: Sum(rhs),rhsMax =  -3.29457877729748E+01  2.00731739341284E+00
(PID.TID 0000.0001)  ploadbar=  1.01055257627626E+05
 cg2d: Sum(rhs),rhsMax =  -3.30309823499036E+01  2.00215240512851E+00
(PID.TID 0000.0001)  ploadbar=  1.01055305860716E+05
 cg2d: Sum(rhs),rhsMax =  -3.31162686504323E+01  1.99709095498161E+00
(PID.TID 0000.0001)  ploadbar=  1.01055354093807E+05
 cg2d: Sum(rhs),rhsMax =  -3.32013193207045E+01  1.99213981692109E+00
(PID.TID 0000.0001)  ploadbar=  1.01055402326897E+05
 cg2d: Sum(rhs),rhsMax =  -3.32859805316087E+01  1.98730662330647E+00
(PID.TID 0000.0001)  ploadbar=  1.01055450559987E+05
 cg2d: Sum(rhs),rhsMax =  -3.33668568326427E+01  1.98266138456285E+00
(PID.TID 0000.0001)  ploadbar=  1.01056212725166E+05
 cg2d: Sum(rhs),rhsMax =  -3.34439762918295E+01  1.97818814762380E+00
(PID.TID 0000.0001)  ploadbar=  1.01056974890345E+05
 cg2d: Sum(rhs),rhsMax =  -3.35200536885347E+01  1.97372055794733E+00
(PID.TID 0000.0001)  ploadbar=  1.01057737055524E+05
 cg2d: Sum(rhs),rhsMax =  -3.35956099920100E+01  1.96922344833083E+00
(PID.TID 0000.0001)  ploadbar=  1.01058499220702E+05
 cg2d: Sum(rhs),rhsMax =  -3.36700964930755E+01  1.96472441210140E+00
(PID.TID 0000.0001)  ploadbar=  1.01059261385881E+05
 cg2d: Sum(rhs),rhsMax =  -3.37432713131110E+01  1.96023596914902E+00
(PID.TID 0000.0001)  ploadbar=  1.01060023551060E+05
 cg2d: Sum(rhs),rhsMax =  -3.38160987058311E+01  1.95584159444170E+00
(PID.TID 0000.0001)  ploadbar=  1.01060578095882E+05
 cg2d: Sum(rhs),rhsMax =  -3.38857075139824E+01  1.95168962767582E+00
(PID.TID 0000.0001)  ploadbar=  1.01061132640703E+05
 cg2d: Sum(rhs),rhsMax =  -3.39543060381839E+01  1.94764098565494E+00
(PID.TID 0000.0001)  ploadbar=  1.01061687185524E+05
 cg2d: Sum(rhs),rhsMax =  -3.40229992149942E+01  1.94362473769983E+00
(PID.TID 0000.0001)  ploadbar=  1.01062241730345E+05
 cg2d: Sum(rhs),rhsMax =  -3.40930914034923E+01  1.93955952923800E+00
(PID.TID 0000.0001)  ploadbar=  1.01062796275166E+05
 cg2d: Sum(rhs),rhsMax =  -3.41662871176060E+01  1.93534309891537E+00
(PID.TID 0000.0001)  ploadbar=  1.01063350819987E+05
 cg2d: Sum(rhs),rhsMax =  -3.42442777247780E+01  1.93082329797696E+00
(PID.TID 0000.0001)  ploadbar=  1.01064709760665E+05
 cg2d: Sum(rhs),rhsMax =  -3.43253822402444E+01  1.92609209161156E+00
(PID.TID 0000.0001)  ploadbar=  1.01066068701343E+05
 cg2d: Sum(rhs),rhsMax =  -3.44074211119480E+01  1.92127065442997E+00
(PID.TID 0000.0001)  ploadbar=  1.01067427642020E+05
 cg2d: Sum(rhs),rhsMax =  -3.44898285547266E+01  1.91638664026956E+00
(PID.TID 0000.0001)  ploadbar=  1.01068786582698E+05
 cg2d: Sum(rhs),rhsMax =  -3.45719586390068E+01  1.91146985381058E+00
(PID.TID 0000.0001)  ploadbar=  1.01070145523376E+05
 cg2d: Sum(rhs),rhsMax =  -3.46533528811121E+01  1.90654305429362E+00
(PID.TID 0000.0001)  ploadbar=  1.01071504464053E+05
 cg2d: Sum(rhs),rhsMax =  -3.47388980654669E+01  1.90150344600469E+00
(PID.TID 0000.0001)  ploadbar=  1.01072855019812E+05
 cg2d: Sum(rhs),rhsMax =  -3.48312895101361E+01  1.89620328160923E+00
(PID.TID 0000.0001)  ploadbar=  1.01074205575570E+05
 cg2d: Sum(rhs),rhsMax =  -3.49306429293114E+01  1.89063636294068E+00
(PID.TID 0000.0001)  ploadbar=  1.01075556131328E+05
 cg2d: Sum(rhs),rhsMax =  -3.50368418134523E+01  1.88480867176676E+00
(PID.TID 0000.0001)  ploadbar=  1.01076906687086E+05
 cg2d: Sum(rhs),rhsMax =  -3.51494225426819E+01  1.87874385259188E+00
(PID.TID 0000.0001)  ploadbar=  1.01078257242845E+05
 cg2d: Sum(rhs),rhsMax =  -3.52673480403091E+01  1.87249459739981E+00
(PID.TID 0000.0001)  ploadbar=  1.01079607798603E+05
 cg2d: Sum(rhs),rhsMax =  -3.53844166383789E+01  1.86630739177336E+00
(PID.TID 0000.0001)  ploadbar=  1.01081336288599E+05
 cg2d: Sum(rhs),rhsMax =  -3.54974469587760E+01  1.86034154686615E+00
(PID.TID 0000.0001)  ploadbar=  1.01083064778595E+05
 cg2d: Sum(rhs),rhsMax =  -3.56059385360467E+01  1.85461243047791E+00
(PID.TID 0000.0001)  ploadbar=  1.01084793268592E+05
 cg2d: Sum(rhs),rhsMax =  -3.57111036919620E+01  1.84905217893563E+00
(PID.TID 0000.0001)  ploadbar=  1.01086521758588E+05
 cg2d: Sum(rhs),rhsMax =  -3.58142729711360E+01  1.84359381260815E+00
(PID.TID 0000.0001)  ploadbar=  1.01088250248584E+05
 cg2d: Sum(rhs),rhsMax =  -3.59165974756001E+01  1.83818259766021E+00
(PID.TID 0000.0001)  ploadbar=  1.01089978738580E+05
 cg2d: Sum(rhs),rhsMax =  -3.60231860390012E+01  1.83262438561785E+00
(PID.TID 0000.0001)  ploadbar=  1.01089476385510E+05
 cg2d: Sum(rhs),rhsMax =  -3.61315012871662E+01  1.82703783384151E+00
(PID.TID 0000.0001)  ploadbar=  1.01088974032440E+05
 cg2d: Sum(rhs),rhsMax =  -3.62409457122670E+01  1.82145050839113E+00
(PID.TID 0000.0001)  ploadbar=  1.01088471679369E+05
 cg2d: Sum(rhs),rhsMax =  -3.63506126060392E+01  1.81590517772019E+00
(PID.TID 0000.0001)  ploadbar=  1.01087969326299E+05
 cg2d: Sum(rhs),rhsMax =  -3.64591343760796E+01  1.81046607501882E+00
(PID.TID 0000.0001)  ploadbar=  1.01087466973229E+05
 cg2d: Sum(rhs),rhsMax =  -3.65649278204008E+01  1.80520410795761E+00
(PID.TID 0000.0001)  ploadbar=  1.01086964620158E+05
 cg2d: Sum(rhs),rhsMax =  -3.66693343464088E+01  1.79998465144769E+00
(PID.TID 0000.0001)  ploadbar=  1.01087797054935E+05
 cg2d: Sum(rhs),rhsMax =  -3.67687271827400E+01  1.79498396952696E+00
(PID.TID 0000.0001)  ploadbar=  1.01088629489712E+05
 cg2d: Sum(rhs),rhsMax =  -3.68613648184447E+01  1.79028205018745E+00
(PID.TID 0000.0001)  ploadbar=  1.01089461924488E+05
 cg2d: Sum(rhs),rhsMax =  -3.69471273709146E+01  1.78587231964432E+00
(PID.TID 0000.0001)  ploadbar=  1.01090294359265E+05
 cg2d: Sum(rhs),rhsMax =  -3.70260509772068E+01  1.78174053066290E+00
(PID.TID 0000.0001)  ploadbar=  1.01091126794042E+05
 cg2d: Sum(rhs),rhsMax =  -3.70978575127126E+01  1.77789149912323E+00
(PID.TID 0000.0001)  ploadbar=  1.01091959228818E+05
 cg2d: Sum(rhs),rhsMax =  -3.71625020956771E+01  1.77451257561549E+00
(PID.TID 0000.0001)  ploadbar=  1.01091890843754E+05
 cg2d: Sum(rhs),rhsMax =  -3.72265042081799E+01  1.77128628106594E+00
(PID.TID 0000.0001)  ploadbar=  1.01091822458689E+05
 cg2d: Sum(rhs),rhsMax =  -3.72900157039115E+01  1.76819889549202E+00
(PID.TID 0000.0001)  ploadbar=  1.01091754073624E+05
 cg2d: Sum(rhs),rhsMax =  -3.73533728741885E+01  1.76522532721302E+00
(PID.TID 0000.0001)  ploadbar=  1.01091685688559E+05
 cg2d: Sum(rhs),rhsMax =  -3.74172863303667E+01  1.76232302337357E+00
(PID.TID 0000.0001)  ploadbar=  1.01091617303495E+05
 cg2d: Sum(rhs),rhsMax =  -3.74817772339581E+01  1.75948194192313E+00
(PID.TID 0000.0001)  ploadbar=  1.01091548918430E+05
 cg2d: Sum(rhs),rhsMax =  -3.75428136814330E+01  1.75681497200102E+00
(PID.TID 0000.0001)  ploadbar=  1.01091938409811E+05
 cg2d: Sum(rhs),rhsMax =  -3.76024229675667E+01  1.75421806951135E+00
(PID.TID 0000.0001)  ploadbar=  1.01092327901192E+05
 cg2d: Sum(rhs),rhsMax =  -3.76609987717676E+01  1.75166492179574E+00
(PID.TID 0000.0001)  ploadbar=  1.01092717392573E+05
 cg2d: Sum(rhs),rhsMax =  -3.77179960864594E+01  1.74917679031543E+00
(PID.TID 0000.0001)  ploadbar=  1.01093106883955E+05
 cg2d: Sum(rhs),rhsMax =  -3.77731974394484E+01  1.74676249077688E+00
(PID.TID 0000.0001)  ploadbar=  1.01093496375336E+05
 cg2d: Sum(rhs),rhsMax =  -3.78268059284674E+01  1.74441227968720E+00
(PID.TID 0000.0001)  ploadbar=  1.01093885866717E+05
 cg2d: Sum(rhs),rhsMax =  -3.78794571226393E+01  1.74215310917085E+00
(PID.TID 0000.0001)  ploadbar=  1.01094386738022E+05
 cg2d: Sum(rhs),rhsMax =  -3.79308466224800E+01  1.73998723794272E+00
(PID.TID 0000.0001)  ploadbar=  1.01094887609327E+05
 cg2d: Sum(rhs),rhsMax =  -3.79814513359700E+01  1.73788725914902E+00
(PID.TID 0000.0001)  ploadbar=  1.01095388480632E+05
 cg2d: Sum(rhs),rhsMax =  -3.80316680760091E+01  1.73582644914870E+00
(PID.TID 0000.0001)  ploadbar=  1.01095889351937E+05
 cg2d: Sum(rhs),rhsMax =  -3.80814205107960E+01  1.73380122317221E+00
(PID.TID 0000.0001)  ploadbar=  1.01096390223242E+05
 cg2d: Sum(rhs),rhsMax =  -3.81307352063103E+01  1.73180478663809E+00
(PID.TID 0000.0001)  ploadbar=  1.01096891094547E+05
 cg2d: Sum(rhs),rhsMax =  -3.81805424816293E+01  1.72975051532305E+00
(PID.TID 0000.0001)  ploadbar=  1.01097140132972E+05
 cg2d: Sum(rhs),rhsMax =  -3.82287480790278E+01  1.72773078099768E+00
(PID.TID 0000.0001)  ploadbar=  1.01097389171397E+05
 cg2d: Sum(rhs),rhsMax =  -3.82759005195027E+01  1.72571700522615E+00
(PID.TID 0000.0001)  ploadbar=  1.01097638209822E+05
 cg2d: Sum(rhs),rhsMax =  -3.83215070912024E+01  1.72372437905987E+00
(PID.TID 0000.0001)  ploadbar=  1.01097887248247E+05
 cg2d: Sum(rhs),rhsMax =  -3.83653617251684E+01  1.72175209523807E+00
(PID.TID 0000.0001)  ploadbar=  1.01098136286672E+05
 cg2d: Sum(rhs),rhsMax =  -3.84077586705938E+01  1.71978174046950E+00
(PID.TID 0000.0001)  ploadbar=  1.01098385325097E+05
 cg2d: Sum(rhs),rhsMax =  -3.84535537033386E+01  1.71779907613629E+00
(PID.TID 0000.0001)  ploadbar=  1.01098165844847E+05
 cg2d: Sum(rhs),rhsMax =  -3.85033902727509E+01  1.71576699443990E+00
(PID.TID 0000.0001)  ploadbar=  1.01097946364596E+05
 cg2d: Sum(rhs),rhsMax =  -3.85570055949819E+01  1.71368737032448E+00
(PID.TID 0000.0001)  ploadbar=  1.01097726884346E+05
 cg2d: Sum(rhs),rhsMax =  -3.86141512538250E+01  1.71156547744140E+00
(PID.TID 0000.0001)  ploadbar=  1.01097507404096E+05
 cg2d: Sum(rhs),rhsMax =  -3.86752413268169E+01  1.70938133292448E+00
(PID.TID 0000.0001)  ploadbar=  1.01097287923845E+05
 cg2d: Sum(rhs),rhsMax =  -3.87402330572032E+01  1.70713116078478E+00
(PID.TID 0000.0001)  ploadbar=  1.01097068443595E+05
 cg2d: Sum(rhs),rhsMax =  -3.88069752490973E+01  1.70480407397784E+00
(PID.TID 0000.0001)  ploadbar=  1.01096065444107E+05
 cg2d: Sum(rhs),rhsMax =  -3.88752654884000E+01  1.70240383107916E+00
(PID.TID 0000.0001)  ploadbar=  1.01095062444618E+05
 cg2d: Sum(rhs),rhsMax =  -3.89443083381004E+01  1.69996378058521E+00
(PID.TID 0000.0001)  ploadbar=  1.01094059445130E+05
 cg2d: Sum(rhs),rhsMax =  -3.90136048503761E+01  1.69749954459695E+00
(PID.TID 0000.0001)  ploadbar=  1.01093056445642E+05
 cg2d: Sum(rhs),rhsMax =  -3.90827672786663E+01  1.69502517254971E+00
(PID.TID 0000.0001)  ploadbar=  1.01092053446153E+05
 cg2d: Sum(rhs),rhsMax =  -3.91513913711951E+01  1.69255077524798E+00
(PID.TID 0000.0001)  ploadbar=  1.01091050446665E+05
 cg2d: Sum(rhs),rhsMax =  -3.92195309376148E+01  1.69011618438484E+00
(PID.TID 0000.0001)  ploadbar=  1.01088820959095E+05
 cg2d: Sum(rhs),rhsMax =  -3.92890218556740E+01  1.68763531386988E+00
(PID.TID 0000.0001)  ploadbar=  1.01086591471525E+05
 cg2d: Sum(rhs),rhsMax =  -3.93588230747595E+01  1.68514830926949E+00
(PID.TID 0000.0001)  ploadbar=  1.01084361983955E+05
 cg2d: Sum(rhs),rhsMax =  -3.94290193365638E+01  1.68265230858511E+00
(PID.TID 0000.0001)  ploadbar=  1.01082132496385E+05
 cg2d: Sum(rhs),rhsMax =  -3.94998166022860E+01  1.68013851553226E+00
(PID.TID 0000.0001)  ploadbar=  1.01079903008815E+05
 cg2d: Sum(rhs),rhsMax =  -3.95708419745961E+01  1.67761998796677E+00
(PID.TID 0000.0001)  ploadbar=  1.01077673521246E+05
 cg2d: Sum(rhs),rhsMax =  -3.96419876316379E+01  1.67500590217687E+00
(PID.TID 0000.0001)  ploadbar=  1.01077285593536E+05
 cg2d: Sum(rhs),rhsMax =  -3.97105934395040E+01  1.67240637014521E+00
(PID.TID 0000.0001)  ploadbar=  1.01076897665827E+05
 cg2d: Sum(rhs),rhsMax =  -3.97770641750436E+01  1.66979976253917E+00
(PID.TID 0000.0001)  ploadbar=  1.01076509738117E+05
 cg2d: Sum(rhs),rhsMax =  -3.98416246640018E+01  1.66717059369086E+00
(PID.TID 0000.0001)  ploadbar=  1.01076121810408E+05
 cg2d: Sum(rhs),rhsMax =  -3.99038932319682E+01  1.66453144694813E+00
(PID.TID 0000.0001)  ploadbar=  1.01075733882698E+05
 cg2d: Sum(rhs),rhsMax =  -3.99637332446702E+01  1.66188546357522E+00
(PID.TID 0000.0001)  ploadbar=  1.01075345954989E+05
 cg2d: Sum(rhs),rhsMax =  -4.00236602274475E+01  1.65935357632564E+00
(PID.TID 0000.0001)  ploadbar=  1.01076294250372E+05
 cg2d: Sum(rhs),rhsMax =  -4.00851368552193E+01  1.65686428776680E+00
(PID.TID 0000.0001)  ploadbar=  1.01077242545756E+05
 cg2d: Sum(rhs),rhsMax =  -4.01493997853189E+01  1.65436289087296E+00
(PID.TID 0000.0001)  ploadbar=  1.01078190841139E+05
 cg2d: Sum(rhs),rhsMax =  -4.02161329061959E+01  1.65185878596135E+00
(PID.TID 0000.0001)  ploadbar=  1.01079139136523E+05
 cg2d: Sum(rhs),rhsMax =  -4.02850895214414E+01  1.64936104857174E+00
(PID.TID 0000.0001)  ploadbar=  1.01080087431906E+05
 cg2d: Sum(rhs),rhsMax =  -4.03562130674378E+01  1.64687168850863E+00
(PID.TID 0000.0001)  ploadbar=  1.01081035727290E+05
 cg2d: Sum(rhs),rhsMax =  -4.04264770587309E+01  1.64445936772098E+00
(PID.TID 0000.0001)  ploadbar=  1.01082014077240E+05
 cg2d: Sum(rhs),rhsMax =  -4.04961372522953E+01  1.64210350950099E+00
(PID.TID 0000.0001)  ploadbar=  1.01082992427189E+05
 cg2d: Sum(rhs),rhsMax =  -4.05657072471814E+01  1.63977392190202E+00
(PID.TID 0000.0001)  ploadbar=  1.01083970777139E+05
 cg2d: Sum(rhs),rhsMax =  -4.06358357905308E+01  1.63743309043052E+00
(PID.TID 0000.0001)  ploadbar=  1.01084949127089E+05
 cg2d: Sum(rhs),rhsMax =  -4.07065818461380E+01  1.63507543880141E+00
(PID.TID 0000.0001)  ploadbar=  1.01085927477039E+05
 cg2d: Sum(rhs),rhsMax =  -4.07777215325933E+01  1.63270543542533E+00
(PID.TID 0000.0001)  ploadbar=  1.01086905826989E+05
 cg2d: Sum(rhs),rhsMax =  -4.08503412122344E+01  1.63030199201141E+00
(PID.TID 0000.0001)  ploadbar=  1.01086620204680E+05
 cg2d: Sum(rhs),rhsMax =  -4.09229807861996E+01  1.62791865448716E+00
(PID.TID 0000.0001)  ploadbar=  1.01086334582372E+05
 cg2d: Sum(rhs),rhsMax =  -4.09955476385862E+01  1.62555625211889E+00
(PID.TID 0000.0001)  ploadbar=  1.01086048960063E+05
 cg2d: Sum(rhs),rhsMax =  -4.10683490965069E+01  1.62319839433147E+00
(PID.TID 0000.0001)  ploadbar=  1.01085763337754E+05
 cg2d: Sum(rhs),rhsMax =  -4.11418286859717E+01  1.62082547163752E+00
(PID.TID 0000.0001)  ploadbar=  1.01085477715446E+05
 cg2d: Sum(rhs),rhsMax =  -4.12159582570443E+01  1.61843101138664E+00
(PID.TID 0000.0001)  ploadbar=  1.01085192093137E+05
 cg2d: Sum(rhs),rhsMax =  -4.12922505627964E+01  1.61595697109474E+00
(PID.TID 0000.0001)  ploadbar=  1.01086126575123E+05
 cg2d: Sum(rhs),rhsMax =  -4.13701854644724E+01  1.61341881437186E+00
(PID.TID 0000.0001)  ploadbar=  1.01087061057110E+05
 cg2d: Sum(rhs),rhsMax =  -4.14479883701021E+01  1.61088071925368E+00
(PID.TID 0000.0001)  ploadbar=  1.01087995539096E+05
 cg2d: Sum(rhs),rhsMax =  -4.15243376461188E+01  1.60838586425667E+00
(PID.TID 0000.0001)  ploadbar=  1.01088930021082E+05
 cg2d: Sum(rhs),rhsMax =  -4.15991698654917E+01  1.60593108185000E+00
(PID.TID 0000.0001)  ploadbar=  1.01089864503069E+05
 cg2d: Sum(rhs),rhsMax =  -4.16724812971919E+01  1.60351277787852E+00
(PID.TID 0000.0001)  ploadbar=  1.01090798985055E+05
 cg2d: Sum(rhs),rhsMax =  -4.17495530570397E+01  1.60107512685249E+00
(PID.TID 0000.0001)  ploadbar=  1.01091077247148E+05
 cg2d: Sum(rhs),rhsMax =  -4.18301963767428E+01  1.59861703154079E+00
(PID.TID 0000.0001)  ploadbar=  1.01091355509240E+05
 cg2d: Sum(rhs),rhsMax =  -4.19135562248537E+01  1.59617078802942E+00
(PID.TID 0000.0001)  ploadbar=  1.01091633771333E+05
 cg2d: Sum(rhs),rhsMax =  -4.19989277979648E+01  1.59376230506727E+00
(PID.TID 0000.0001)  ploadbar=  1.01091912033426E+05
 cg2d: Sum(rhs),rhsMax =  -4.20859542032972E+01  1.59140195096497E+00
(PID.TID 0000.0001)  ploadbar=  1.01092190295518E+05
 cg2d: Sum(rhs),rhsMax =  -4.21748669211925E+01  1.58907755999286E+00
(PID.TID 0000.0001)  ploadbar=  1.01092468557611E+05
 cg2d: Sum(rhs),rhsMax =  -4.22615182265095E+01  1.58682211499476E+00
(PID.TID 0000.0001)  ploadbar=  1.01092830157831E+05
 cg2d: Sum(rhs),rhsMax =  -4.23469453883179E+01  1.58458815525335E+00
(PID.TID 0000.0001)  ploadbar=  1.01093191758051E+05
 cg2d: Sum(rhs),rhsMax =  -4.24308641314191E+01  1.58237913802897E+00
(PID.TID 0000.0001)  ploadbar=  1.01093553358271E+05
 cg2d: Sum(rhs),rhsMax =  -4.25131859374124E+01  1.58019599264901E+00
(PID.TID 0000.0001)  ploadbar=  1.01093914958491E+05
 cg2d: Sum(rhs),rhsMax =  -4.25938584331416E+01  1.57804058038017E+00
(PID.TID 0000.0001)  ploadbar=  1.01094276558711E+05
 cg2d: Sum(rhs),rhsMax =  -4.26726525169422E+01  1.57591920696149E+00
(PID.TID 0000.0001)  ploadbar=  1.01094638158931E+05
 cg2d: Sum(rhs),rhsMax =  -4.27526345788481E+01  1.57377037018514E+00
(PID.TID 0000.0001)  ploadbar=  1.01094290436834E+05
 cg2d: Sum(rhs),rhsMax =  -4.28319681154319E+01  1.57165699964945E+00
(PID.TID 0000.0001)  ploadbar=  1.01093942714737E+05
 cg2d: Sum(rhs),rhsMax =  -4.29101550426241E+01  1.56959804906396E+00
(PID.TID 0000.0001)  ploadbar=  1.01093594992640E+05
 cg2d: Sum(rhs),rhsMax =  -4.29884745351852E+01  1.56754478885941E+00
(PID.TID 0000.0001)  ploadbar=  1.01093247270543E+05
 cg2d: Sum(rhs),rhsMax =  -4.30672293022155E+01  1.56548790992591E+00
(PID.TID 0000.0001)  ploadbar=  1.01092899548446E+05
 cg2d: Sum(rhs),rhsMax =  -4.31463232474199E+01  1.56343103264280E+00
(PID.TID 0000.0001)  ploadbar=  1.01092551826349E+05
 cg2d: Sum(rhs),rhsMax =  -4.32250139180593E+01  1.56130778942284E+00
(PID.TID 0000.0001)  ploadbar=  1.01092167809785E+05
 cg2d: Sum(rhs),rhsMax =  -4.33036216883425E+01  1.55910028412851E+00
(PID.TID 0000.0001)  ploadbar=  1.01091783793220E+05
 cg2d: Sum(rhs),rhsMax =  -4.33795083355112E+01  1.55689979245297E+00
(PID.TID 0000.0001)  ploadbar=  1.01091399776655E+05
 cg2d: Sum(rhs),rhsMax =  -4.34510875636401E+01  1.55475923982776E+00
(PID.TID 0000.0001)  ploadbar=  1.01091015760090E+05
 cg2d: Sum(rhs),rhsMax =  -4.35171865430268E+01  1.55271561307692E+00
(PID.TID 0000.0001)  ploadbar=  1.01090631743525E+05
 cg2d: Sum(rhs),rhsMax =  -4.35773700964271E+01  1.55078415652603E+00
(PID.TID 0000.0001)  ploadbar=  1.01090247726960E+05
 cg2d: Sum(rhs),rhsMax =  -4.36379436827443E+01  1.54897901694795E+00
(PID.TID 0000.0001)  ploadbar=  1.01087484875857E+05
 cg2d: Sum(rhs),rhsMax =  -4.37016566982851E+01  1.54719456918124E+00
(PID.TID 0000.0001)  ploadbar=  1.01084722024753E+05
 cg2d: Sum(rhs),rhsMax =  -4.37664355413483E+01  1.54550478835795E+00
(PID.TID 0000.0001)  ploadbar=  1.01081959173649E+05
 cg2d: Sum(rhs),rhsMax =  -4.38324426153450E+01  1.54390482893132E+00
(PID.TID 0000.0001)  ploadbar=  1.01079196322546E+05
 cg2d: Sum(rhs),rhsMax =  -4.39003266360382E+01  1.54237331162057E+00
(PID.TID 0000.0001)  ploadbar=  1.01076433471442E+05
 cg2d: Sum(rhs),rhsMax =  -4.39695960820489E+01  1.54092313350293E+00
(PID.TID 0000.0001)  ploadbar=  1.01073670620339E+05
 cg2d: Sum(rhs),rhsMax =  -4.40239820485554E+01  1.53997747666319E+00
(PID.TID 0000.0001)  ploadbar=  1.01072372548199E+05
 cg2d: Sum(rhs),rhsMax =  -4.40725409107765E+01  1.53921207983169E+00
(PID.TID 0000.0001)  ploadbar=  1.01071074476059E+05
 cg2d: Sum(rhs),rhsMax =  -4.41119844797460E+01  1.53874039562154E+00
(PID.TID 0000.0001)  ploadbar=  1.01069776403919E+05
 cg2d: Sum(rhs),rhsMax =  -4.41395471367540E+01  1.53865658016379E+00
(PID.TID 0000.0001)  ploadbar=  1.01068478331779E+05
 cg2d: Sum(rhs),rhsMax =  -4.41560660292244E+01  1.53893037482170E+00
(PID.TID 0000.0001)  ploadbar=  1.01067180259639E+05
 cg2d: Sum(rhs),rhsMax =  -4.41645180190238E+01  1.53945955660417E+00
(PID.TID 0000.0001)  ploadbar=  1.01065882187499E+05
 cg2d: Sum(rhs),rhsMax =  -4.41607621640655E+01  1.54042777124229E+00
(PID.TID 0000.0001)  ploadbar=  1.01064831839690E+05
 cg2d: Sum(rhs),rhsMax =  -4.41546440970880E+01  1.54148779748288E+00
(PID.TID 0000.0001)  ploadbar=  1.01063781491880E+05
 cg2d: Sum(rhs),rhsMax =  -4.41553069971927E+01  1.54232390313660E+00
(PID.TID 0000.0001)  ploadbar=  1.01062731144071E+05
 cg2d: Sum(rhs),rhsMax =  -4.41706435242359E+01  1.54266762802783E+00
(PID.TID 0000.0001)  ploadbar=  1.01061680796262E+05
 cg2d: Sum(rhs),rhsMax =  -4.42054309350769E+01  1.54235432040088E+00
(PID.TID 0000.0001)  ploadbar=  1.01060630448452E+05
 cg2d: Sum(rhs),rhsMax =  -4.42576941973765E+01  1.54146294639285E+00
(PID.TID 0000.0001)  ploadbar=  1.01059580100643E+05
 cg2d: Sum(rhs),rhsMax =  -4.43041102252950E+01  1.54070881580730E+00
(PID.TID 0000.0001)  ploadbar=  1.01058288647696E+05
 cg2d: Sum(rhs),rhsMax =  -4.43332348227278E+01  1.54048546959587E+00
(PID.TID 0000.0001)  ploadbar=  1.01056997194750E+05
 cg2d: Sum(rhs),rhsMax =  -4.43496781712486E+01  1.54063129329034E+00
(PID.TID 0000.0001)  ploadbar=  1.01055705741803E+05
 cg2d: Sum(rhs),rhsMax =  -4.43552803628553E+01  1.54107844505227E+00
(PID.TID 0000.0001)  ploadbar=  1.01054414288856E+05
 cg2d: Sum(rhs),rhsMax =  -4.43536979742468E+01  1.54169938016442E+00
(PID.TID 0000.0001)  ploadbar=  1.01053122835910E+05
 cg2d: Sum(rhs),rhsMax =  -4.43492069468114E+01  1.54234680382041E+00
(PID.TID 0000.0001)  ploadbar=  1.01051831382963E+05
 cg2d: Sum(rhs),rhsMax =  -4.43406387713923E+01  1.54315705568643E+00
(PID.TID 0000.0001)  ploadbar=  1.01050410014458E+05
 cg2d: Sum(rhs),rhsMax =  -4.43234815384129E+01  1.54428789559105E+00
(PID.TID 0000.0001)  ploadbar=  1.01048988645952E+05
 cg2d: Sum(rhs),rhsMax =  -4.43155990878554E+01  1.54511840014621E+00
(PID.TID 0000.0001)  ploadbar=  1.01047567277446E+05
 cg2d: Sum(rhs),rhsMax =  -4.42896912731686E+01  1.54660386001930E+00
(PID.TID 0000.0001)  ploadbar=  1.01046145908941E+05
 cg2d: Sum(rhs),rhsMax =  -4.42473717127591E+01  1.54869454177716E+00
(PID.TID 0000.0001)  ploadbar=  1.01044724540435E+05
 cg2d: Sum(rhs),rhsMax =  -4.41944889123570E+01  1.55118516661385E+00
(PID.TID 0000.0001)  ploadbar=  1.01043303171930E+05
 cg2d: Sum(rhs),rhsMax =  -4.41492704633048E+01  1.55337598527929E+00
(PID.TID 0000.0001)  ploadbar=  1.01042169733065E+05
 cg2d: Sum(rhs),rhsMax =  -4.40954631793033E+01  1.55583349098081E+00
(PID.TID 0000.0001)  ploadbar=  1.01041036294200E+05
 cg2d: Sum(rhs),rhsMax =  -4.40356598959959E+01  1.55846598800630E+00
(PID.TID 0000.0001)  ploadbar=  1.01039902855335E+05
 cg2d: Sum(rhs),rhsMax =  -4.39750165090385E+01  1.56108994954026E+00
(PID.TID 0000.0001)  ploadbar=  1.01038769416470E+05
 cg2d: Sum(rhs),rhsMax =  -4.39128655588714E+01  1.56373466092943E+00
(PID.TID 0000.0001)  ploadbar=  1.01037635977605E+05
 cg2d: Sum(rhs),rhsMax =  -4.38495841658371E+01  1.56638556879859E+00
(PID.TID 0000.0001)  ploadbar=  1.01036502538740E+05
 cg2d: Sum(rhs),rhsMax =  -4.37957333298507E+01  1.56877621531662E+00
(PID.TID 0000.0001)  ploadbar=  1.01035921159873E+05
 cg2d: Sum(rhs),rhsMax =  -4.37494818975118E+01  1.57096986583709E+00
(PID.TID 0000.0001)  ploadbar=  1.01035339781006E+05
 cg2d: Sum(rhs),rhsMax =  -4.37105708579363E+01  1.57297784760119E+00
(PID.TID 0000.0001)  ploadbar=  1.01034758402139E+05
 cg2d: Sum(rhs),rhsMax =  -4.36797997557440E+01  1.57477417372402E+00
(PID.TID 0000.0001)  ploadbar=  1.01034177023272E+05
 cg2d: Sum(rhs),rhsMax =  -4.36582837757466E+01  1.57631794337158E+00
(PID.TID 0000.0001)  ploadbar=  1.01033595644405E+05
 cg2d: Sum(rhs),rhsMax =  -4.36467353928422E+01  1.57758593720823E+00
(PID.TID 0000.0001)  ploadbar=  1.01033014265538E+05
 cg2d: Sum(rhs),rhsMax =  -4.36516954818860E+01  1.57824806074343E+00
(PID.TID 0000.0001)  ploadbar=  1.01032437648681E+05
 cg2d: Sum(rhs),rhsMax =  -4.36686813460244E+01  1.57846332079627E+00
(PID.TID 0000.0001)  ploadbar=  1.01031861031825E+05
 cg2d: Sum(rhs),rhsMax =  -4.36930814178982E+01  1.57839638373559E+00
(PID.TID 0000.0001)  ploadbar=  1.01031284414968E+05
 cg2d: Sum(rhs),rhsMax =  -4.37257105720337E+01  1.57801545852784E+00
(PID.TID 0000.0001)  ploadbar=  1.01030707798112E+05
 cg2d: Sum(rhs),rhsMax =  -4.37670314641811E+01  1.57729868563133E+00
(PID.TID 0000.0001)  ploadbar=  1.01030131181255E+05
 cg2d: Sum(rhs),rhsMax =  -4.38160769177458E+01  1.57628347116948E+00
(PID.TID 0000.0001)  ploadbar=  1.01029554564399E+05
 cg2d: Sum(rhs),rhsMax =  -4.38692836536500E+01  1.57516676777029E+00
(PID.TID 0000.0001)  ploadbar=  1.01029717728708E+05
 cg2d: Sum(rhs),rhsMax =  -4.39321234784854E+01  1.57375110732276E+00
(PID.TID 0000.0001)  ploadbar=  1.01029880893018E+05
 cg2d: Sum(rhs),rhsMax =  -4.39978191233056E+01  1.57228074907606E+00
(PID.TID 0000.0001)  ploadbar=  1.01030044057328E+05
 cg2d: Sum(rhs),rhsMax =  -4.40659319625388E+01  1.57077673504683E+00
(PID.TID 0000.0001)  ploadbar=  1.01030207221638E+05
 cg2d: Sum(rhs),rhsMax =  -4.41375595859529E+01  1.56920186936192E+00
(PID.TID 0000.0001)  ploadbar=  1.01030370385948E+05
 cg2d: Sum(rhs),rhsMax =  -4.42129633186747E+01  1.56754374026688E+00
(PID.TID 0000.0001)  ploadbar=  1.01030533550258E+05
 cg2d: Sum(rhs),rhsMax =  -4.42821671434029E+01  1.56604484366392E+00
(PID.TID 0000.0001)  ploadbar=  1.01029995454329E+05
 cg2d: Sum(rhs),rhsMax =  -4.43533276816804E+01  1.56440421324756E+00
(PID.TID 0000.0001)  ploadbar=  1.01029457358401E+05
 cg2d: Sum(rhs),rhsMax =  -4.44251981646403E+01  1.56266147175978E+00
(PID.TID 0000.0001)  ploadbar=  1.01028919262472E+05
 cg2d: Sum(rhs),rhsMax =  -4.44971338811851E+01  1.56084014113010E+00
(PID.TID 0000.0001)  ploadbar=  1.01028381166544E+05
 cg2d: Sum(rhs),rhsMax =  -4.45690251113043E+01  1.55894678745486E+00
(PID.TID 0000.0001)  ploadbar=  1.01027843070615E+05
 cg2d: Sum(rhs),rhsMax =  -4.46401725970236E+01  1.55700809066562E+00
(PID.TID 0000.0001)  ploadbar=  1.01027304974687E+05
 cg2d: Sum(rhs),rhsMax =  -4.47083301661077E+01  1.55518295701109E+00
(PID.TID 0000.0001)  ploadbar=  1.01025997723040E+05
 cg2d: Sum(rhs),rhsMax =  -4.47763051546187E+01  1.55337194382179E+00
(PID.TID 0000.0001)  ploadbar=  1.01024690471393E+05
 cg2d: Sum(rhs),rhsMax =  -4.48458456036492E+01  1.55151637431485E+00
(PID.TID 0000.0001)  ploadbar=  1.01023383219745E+05
 cg2d: Sum(rhs),rhsMax =  -4.49167662304050E+01  1.54962325280723E+00
(PID.TID 0000.0001)  ploadbar=  1.01022075968098E+05
 cg2d: Sum(rhs),rhsMax =  -4.49889609806868E+01  1.54769792271082E+00
(PID.TID 0000.0001)  ploadbar=  1.01020768716451E+05
 cg2d: Sum(rhs),rhsMax =  -4.50627571708510E+01  1.54573320372302E+00
(PID.TID 0000.0001)  ploadbar=  1.01019461464804E+05
 cg2d: Sum(rhs),rhsMax =  -4.51317918349254E+01  1.54384666742343E+00
(PID.TID 0000.0001)  ploadbar=  1.01019433592891E+05
 cg2d: Sum(rhs),rhsMax =  -4.51981861721506E+01  1.54196032431705E+00
(PID.TID 0000.0001)  ploadbar=  1.01019405720978E+05
 cg2d: Sum(rhs),rhsMax =  -4.52640092484214E+01  1.53999974470703E+00
(PID.TID 0000.0001)  ploadbar=  1.01019377849066E+05
 cg2d: Sum(rhs),rhsMax =  -4.53293583683063E+01  1.53795693549380E+00
(PID.TID 0000.0001)  ploadbar=  1.01019349977153E+05
 cg2d: Sum(rhs),rhsMax =  -4.53940044917691E+01  1.53583656272148E+00
(PID.TID 0000.0001)  ploadbar=  1.01019322105240E+05
 cg2d: Sum(rhs),rhsMax =  -4.54583021813661E+01  1.53362368010155E+00
(PID.TID 0000.0001)  ploadbar=  1.01019294233328E+05
 cg2d: Sum(rhs),rhsMax =  -4.55316825521140E+01  1.53121038669967E+00
(PID.TID 0000.0001)  ploadbar=  1.01020232934041E+05
 cg2d: Sum(rhs),rhsMax =  -4.56115038032360E+01  1.52868348629401E+00
(PID.TID 0000.0001)  ploadbar=  1.01021171634755E+05
 cg2d: Sum(rhs),rhsMax =  -4.57033515654852E+01  1.52585975644455E+00
(PID.TID 0000.0001)  ploadbar=  1.01022110335469E+05
 cg2d: Sum(rhs),rhsMax =  -4.58079696642142E+01  1.52271837373357E+00
(PID.TID 0000.0001)  ploadbar=  1.01023049036182E+05
 cg2d: Sum(rhs),rhsMax =  -4.59253503868443E+01  1.51926431493641E+00
(PID.TID 0000.0001)  ploadbar=  1.01023987736896E+05
 cg2d: Sum(rhs),rhsMax =  -4.60558746457840E+01  1.51548654223987E+00
(PID.TID 0000.0001)  ploadbar=  1.01024926437610E+05
 cg2d: Sum(rhs),rhsMax =  -4.61976246704686E+01  1.51136617366261E+00
(PID.TID 0000.0001)  ploadbar=  1.01026031060063E+05
 cg2d: Sum(rhs),rhsMax =  -4.63463498406522E+01  1.50703692069028E+00
(PID.TID 0000.0001)  ploadbar=  1.01027135682516E+05
 cg2d: Sum(rhs),rhsMax =  -4.65038138562793E+01  1.50244397923507E+00
(PID.TID 0000.0001)  ploadbar=  1.01028240304969E+05
 cg2d: Sum(rhs),rhsMax =  -4.66693622835634E+01  1.49761119503164E+00
(PID.TID 0000.0001)  ploadbar=  1.01029344927421E+05
 cg2d: Sum(rhs),rhsMax =  -4.68424600505425E+01  1.49255953512051E+00
(PID.TID 0000.0001)  ploadbar=  1.01030449549874E+05
 cg2d: Sum(rhs),rhsMax =  -4.70241900453311E+01  1.48726302006822E+00
(PID.TID 0000.0001)  ploadbar=  1.01031554172327E+05
 cg2d: Sum(rhs),rhsMax =  -4.72255289145785E+01  1.48139616175018E+00
(PID.TID 0000.0001)  ploadbar=  1.01033153068061E+05
 cg2d: Sum(rhs),rhsMax =  -4.74387715809749E+01  1.47520543602192E+00
(PID.TID 0000.0001)  ploadbar=  1.01034751963794E+05
 cg2d: Sum(rhs),rhsMax =  -4.76549761203266E+01  1.46897148109288E+00
(PID.TID 0000.0001)  ploadbar=  1.01036350859527E+05
 cg2d: Sum(rhs),rhsMax =  -4.78728910878214E+01  1.46273149895225E+00
(PID.TID 0000.0001)  ploadbar=  1.01037949755261E+05
 cg2d: Sum(rhs),rhsMax =  -4.80906198717933E+01  1.45654346958203E+00
(PID.TID 0000.0001)  ploadbar=  1.01039548650994E+05
 cg2d: Sum(rhs),rhsMax =  -4.83059301956983E+01  1.45046989318994E+00
(PID.TID 0000.0001)  ploadbar=  1.01041147546728E+05
 cg2d: Sum(rhs),rhsMax =  -4.84970696858308E+01  1.44511168351527E+00
(PID.TID 0000.0001)  ploadbar=  1.01042675117581E+05
 cg2d: Sum(rhs),rhsMax =  -4.86761257160530E+01  1.44008583750351E+00
(PID.TID 0000.0001)  ploadbar=  1.01044202688434E+05
 cg2d: Sum(rhs),rhsMax =  -4.88370984828114E+01  1.43555967138566E+00
(PID.TID 0000.0001)  ploadbar=  1.01045730259287E+05
 cg2d: Sum(rhs),rhsMax =  -4.89790755512391E+01  1.43154147300425E+00
(PID.TID 0000.0001)  ploadbar=  1.01047257830141E+05
 cg2d: Sum(rhs),rhsMax =  -4.91064541393927E+01  1.42788646684419E+00
(PID.TID 0000.0001)  ploadbar=  1.01048785400994E+05
 cg2d: Sum(rhs),rhsMax =  -4.92219200305236E+01  1.42450336226909E+00
(PID.TID 0000.0001)  ploadbar=  1.01050312971847E+05
 cg2d: Sum(rhs),rhsMax =  -4.93467156133587E+01  1.42091366500902E+00
(PID.TID 0000.0001)  ploadbar=  1.01052441550712E+05
 cg2d: Sum(rhs),rhsMax =  -4.94801015565699E+01  1.41713525446461E+00
(PID.TID 0000.0001)  ploadbar=  1.01054570129577E+05
 cg2d: Sum(rhs),rhsMax =  -4.96228380749107E+01  1.41314384679895E+00
(PID.TID 0000.0001)  ploadbar=  1.01056698708442E+05
 cg2d: Sum(rhs),rhsMax =  -4.97724956308943E+01  1.40900476484165E+00
(PID.TID 0000.0001)  ploadbar=  1.01058827287307E+05
 cg2d: Sum(rhs),rhsMax =  -4.99284052181495E+01  1.40473263464082E+00
(PID.TID 0000.0001)  ploadbar=  1.01060955866173E+05
 cg2d: Sum(rhs),rhsMax =  -5.00892983242960E+01  1.40036012935233E+00
(PID.TID 0000.0001)  ploadbar=  1.01063084445038E+05
 cg2d: Sum(rhs),rhsMax =  -5.02439042299782E+01  1.39622399690729E+00
(PID.TID 0000.0001)  ploadbar=  1.01064346764520E+05
 cg2d: Sum(rhs),rhsMax =  -5.03961215538633E+01  1.39220696443547E+00
(PID.TID 0000.0001)  ploadbar=  1.01065609084003E+05
 cg2d: Sum(rhs),rhsMax =  -5.05476429236847E+01  1.38825382082342E+00
(PID.TID 0000.0001)  ploadbar=  1.01066871403486E+05
 cg2d: Sum(rhs),rhsMax =  -5.06993930877336E+01  1.38433323141772E+00
(PID.TID 0000.0001)  ploadbar=  1.01068133722968E+05
 cg2d: Sum(rhs),rhsMax =  -5.08516103166414E+01  1.38043589350140E+00
(PID.TID 0000.0001)  ploadbar=  1.01069396042451E+05
 cg2d: Sum(rhs),rhsMax =  -5.10043928098273E+01  1.37655513222069E+00
(PID.TID 0000.0001)  ploadbar=  1.01070658361934E+05
 cg2d: Sum(rhs),rhsMax =  -5.11742952561953E+01  1.37225820814416E+00
(PID.TID 0000.0001)  ploadbar=  1.01071753268818E+05
 cg2d: Sum(rhs),rhsMax =  -5.13468882404606E+01  1.36792981311908E+00
(PID.TID 0000.0001)  ploadbar=  1.01072848175702E+05
 cg2d: Sum(rhs),rhsMax =  -5.15241724630083E+01  1.36351267918707E+00
(PID.TID 0000.0001)  ploadbar=  1.01073943082586E+05
 cg2d: Sum(rhs),rhsMax =  -5.17043718300283E+01  1.35905055686428E+00
(PID.TID 0000.0001)  ploadbar=  1.01075037989469E+05
 cg2d: Sum(rhs),rhsMax =  -5.18836961828158E+01  1.35463848843233E+00
(PID.TID 0000.0001)  ploadbar=  1.01076132896353E+05
 cg2d: Sum(rhs),rhsMax =  -5.20608934684695E+01  1.35030522296120E+00
(PID.TID 0000.0001)  ploadbar=  1.01077227803237E+05
 cg2d: Sum(rhs),rhsMax =  -5.22396695702776E+01  1.34593952599455E+00
(PID.TID 0000.0001)  ploadbar=  1.01077961329228E+05
 cg2d: Sum(rhs),rhsMax =  -5.24127255178305E+01  1.34172644430055E+00
(PID.TID 0000.0001)  ploadbar=  1.01078694855220E+05
 cg2d: Sum(rhs),rhsMax =  -5.25739770066055E+01  1.33781280426081E+00
(PID.TID 0000.0001)  ploadbar=  1.01079428381211E+05
 cg2d: Sum(rhs),rhsMax =  -5.27199692221670E+01  1.33427404912014E+00
(PID.TID 0000.0001)  ploadbar=  1.01080161907202E+05
 cg2d: Sum(rhs),rhsMax =  -5.28449685876397E+01  1.33124174779136E+00
(PID.TID 0000.0001)  ploadbar=  1.01080895433193E+05
 cg2d: Sum(rhs),rhsMax =  -5.29444584821012E+01  1.32881857652077E+00
(PID.TID 0000.0001)  ploadbar=  1.01081628959184E+05
 cg2d: Sum(rhs),rhsMax =  -5.30244414503693E+01  1.32699098390318E+00
(PID.TID 0000.0001)  ploadbar=  1.01082478472604E+05
 cg2d: Sum(rhs),rhsMax =  -5.31055165933703E+01  1.32523569149201E+00
(PID.TID 0000.0001)  ploadbar=  1.01083327986023E+05
 cg2d: Sum(rhs),rhsMax =  -5.31865314870312E+01  1.32357689945198E+00
(PID.TID 0000.0001)  ploadbar=  1.01084177499442E+05
 cg2d: Sum(rhs),rhsMax =  -5.32702825820023E+01  1.32194117136758E+00
(PID.TID 0000.0001)  ploadbar=  1.01085027012862E+05
 cg2d: Sum(rhs),rhsMax =  -5.33622819978109E+01  1.32018869856508E+00
(PID.TID 0000.0001)  ploadbar=  1.01085876526281E+05
 cg2d: Sum(rhs),rhsMax =  -5.34668040833315E+01  1.31820969488929E+00
(PID.TID 0000.0001)  ploadbar=  1.01086726039700E+05
 cg2d: Sum(rhs),rhsMax =  -5.35757510623233E+01  1.31613715288689E+00
(PID.TID 0000.0001)  ploadbar=  1.01087502067399E+05
 cg2d: Sum(rhs),rhsMax =  -5.37146227425586E+01  1.31333840205808E+00
(PID.TID 0000.0001)      cg2d_init_res =   2.58848729962918E-01
(PID.TID 0000.0001)      cg2d_iters(min,last) =      -1     142
(PID.TID 0000.0001)      cg2d_last_res =   9.79172325593937E-08
(PID.TID 0000.0001) // =======================================================
(PID.TID 0000.0001) // Begin MONITOR dynamic field statistics
(PID.TID 0000.0001) // =======================================================
(PID.TID 0000.0001) %MON time_tsnumber                =                  3504
(PID.TID 0000.0001) %MON time_secondsf                =   1.2614400000000E+07
(PID.TID 0000.0001) %MON dynstat_eta_max              =   1.1087725095282E+00
(PID.TID 0000.0001) %MON dynstat_eta_min              =  -5.5301484207919E+00
(PID.TID 0000.0001) %MON dynstat_eta_mean             =   3.5705259815732E-02
(PID.TID 0000.0001) %MON dynstat_eta_sd               =   7.6150855517484E-01
(PID.TID 0000.0001) %MON dynstat_eta_del2             =   2.0449219191956E-04
(PID.TID 0000.0001) %MON dynstat_uvel_max             =   1.2342759183918E+00
(PID.TID 0000.0001) %MON dynstat_uvel_min             =  -8.9288277795070E-01
(PID.TID 0000.0001) %MON dynstat_uvel_mean            =   1.4082616281092E-03
(PID.TID 0000.0001) %MON dynstat_uvel_sd              =   2.1136654381249E-02
(PID.TID 0000.0001) %MON dynstat_uvel_del2            =   8.2037089182014E-06
(PID.TID 0000.0001) %MON dynstat_vvel_max             =   7.8299476147565E-01
(PID.TID 0000.0001) %MON dynstat_vvel_min             =  -9.8601878480044E-01
(PID.TID 0000.0001) %MON dynstat_vvel_mean            =   8.4698560437663E-04
(PID.TID 0000.0001) %MON dynstat_vvel_sd              =   2.1138269600865E-02
(PID.TID 0000.0001) %MON dynstat_vvel_del2            =   8.4247049000735E-06
(PID.TID 0000.0001) %MON dynstat_wvel_max             =   5.8518731527603E-04
(PID.TID 0000.0001) %MON dynstat_wvel_min             =  -8.3606818196512E-04
(PID.TID 0000.0001) %MON dynstat_wvel_mean            =  -8.4364901247023E-09
(PID.TID 0000.0001) %MON dynstat_wvel_sd              =   2.2190135999060E-05
(PID.TID 0000.0001) %MON dynstat_wvel_del2            =   1.6449449931327E-08
(PID.TID 0000.0001) %MON dynstat_theta_max            =   3.2118782633240E+01
(PID.TID 0000.0001) %MON dynstat_theta_min            =  -2.1140759388071E+00
(PID.TID 0000.0001) %MON dynstat_theta_mean           =   3.5857028884408E+00
(PID.TID 0000.0001) %MON dynstat_theta_sd             =   4.4435510644224E+00
(PID.TID 0000.0001) %MON dynstat_theta_del2           =   8.4036317134544E-05
(PID.TID 0000.0001) %MON dynstat_salt_max             =   4.0641907162396E+01
(PID.TID 0000.0001) %MON dynstat_salt_min             =   2.3213120809305E+01
(PID.TID 0000.0001) %MON dynstat_salt_mean            =   3.4727297819439E+01
(PID.TID 0000.0001) %MON dynstat_salt_sd              =   3.7704566423322E-01
(PID.TID 0000.0001) %MON dynstat_salt_del2            =   1.8724309330160E-05
(PID.TID 0000.0001) %MON dynstat_sst_max              =   3.2100100582437E+01
(PID.TID 0000.0001) %MON dynstat_sst_min              =  -1.9608848756757E+00
(PID.TID 0000.0001) %MON dynstat_sst_mean             =   1.8223434439551E+01
(PID.TID 0000.0001) %MON dynstat_sst_sd               =   1.0421516542357E+01
(PID.TID 0000.0001) %MON dynstat_sst_del2             =   6.4515846669435E-04
(PID.TID 0000.0001) %MON dynstat_sss_max              =   3.9994134519549E+01
(PID.TID 0000.0001) %MON dynstat_sss_min              =   2.3213120809305E+01
(PID.TID 0000.0001) %MON dynstat_sss_mean             =   3.4745988644516E+01
(PID.TID 0000.0001) %MON dynstat_sss_sd               =   1.1732480486216E+00
(PID.TID 0000.0001) %MON dynstat_sss_del2             =   3.0596598344115E-04
(PID.TID 0000.0001) %MON forcing_qnet_max             =   7.2743269201284E+02
(PID.TID 0000.0001) %MON forcing_qnet_min             =  -5.7879601166674E+02
(PID.TID 0000.0001) %MON forcing_qnet_mean            =   3.6387844333386E+01
(PID.TID 0000.0001) %MON forcing_qnet_sd              =   1.6223812142894E+02
(PID.TID 0000.0001) %MON forcing_qnet_del2            =   9.3976171413280E-02
(PID.TID 0000.0001) %MON forcing_qsw_max              =   4.1153482476635E+01
(PID.TID 0000.0001) %MON forcing_qsw_min              =  -7.0969266628829E+02
(PID.TID 0000.0001) %MON forcing_qsw_mean             =  -1.1735141902831E+02
(PID.TID 0000.0001) %MON forcing_qsw_sd               =   1.4746717061050E+02
(PID.TID 0000.0001) %MON forcing_qsw_del2             =   5.5460557005132E-02
(PID.TID 0000.0001) %MON forcing_empmr_max            =   1.8849515788636E-03
(PID.TID 0000.0001) %MON forcing_empmr_min            =  -3.2062395588172E-03
(PID.TID 0000.0001) %MON forcing_empmr_mean           =  -4.6931150518850E-06
(PID.TID 0000.0001) %MON forcing_empmr_sd             =   9.4319058418482E-05
(PID.TID 0000.0001) %MON forcing_empmr_del2           =   2.7186222511843E-07
(PID.TID 0000.0001) %MON forcing_fu_max               =   1.0205816626549E+00
(PID.TID 0000.0001) %MON forcing_fu_min               =  -8.4115760225915E-01
(PID.TID 0000.0001) %MON forcing_fu_mean              =   1.4134457420869E-02
(PID.TID 0000.0001) %MON forcing_fu_sd                =   1.3792572647888E-01
(PID.TID 0000.0001) %MON forcing_fu_del2              =   7.4026540106997E-05
(PID.TID 0000.0001) %MON forcing_fv_max               =   7.0984297143738E-01
(PID.TID 0000.0001) %MON forcing_fv_min               =  -8.9567149117435E-01
(PID.TID 0000.0001) %MON forcing_fv_mean              =   5.5853635710296E-04
(PID.TID 0000.0001) %MON forcing_fv_sd                =   1.0077697845748E-01
(PID.TID 0000.0001) %MON forcing_fv_del2              =   6.2494749232408E-05
(PID.TID 0000.0001) %MON trAdv_CFL_u_max              =   5.3662266562130E-02
(PID.TID 0000.0001) %MON trAdv_CFL_v_max              =   5.8538660730857E-02
(PID.TID 0000.0001) %MON trAdv_CFL_w_max              =   1.2440895450408E-01
(PID.TID 0000.0001) %MON advcfl_uvel_max              =   4.6822520950351E-02
(PID.TID 0000.0001) %MON advcfl_vvel_max              =   6.1740296421716E-02
(PID.TID 0000.0001) %MON advcfl_wvel_max              =   1.2793888845153E-01
(PID.TID 0000.0001) %MON advcfl_W_hf_max              =   1.2901698589294E-01
(PID.TID 0000.0001) %MON pe_b_mean                    =   1.2902094983685E-03
(PID.TID 0000.0001) %MON ke_max                       =   8.0889675218535E-01
(PID.TID 0000.0001) %MON ke_mean                      =   4.3218054787443E-04
(PID.TID 0000.0001) %MON ke_vol                       =   1.3350106540390E+18
(PID.TID 0000.0001) %MON vort_r_min                   =  -1.1407013771376E-05
(PID.TID 0000.0001) %MON vort_r_max                   =   2.2508461817405E-05
(PID.TID 0000.0001) %MON vort_a_mean                  =  -1.9727864647440E-05
(PID.TID 0000.0001) %MON vort_a_sd                    =   7.4543000074937E-05
(PID.TID 0000.0001) %MON vort_p_mean                  =  -2.1760305862712E-05
(PID.TID 0000.0001) %MON vort_p_sd                    =   9.7245069553714E-05
(PID.TID 0000.0001) %MON surfExpan_theta_mean         =  -1.5614134866415E-07
(PID.TID 0000.0001) %MON surfExpan_salt_mean          =   1.2634064096592E-08
(PID.TID 0000.0001) // =======================================================
(PID.TID 0000.0001) // End MONITOR dynamic field statistics
(PID.TID 0000.0001) // =======================================================
(PID.TID 0000.0001)  ploadbar=  1.01088278095097E+05
(PID.TID 0000.0001) %SBO sbo_mass                     =   1.3737549498764E+21
(PID.TID 0000.0001) %SBO sbo_mass_fw                  =   4.2134505822864E+16
(PID.TID 0000.0001) %SBO sbo_zoamc                    =   9.6892729829298E+24
(PID.TID 0000.0001) %SBO sbo_zoamp                    =   2.9276559867328E+30
(PID.TID 0000.0001) // =======================================================
(PID.TID 0000.0001) // Begin MONITOR SEAICE statistics
(PID.TID 0000.0001) // =======================================================
(PID.TID 0000.0001) %MON seaice_tsnumber              =                  3504
(PID.TID 0000.0001) %MON seaice_time_sec              =   1.2614400000000E+07
(PID.TID 0000.0001) %MON seaice_uice_max              =   4.0000000000000E-01
(PID.TID 0000.0001) %MON seaice_uice_min              =  -4.0000000000000E-01
(PID.TID 0000.0001) %MON seaice_uice_mean             =   1.3370177621885E-03
(PID.TID 0000.0001) %MON seaice_uice_sd               =   1.7385538470452E-01
(PID.TID 0000.0001) %MON seaice_uice_del2             =   1.3559545309738E-04
(PID.TID 0000.0001) %MON seaice_vice_max              =   4.0000000000000E-01
(PID.TID 0000.0001) %MON seaice_vice_min              =  -4.0000000000000E-01
(PID.TID 0000.0001) %MON seaice_vice_mean             =  -1.3637116164448E-02
(PID.TID 0000.0001) %MON seaice_vice_sd               =   1.7203293263139E-01
(PID.TID 0000.0001) %MON seaice_vice_del2             =   1.3396955033408E-04
(PID.TID 0000.0001) %MON seaice_area_max              =   9.7000000000000E-01
(PID.TID 0000.0001) %MON seaice_area_min              =   0.0000000000000E+00
(PID.TID 0000.0001) %MON seaice_area_mean             =   6.3454712549529E-02
(PID.TID 0000.0001) %MON seaice_area_sd               =   2.2855699370803E-01
(PID.TID 0000.0001) %MON seaice_area_del2             =   2.2097467180627E-04
(PID.TID 0000.0001) %MON seaice_heff_max              =   5.4785515976976E+00
(PID.TID 0000.0001) %MON seaice_heff_min              =   0.0000000000000E+00
(PID.TID 0000.0001) %MON seaice_heff_mean             =   8.4939586166779E-02
(PID.TID 0000.0001) %MON seaice_heff_sd               =   4.0111359305067E-01
(PID.TID 0000.0001) %MON seaice_heff_del2             =   2.1492702234264E-04
(PID.TID 0000.0001) %MON seaice_hsnow_max             =   1.0179206098230E+00
(PID.TID 0000.0001) %MON seaice_hsnow_min             =  -7.7284497175029E-05
(PID.TID 0000.0001) %MON seaice_hsnow_mean            =   1.1072296486940E-02
(PID.TID 0000.0001) %MON seaice_hsnow_sd              =   5.4340448361150E-02
(PID.TID 0000.0001) %MON seaice_hsnow_del2            =   4.4730897346800E-05
(PID.TID 0000.0001) // =======================================================
(PID.TID 0000.0001) // End MONITOR SEAICE statistics
(PID.TID 0000.0001) // =======================================================
(PID.TID 0000.0001) // =======================================================
(PID.TID 0000.0001) // Begin MONITOR EXF statistics
(PID.TID 0000.0001) // =======================================================
(PID.TID 0000.0001) %MON exf_tsnumber                 =                  3504
(PID.TID 0000.0001) %MON exf_time_sec                 =   1.2614400000000E+07
(PID.TID 0000.0001) %MON exf_ustress_max              =   1.0689419507980E+00
(PID.TID 0000.0001) %MON exf_ustress_min              =  -9.7425293922424E-01
(PID.TID 0000.0001) %MON exf_ustress_mean             =   1.3479582094127E-02
(PID.TID 0000.0001) %MON exf_ustress_sd               =   1.3757625812486E-01
(PID.TID 0000.0001) %MON exf_ustress_del2             =   8.3301926847449E-05
(PID.TID 0000.0001) %MON exf_vstress_max              =   9.1810378432274E-01
(PID.TID 0000.0001) %MON exf_vstress_min              =  -9.6884948015213E-01
(PID.TID 0000.0001) %MON exf_vstress_mean             =   6.4878148788062E-04
(PID.TID 0000.0001) %MON exf_vstress_sd               =   1.0014277228988E-01
(PID.TID 0000.0001) %MON exf_vstress_del2             =   6.8436375280729E-05
(PID.TID 0000.0001) %MON exf_hflux_max                =   1.1233334173508E+03
(PID.TID 0000.0001) %MON exf_hflux_min                =  -5.5456971659969E+02
(PID.TID 0000.0001) %MON exf_hflux_mean               =   3.6990325587178E+01
(PID.TID 0000.0001) %MON exf_hflux_sd                 =   1.8163202635324E+02
(PID.TID 0000.0001) %MON exf_hflux_del2               =   2.9063490526032E-01
(PID.TID 0000.0001) %MON exf_sflux_max                =   1.8753513507572E-07
(PID.TID 0000.0001) %MON exf_sflux_min                =  -3.1903483275564E-06
(PID.TID 0000.0001) %MON exf_sflux_mean               =  -2.8791193256082E-09
(PID.TID 0000.0001) %MON exf_sflux_sd                 =   8.2360403340811E-08
(PID.TID 0000.0001) %MON exf_sflux_del2               =   1.7406245870323E-10
(PID.TID 0000.0001) %MON exf_wspeed_max               =   2.1747757911682E+01
(PID.TID 0000.0001) %MON exf_wspeed_min               =   4.5171645283699E-01
(PID.TID 0000.0001) %MON exf_wspeed_mean              =   6.9145142769840E+00
(PID.TID 0000.0001) %MON exf_wspeed_sd                =   3.3907369120128E+00
(PID.TID 0000.0001) %MON exf_wspeed_del2              =   1.2074329169975E-02
(PID.TID 0000.0001) %MON exf_atemp_max                =   3.1031335487366E+02
(PID.TID 0000.0001) %MON exf_atemp_min                =   2.2812844123840E+02
(PID.TID 0000.0001) %MON exf_atemp_mean               =   2.8969302668465E+02
(PID.TID 0000.0001) %MON exf_atemp_sd                 =   1.1379368631382E+01
(PID.TID 0000.0001) %MON exf_atemp_del2               =   2.4277984332598E-02
(PID.TID 0000.0001) %MON exf_aqh_max                  =   2.2745097987354E-02
(PID.TID 0000.0001) %MON exf_aqh_min                  =   3.8203865187825E-05
(PID.TID 0000.0001) %MON exf_aqh_mean                 =   1.1070233996496E-02
(PID.TID 0000.0001) %MON exf_aqh_sd                   =   5.7188517777648E-03
(PID.TID 0000.0001) %MON exf_aqh_del2                 =   1.5015617243357E-05
(PID.TID 0000.0001) %MON exf_lwflux_max               =   2.0311111410432E+02
(PID.TID 0000.0001) %MON exf_lwflux_min               =  -4.5555049374723E+01
(PID.TID 0000.0001) %MON exf_lwflux_mean              =   4.4201023518491E+01
(PID.TID 0000.0001) %MON exf_lwflux_sd                =   2.3979131756147E+01
(PID.TID 0000.0001) %MON exf_lwflux_del2              =   7.7278903952392E-02
(PID.TID 0000.0001) %MON exf_evap_max                 =   2.1094451831993E-07
(PID.TID 0000.0001) %MON exf_evap_min                 =  -3.6056563977079E-08
(PID.TID 0000.0001) %MON exf_evap_mean                =   4.0535014619347E-08
(PID.TID 0000.0001) %MON exf_evap_sd                  =   2.7392158401733E-08
(PID.TID 0000.0001) %MON exf_evap_del2                =   6.3570840848320E-11
(PID.TID 0000.0001) %MON exf_precip_max               =   1.1666218675543E-06
(PID.TID 0000.0001) %MON exf_precip_min               =  -2.8915873251378E-08
(PID.TID 0000.0001) %MON exf_precip_mean              =   3.8762863071012E-08
(PID.TID 0000.0001) %MON exf_precip_sd                =   6.4522070156089E-08
(PID.TID 0000.0001) %MON exf_precip_del2              =   1.6917367408724E-10
(PID.TID 0000.0001) %MON exf_swflux_max               =   4.6561129760742E+01
(PID.TID 0000.0001) %MON exf_swflux_min               =  -6.1722453062445E+02
(PID.TID 0000.0001) %MON exf_swflux_mean              =  -1.2904225836271E+02
(PID.TID 0000.0001) %MON exf_swflux_sd                =   1.5171333457640E+02
(PID.TID 0000.0001) %MON exf_swflux_del2              =   2.7089344044153E-01
(PID.TID 0000.0001) %MON exf_swdown_max               =   6.7127566528320E+02
(PID.TID 0000.0001) %MON exf_swdown_min               =  -6.6515899658203E+01
(PID.TID 0000.0001) %MON exf_swdown_mean              =   1.4033617899137E+02
(PID.TID 0000.0001) %MON exf_swdown_sd                =   1.6419588575056E+02
(PID.TID 0000.0001) %MON exf_swdown_del2              =   2.9516124365388E-01
(PID.TID 0000.0001) %MON exf_lwdown_max               =   4.6666184997559E+02
(PID.TID 0000.0001) %MON exf_lwdown_min               =   9.7291194915771E+01
(PID.TID 0000.0001) %MON exf_lwdown_mean              =   3.6620146414850E+02
(PID.TID 0000.0001) %MON exf_lwdown_sd                =   5.9842911143372E+01
(PID.TID 0000.0001) %MON exf_lwdown_del2              =   4.9412547518226E-01
(PID.TID 0000.0001) %MON exf_apressure_max            =   1.0380930078125E+05
(PID.TID 0000.0001) %MON exf_apressure_min            =   9.5583203125000E+04
(PID.TID 0000.0001) %MON exf_apressure_mean           =   1.0108905412279E+05
(PID.TID 0000.0001) %MON exf_apressure_sd             =   1.0670048925677E+03
(PID.TID 0000.0001) %MON exf_apressure_del2           =   1.4505703173578E+02
(PID.TID 0000.0001) %MON exf_runoff_max               =   3.1856565641885E-06
(PID.TID 0000.0001) %MON exf_runoff_min               =   0.0000000000000E+00
(PID.TID 0000.0001) %MON exf_runoff_mean              =   4.6512708739432E-09
(PID.TID 0000.0001) %MON exf_runoff_sd                =   4.0722969529259E-08
(PID.TID 0000.0001) %MON exf_runoff_del2              =   4.7846032036813E-11
(PID.TID 0000.0001) // =======================================================
(PID.TID 0000.0001) // End MONITOR EXF statistics
(PID.TID 0000.0001) // =======================================================
 cg2d: Sum(rhs),rhsMax =  -5.38821450817119E+01  1.30984929121129E+00
(PID.TID 0000.0001)  ploadbar=  1.01089054122795E+05
 cg2d: Sum(rhs),rhsMax =  -5.40737124036625E+01  1.30579258991461E+00
(PID.TID 0000.0001)  ploadbar=  1.01089830150493E+05
 cg2d: Sum(rhs),rhsMax =  -5.42794256327051E+01  1.30141693991072E+00
(PID.TID 0000.0001)  ploadbar=  1.01090606178191E+05
 cg2d: Sum(rhs),rhsMax =  -5.44884817978443E+01  1.29699048631729E+00
(PID.TID 0000.0001)  ploadbar=  1.01091382205890E+05
 cg2d: Sum(rhs),rhsMax =  -5.46741119021135E+01  1.29317221982222E+00
(PID.TID 0000.0001)  ploadbar=  1.01091783353874E+05
 cg2d: Sum(rhs),rhsMax =  -5.48489090013372E+01  1.28964440516203E+00
(PID.TID 0000.0001)  ploadbar=  1.01092184501859E+05
 cg2d: Sum(rhs),rhsMax =  -5.50129740190171E+01  1.28639828531673E+00
(PID.TID 0000.0001)  ploadbar=  1.01092585649844E+05
 cg2d: Sum(rhs),rhsMax =  -5.51607425248776E+01  1.28355540787357E+00
(PID.TID 0000.0001)  ploadbar=  1.01092986797828E+05
 cg2d: Sum(rhs),rhsMax =  -5.52892254640554E+01  1.28118012928977E+00
(PID.TID 0000.0001)  ploadbar=  1.01093387945813E+05
 cg2d: Sum(rhs),rhsMax =  -5.53982843735842E+01  1.27927322545774E+00
(PID.TID 0000.0001)  ploadbar=  1.01093789093798E+05
 cg2d: Sum(rhs),rhsMax =  -5.54993687023158E+01  1.27751121727260E+00
(PID.TID 0000.0001)  ploadbar=  1.01093885995982E+05
 cg2d: Sum(rhs),rhsMax =  -5.55717384224967E+01  1.27636013901371E+00
(PID.TID 0000.0001)  ploadbar=  1.01093982898167E+05
 cg2d: Sum(rhs),rhsMax =  -5.56250063491943E+01  1.27559287743215E+00
(PID.TID 0000.0001)  ploadbar=  1.01094079800352E+05
 cg2d: Sum(rhs),rhsMax =  -5.56626121077186E+01  1.27512783096271E+00
(PID.TID 0000.0001)  ploadbar=  1.01094176702536E+05
 cg2d: Sum(rhs),rhsMax =  -5.56875746155075E+01  1.27489029693570E+00
(PID.TID 0000.0001)  ploadbar=  1.01094273604721E+05
 cg2d: Sum(rhs),rhsMax =  -5.57020815995023E+01  1.27482339442315E+00
(PID.TID 0000.0001)  ploadbar=  1.01094370506905E+05
 cg2d: Sum(rhs),rhsMax =  -5.57228992374924E+01  1.27470725657387E+00
(PID.TID 0000.0001)  ploadbar=  1.01093443163608E+05
 cg2d: Sum(rhs),rhsMax =  -5.57341579525610E+01  1.27490350595908E+00
(PID.TID 0000.0001)  ploadbar=  1.01092515820310E+05
 cg2d: Sum(rhs),rhsMax =  -5.57371914298138E+01  1.27538255038100E+00
(PID.TID 0000.0001)  ploadbar=  1.01091588477012E+05
 cg2d: Sum(rhs),rhsMax =  -5.57432357883115E+01  1.27588568422349E+00
(PID.TID 0000.0001)  ploadbar=  1.01090661133715E+05
 cg2d: Sum(rhs),rhsMax =  -5.57484720789826E+01  1.27649740938346E+00
(PID.TID 0000.0001)  ploadbar=  1.01089733790417E+05
 cg2d: Sum(rhs),rhsMax =  -5.57533078555909E+01  1.27720413979933E+00
(PID.TID 0000.0001)  ploadbar=  1.01088806447119E+05
 cg2d: Sum(rhs),rhsMax =  -5.57605941902628E+01  1.27783315219172E+00
(PID.TID 0000.0001)  ploadbar=  1.01088859504385E+05
 cg2d: Sum(rhs),rhsMax =  -5.57774272509503E+01  1.27821670622405E+00
(PID.TID 0000.0001)  ploadbar=  1.01088912561651E+05
 cg2d: Sum(rhs),rhsMax =  -5.58087723758304E+01  1.27824176539334E+00
(PID.TID 0000.0001)  ploadbar=  1.01088965618917E+05
 cg2d: Sum(rhs),rhsMax =  -5.58707508721814E+01  1.27754108331305E+00
(PID.TID 0000.0001)  ploadbar=  1.01089018676182E+05
 cg2d: Sum(rhs),rhsMax =  -5.59570098666633E+01  1.27626460005280E+00
(PID.TID 0000.0001)  ploadbar=  1.01089071733448E+05
 cg2d: Sum(rhs),rhsMax =  -5.60570609144285E+01  1.27465955086452E+00
(PID.TID 0000.0001)  ploadbar=  1.01089124790714E+05
 cg2d: Sum(rhs),rhsMax =  -5.61666871560060E+01  1.27289559294825E+00
(PID.TID 0000.0001)  ploadbar=  1.01089230459680E+05
 cg2d: Sum(rhs),rhsMax =  -5.62890563110644E+01  1.27089546372742E+00
(PID.TID 0000.0001)  ploadbar=  1.01089336128646E+05
 cg2d: Sum(rhs),rhsMax =  -5.64166787623301E+01  1.26882856646467E+00
(PID.TID 0000.0001)  ploadbar=  1.01089441797612E+05
 cg2d: Sum(rhs),rhsMax =  -5.65474512343263E+01  1.26674425975149E+00
(PID.TID 0000.0001)  ploadbar=  1.01089547466577E+05
 cg2d: Sum(rhs),rhsMax =  -5.66808696182684E+01  1.26465436919253E+00
(PID.TID 0000.0001)  ploadbar=  1.01089653135543E+05
 cg2d: Sum(rhs),rhsMax =  -5.68158302151260E+01  1.26258278603751E+00
(PID.TID 0000.0001)  ploadbar=  1.01089758804509E+05
 cg2d: Sum(rhs),rhsMax =  -5.69402802475990E+01  1.26068084283819E+00
(PID.TID 0000.0001)  ploadbar=  1.01090225424117E+05
 cg2d: Sum(rhs),rhsMax =  -5.70576926757482E+01  1.25887105974893E+00
(PID.TID 0000.0001)  ploadbar=  1.01090692043725E+05
 cg2d: Sum(rhs),rhsMax =  -5.71708106430778E+01  1.25709143676059E+00
(PID.TID 0000.0001)  ploadbar=  1.01091158663333E+05
 cg2d: Sum(rhs),rhsMax =  -5.72809511084806E+01  1.25531244368960E+00
(PID.TID 0000.0001)  ploadbar=  1.01091625282940E+05
 cg2d: Sum(rhs),rhsMax =  -5.73902770039159E+01  1.25348239656351E+00
(PID.TID 0000.0001)  ploadbar=  1.01092091902548E+05
 cg2d: Sum(rhs),rhsMax =  -5.75017364696932E+01  1.25153781431408E+00
(PID.TID 0000.0001)  ploadbar=  1.01092558522156E+05
 cg2d: Sum(rhs),rhsMax =  -5.76188318503642E+01  1.24950130351338E+00
(PID.TID 0000.0001)  ploadbar=  1.01093809264398E+05
 cg2d: Sum(rhs),rhsMax =  -5.77435667117842E+01  1.24733234413297E+00
(PID.TID 0000.0001)  ploadbar=  1.01095060006640E+05
 cg2d: Sum(rhs),rhsMax =  -5.78807088802139E+01  1.24493264201267E+00
(PID.TID 0000.0001)  ploadbar=  1.01096310748882E+05
 cg2d: Sum(rhs),rhsMax =  -5.80254269751391E+01  1.24240933543551E+00
(PID.TID 0000.0001)  ploadbar=  1.01097561491124E+05
 cg2d: Sum(rhs),rhsMax =  -5.81747310436835E+01  1.23982683296986E+00
(PID.TID 0000.0001)  ploadbar=  1.01098812233366E+05
 cg2d: Sum(rhs),rhsMax =  -5.83276273175494E+01  1.23720355065280E+00
(PID.TID 0000.0001)  ploadbar=  1.01100062975608E+05
 cg2d: Sum(rhs),rhsMax =  -5.84855845139229E+01  1.23448286268135E+00
(PID.TID 0000.0001)  ploadbar=  1.01099993154061E+05
 cg2d: Sum(rhs),rhsMax =  -5.86481694691244E+01  1.23167294116471E+00
(PID.TID 0000.0001)  ploadbar=  1.01099923332513E+05
 cg2d: Sum(rhs),rhsMax =  -5.88107264136042E+01  1.22887294699587E+00
(PID.TID 0000.0001)  ploadbar=  1.01099853510966E+05
 cg2d: Sum(rhs),rhsMax =  -5.89764613552943E+01  1.22601581526021E+00
(PID.TID 0000.0001)  ploadbar=  1.01099783689419E+05
 cg2d: Sum(rhs),rhsMax =  -5.91481421515232E+01  1.22304682681404E+00
(PID.TID 0000.0001)  ploadbar=  1.01099713867871E+05
 cg2d: Sum(rhs),rhsMax =  -5.93244980972912E+01  1.21999322005231E+00
(PID.TID 0000.0001)  ploadbar=  1.01099644046324E+05
 cg2d: Sum(rhs),rhsMax =  -5.95079424367764E+01  1.21682025886469E+00
(PID.TID 0000.0001)  ploadbar=  1.01099517381915E+05
 cg2d: Sum(rhs),rhsMax =  -5.96948255223440E+01  1.21359576377831E+00
(PID.TID 0000.0001)  ploadbar=  1.01099390717506E+05
 cg2d: Sum(rhs),rhsMax =  -5.98771559635896E+01  1.21047952734911E+00
(PID.TID 0000.0001)  ploadbar=  1.01099264053097E+05
 cg2d: Sum(rhs),rhsMax =  -6.00533492778585E+01  1.20750295776617E+00
(PID.TID 0000.0001)  ploadbar=  1.01099137388688E+05
 cg2d: Sum(rhs),rhsMax =  -6.02196739960898E+01  1.20473513452171E+00
(PID.TID 0000.0001)  ploadbar=  1.01099010724279E+05
 cg2d: Sum(rhs),rhsMax =  -6.03776798161404E+01  1.20214208795486E+00
(PID.TID 0000.0001)  ploadbar=  1.01098884059870E+05
 cg2d: Sum(rhs),rhsMax =  -6.05243119285460E+01  1.19975617425894E+00
(PID.TID 0000.0001)  ploadbar=  1.01099628686003E+05
 cg2d: Sum(rhs),rhsMax =  -6.06615129033670E+01  1.19753354564204E+00
(PID.TID 0000.0001)  ploadbar=  1.01100373312136E+05
 cg2d: Sum(rhs),rhsMax =  -6.07939801347270E+01  1.19537957173127E+00
(PID.TID 0000.0001)  ploadbar=  1.01101117938269E+05
 cg2d: Sum(rhs),rhsMax =  -6.09199854407318E+01  1.19332752637704E+00
(PID.TID 0000.0001)  ploadbar=  1.01101862564402E+05
 cg2d: Sum(rhs),rhsMax =  -6.10387578181758E+01  1.19138801076991E+00
(PID.TID 0000.0001)  ploadbar=  1.01102607190535E+05
 cg2d: Sum(rhs),rhsMax =  -6.10575374899337E+01  1.19136325095602E+00
(PID.TID 0000.0001)  ploadbar=  1.01103351816669E+05
 cg2d: Sum(rhs),rhsMax =  -6.09364760325509E+01  1.19410150610516E+00
(PID.TID 0000.0001)  ploadbar=  1.01103914504107E+05
 cg2d: Sum(rhs),rhsMax =  -6.08306668284201E+01  1.19657718898714E+00
(PID.TID 0000.0001)  ploadbar=  1.01104477191545E+05
 cg2d: Sum(rhs),rhsMax =  -6.07595315542177E+01  1.19840135220816E+00
(PID.TID 0000.0001)  ploadbar=  1.01105039878984E+05
 cg2d: Sum(rhs),rhsMax =  -6.07315082950514E+01  1.19940326387734E+00
(PID.TID 0000.0001)  ploadbar=  1.01105602566422E+05
 cg2d: Sum(rhs),rhsMax =  -6.07286185310212E+01  1.19993271090049E+00
(PID.TID 0000.0001)  ploadbar=  1.01106165253861E+05
 cg2d: Sum(rhs),rhsMax =  -6.07508779605728E+01  1.19998500060157E+00
(PID.TID 0000.0001)  ploadbar=  1.01106727941299E+05
 cg2d: Sum(rhs),rhsMax =  -6.07425881883959E+01  1.20063116339940E+00
(PID.TID 0000.0001)  ploadbar=  1.01106038296416E+05
 cg2d: Sum(rhs),rhsMax =  -6.07235629503549E+01  1.20147930349439E+00
(PID.TID 0000.0001)  ploadbar=  1.01105348651532E+05
 cg2d: Sum(rhs),rhsMax =  -6.07131342617963E+01  1.20214892117124E+00
(PID.TID 0000.0001)  ploadbar=  1.01104659006648E+05
 cg2d: Sum(rhs),rhsMax =  -6.07341774920812E+01  1.20218661972526E+00
(PID.TID 0000.0001)  ploadbar=  1.01103969361764E+05
 cg2d: Sum(rhs),rhsMax =  -6.09143375795867E+01  1.19907496161957E+00
(PID.TID 0000.0001)  ploadbar=  1.01103279716880E+05
 cg2d: Sum(rhs),rhsMax =  -6.12675761610608E+01  1.19259539084394E+00
(PID.TID 0000.0001)  ploadbar=  1.01102590071997E+05
 cg2d: Sum(rhs),rhsMax =  -6.17799534575192E+01  1.18314056021442E+00
(PID.TID 0000.0001)  ploadbar=  1.01103144254783E+05
 cg2d: Sum(rhs),rhsMax =  -6.24341179363683E+01  1.17117384070217E+00
(PID.TID 0000.0001)  ploadbar=  1.01103698437569E+05
 cg2d: Sum(rhs),rhsMax =  -6.27376466638424E+01  1.16593218701006E+00
(PID.TID 0000.0001)  ploadbar=  1.01104252620356E+05
 cg2d: Sum(rhs),rhsMax =  -6.28522822663025E+01  1.16422676351607E+00
(PID.TID 0000.0001)  ploadbar=  1.01104806803142E+05
 cg2d: Sum(rhs),rhsMax =  -6.29665774706315E+01  1.16253012858414E+00
(PID.TID 0000.0001)  ploadbar=  1.01105360985929E+05
 cg2d: Sum(rhs),rhsMax =  -6.30802227422307E+01  1.16084747667714E+00
(PID.TID 0000.0001)  ploadbar=  1.01105915168715E+05
 cg2d: Sum(rhs),rhsMax =  -6.31907094249716E+01  1.15920475613812E+00
(PID.TID 0000.0001)  ploadbar=  1.01106792428384E+05
 cg2d: Sum(rhs),rhsMax =  -6.32999907012597E+01  1.15756134728714E+00
(PID.TID 0000.0001)  ploadbar=  1.01107669688053E+05
 cg2d: Sum(rhs),rhsMax =  -6.34068055074402E+01  1.15594038432624E+00
(PID.TID 0000.0001)  ploadbar=  1.01108546947722E+05
 cg2d: Sum(rhs),rhsMax =  -6.35093996619832E+01  1.15437471838601E+00
(PID.TID 0000.0001)  ploadbar=  1.01109424207391E+05
 cg2d: Sum(rhs),rhsMax =  -6.36074134175169E+01  1.15287038672358E+00
(PID.TID 0000.0001)  ploadbar=  1.01110301467060E+05
 cg2d: Sum(rhs),rhsMax =  -6.36999974194788E+01  1.15143851007598E+00
(PID.TID 0000.0001)  ploadbar=  1.01111178726729E+05
 cg2d: Sum(rhs),rhsMax =  -6.37888530404605E+01  1.15012484770203E+00
(PID.TID 0000.0001)  ploadbar=  1.01112834359122E+05
 cg2d: Sum(rhs),rhsMax =  -6.38793906188282E+01  1.14882507605670E+00
(PID.TID 0000.0001)  ploadbar=  1.01114489991515E+05
 cg2d: Sum(rhs),rhsMax =  -6.39720003348668E+01  1.14753068012563E+00
(PID.TID 0000.0001)  ploadbar=  1.01116145623908E+05
 cg2d: Sum(rhs),rhsMax =  -6.40667628263490E+01  1.14624026934012E+00
(PID.TID 0000.0001)  ploadbar=  1.01117801256301E+05
 cg2d: Sum(rhs),rhsMax =  -6.41652662043479E+01  1.14492599490763E+00
(PID.TID 0000.0001)  ploadbar=  1.01119456888694E+05
 cg2d: Sum(rhs),rhsMax =  -6.41938735311534E+01  1.14489937415853E+00
(PID.TID 0000.0001)  ploadbar=  1.01121112521087E+05
 cg2d: Sum(rhs),rhsMax =  -6.41473112589037E+01  1.14620280146396E+00
(PID.TID 0000.0001)  ploadbar=  1.01122428013007E+05
 cg2d: Sum(rhs),rhsMax =  -6.41400201895401E+01  1.14679646738463E+00
(PID.TID 0000.0001)  ploadbar=  1.01123743504928E+05
 cg2d: Sum(rhs),rhsMax =  -6.41904345484767E+01  1.14635043631877E+00
(PID.TID 0000.0001)  ploadbar=  1.01125058996848E+05
 cg2d: Sum(rhs),rhsMax =  -6.43019879425419E+01  1.14480709126519E+00
(PID.TID 0000.0001)  ploadbar=  1.01126374488769E+05
 cg2d: Sum(rhs),rhsMax =  -6.44800157818454E+01  1.14208349285975E+00
(PID.TID 0000.0001)  ploadbar=  1.01127689980690E+05
 cg2d: Sum(rhs),rhsMax =  -6.47185241910469E+01  1.13830434082500E+00
(PID.TID 0000.0001)  ploadbar=  1.01129005472610E+05
 cg2d: Sum(rhs),rhsMax =  -6.49955504711509E+01  1.13387918622989E+00
(PID.TID 0000.0001)  ploadbar=  1.01129441914724E+05
 cg2d: Sum(rhs),rhsMax =  -6.50904882097823E+01  1.13264460880062E+00
(PID.TID 0000.0001)  ploadbar=  1.01129878356838E+05
 cg2d: Sum(rhs),rhsMax =  -6.51858071908664E+01  1.13139880610821E+00
(PID.TID 0000.0001)  ploadbar=  1.01130314798952E+05
 cg2d: Sum(rhs),rhsMax =  -6.52794657742593E+01  1.13017799859962E+00
(PID.TID 0000.0001)  ploadbar=  1.01130751241066E+05
 cg2d: Sum(rhs),rhsMax =  -6.53685671723514E+01  1.12903193756713E+00
(PID.TID 0000.0001)  ploadbar=  1.01131187683180E+05
 cg2d: Sum(rhs),rhsMax =  -6.54515168879408E+01  1.12798898888945E+00
(PID.TID 0000.0001)  ploadbar=  1.01131624125294E+05
 cg2d: Sum(rhs),rhsMax =  -6.55403583465010E+01  1.12677798923745E+00
(PID.TID 0000.0001)  ploadbar=  1.01132742994063E+05
 cg2d: Sum(rhs),rhsMax =  -6.56168753946799E+01  1.12571093025696E+00
(PID.TID 0000.0001)  ploadbar=  1.01133861862831E+05
 cg2d: Sum(rhs),rhsMax =  -6.56831100508917E+01  1.12475377067405E+00
(PID.TID 0000.0001)  ploadbar=  1.01134980731600E+05
 cg2d: Sum(rhs),rhsMax =  -6.57435402472527E+01  1.12382975632216E+00
(PID.TID 0000.0001)  ploadbar=  1.01136099600369E+05
 cg2d: Sum(rhs),rhsMax =  -6.57975927617738E+01  1.12294696494148E+00
(PID.TID 0000.0001)  ploadbar=  1.01137218469137E+05
 cg2d: Sum(rhs),rhsMax =  -6.58447234170806E+01  1.12210961170384E+00
(PID.TID 0000.0001)  ploadbar=  1.01138337337906E+05
 cg2d: Sum(rhs),rhsMax =  -6.58864488643874E+01  1.12141253268958E+00
(PID.TID 0000.0001)  ploadbar=  1.01138990439520E+05
 cg2d: Sum(rhs),rhsMax =  -6.59235004740038E+01  1.12084182599846E+00
(PID.TID 0000.0001)  ploadbar=  1.01139643541135E+05
 cg2d: Sum(rhs),rhsMax =  -6.59621298665502E+01  1.12029144364416E+00
(PID.TID 0000.0001)  ploadbar=  1.01140296642749E+05
 cg2d: Sum(rhs),rhsMax =  -6.60043231281375E+01  1.11972822888415E+00
(PID.TID 0000.0001)  ploadbar=  1.01140949744364E+05
 cg2d: Sum(rhs),rhsMax =  -6.53740091764110E+01  1.13072544446777E+00
(PID.TID 0000.0001)  ploadbar=  1.01141602845978E+05
 cg2d: Sum(rhs),rhsMax =  -6.44806091378875E+01  1.14664328745660E+00
(PID.TID 0000.0001)  ploadbar=  1.01142255947592E+05
 cg2d: Sum(rhs),rhsMax =  -6.35522492657268E+01  1.16363604292437E+00
(PID.TID 0000.0001)  ploadbar=  1.01142744952462E+05
 cg2d: Sum(rhs),rhsMax =  -6.25977990892286E+01  1.18160969328781E+00
(PID.TID 0000.0001)  ploadbar=  1.01143233957332E+05
 cg2d: Sum(rhs),rhsMax =  -6.16567933159176E+01  1.19986305379140E+00
(PID.TID 0000.0001)  ploadbar=  1.01143722962201E+05
 cg2d: Sum(rhs),rhsMax =  -6.07468286132227E+01  1.21804132658585E+00
(PID.TID 0000.0001)  ploadbar=  1.01144211967071E+05
 cg2d: Sum(rhs),rhsMax =  -5.98656200329381E+01  1.23616046291110E+00
(PID.TID 0000.0001)  ploadbar=  1.01144700971940E+05
 cg2d: Sum(rhs),rhsMax =  -5.90609444849108E+01  1.25317889492522E+00
(PID.TID 0000.0001)  ploadbar=  1.01145189976810E+05
 cg2d: Sum(rhs),rhsMax =  -5.83325853145141E+01  1.26903614847284E+00
(PID.TID 0000.0001)  ploadbar=  1.01146070302159E+05
 cg2d: Sum(rhs),rhsMax =  -5.77076506571838E+01  1.28301180334011E+00
(PID.TID 0000.0001)  ploadbar=  1.01146950627509E+05
 cg2d: Sum(rhs),rhsMax =  -5.72076820211155E+01  1.29447673378812E+00
(PID.TID 0000.0001)  ploadbar=  1.01147830952858E+05
 cg2d: Sum(rhs),rhsMax =  -5.68319302455935E+01  1.30330532681287E+00
(PID.TID 0000.0001)  ploadbar=  1.01148711278208E+05
 cg2d: Sum(rhs),rhsMax =  -5.65818472199630E+01  1.30935197442221E+00
(PID.TID 0000.0001)  ploadbar=  1.01149591603557E+05
 cg2d: Sum(rhs),rhsMax =  -5.64317589843562E+01  1.31313876762138E+00
(PID.TID 0000.0001)  ploadbar=  1.01150471928906E+05
 cg2d: Sum(rhs),rhsMax =  -5.63851989123456E+01  1.31447542480557E+00
(PID.TID 0000.0001)  ploadbar=  1.01150312956801E+05
 cg2d: Sum(rhs),rhsMax =  -5.63797609345606E+01  1.31480061839770E+00
(PID.TID 0000.0001)  ploadbar=  1.01150153984696E+05
 cg2d: Sum(rhs),rhsMax =  -5.64146088713013E+01  1.31413160589551E+00
(PID.TID 0000.0001)  ploadbar=  1.01149995012590E+05
 cg2d: Sum(rhs),rhsMax =  -5.64814263314570E+01  1.31266489625313E+00
(PID.TID 0000.0001)  ploadbar=  1.01149836040485E+05
 cg2d: Sum(rhs),rhsMax =  -5.65755621757110E+01  1.31051302925543E+00
(PID.TID 0000.0001)  ploadbar=  1.01149677068380E+05
 cg2d: Sum(rhs),rhsMax =  -5.66983000907980E+01  1.30764266899359E+00
(PID.TID 0000.0001)  ploadbar=  1.01149518096274E+05
 cg2d: Sum(rhs),rhsMax =  -5.69677603325131E+01  1.30151523424848E+00
(PID.TID 0000.0001)  ploadbar=  1.01148826412879E+05
 cg2d: Sum(rhs),rhsMax =  -5.72316068297899E+01  1.29566089643495E+00
(PID.TID 0000.0001)  ploadbar=  1.01148134729483E+05
 cg2d: Sum(rhs),rhsMax =  -5.75652383788623E+01  1.28838100021623E+00
(PID.TID 0000.0001)  ploadbar=  1.01147443046088E+05
 cg2d: Sum(rhs),rhsMax =  -5.80229231991568E+01  1.27852742381626E+00
(PID.TID 0000.0001)  ploadbar=  1.01146751362692E+05
 cg2d: Sum(rhs),rhsMax =  -5.79772596219711E+01  1.27992474853779E+00
(PID.TID 0000.0001)  ploadbar=  1.01146059679296E+05
 cg2d: Sum(rhs),rhsMax =  -5.73596971041602E+01  1.29417819621650E+00
(PID.TID 0000.0001)  ploadbar=  1.01145367995901E+05
 cg2d: Sum(rhs),rhsMax =  -5.67523495617444E+01  1.30846807552817E+00
(PID.TID 0000.0001)  ploadbar=  1.01145278734782E+05
 cg2d: Sum(rhs),rhsMax =  -5.62435940325285E+01  1.32070577357577E+00
(PID.TID 0000.0001)  ploadbar=  1.01145189473664E+05
 cg2d: Sum(rhs),rhsMax =  -5.57567950841445E+01  1.33260057215262E+00
(PID.TID 0000.0001)  ploadbar=  1.01145100212546E+05
 cg2d: Sum(rhs),rhsMax =  -5.52625283112974E+01  1.34484834349900E+00
(PID.TID 0000.0001)  ploadbar=  1.01145010951427E+05
 cg2d: Sum(rhs),rhsMax =  -5.48725953313650E+01  1.35469721200048E+00
(PID.TID 0000.0001)  ploadbar=  1.01144921690309E+05
 cg2d: Sum(rhs),rhsMax =  -5.46264716945370E+01  1.36105969946282E+00
(PID.TID 0000.0001)  ploadbar=  1.01144832429190E+05
 cg2d: Sum(rhs),rhsMax =  -5.44839181891350E+01  1.36493948762034E+00
(PID.TID 0000.0001)  ploadbar=  1.01144666659087E+05
 cg2d: Sum(rhs),rhsMax =  -5.44041196804063E+01  1.36730413651513E+00
(PID.TID 0000.0001)  ploadbar=  1.01144500888984E+05
 cg2d: Sum(rhs),rhsMax =  -5.43386954812275E+01  1.36935558086932E+00
(PID.TID 0000.0001)  ploadbar=  1.01144335118881E+05
 cg2d: Sum(rhs),rhsMax =  -5.42880627372284E+01  1.37108363583536E+00
(PID.TID 0000.0001)  ploadbar=  1.01144169348778E+05
 cg2d: Sum(rhs),rhsMax =  -5.42428916431875E+01  1.37272277404863E+00
(PID.TID 0000.0001)  ploadbar=  1.01144003578675E+05
 cg2d: Sum(rhs),rhsMax =  -5.41919939552279E+01  1.37455466439928E+00
(PID.TID 0000.0001)  ploadbar=  1.01143837808572E+05
 cg2d: Sum(rhs),rhsMax =  -5.41340823783933E+01  1.37652837441313E+00
(PID.TID 0000.0001)  ploadbar=  1.01142980129414E+05
 cg2d: Sum(rhs),rhsMax =  -5.40842008746441E+01  1.37826122519268E+00
(PID.TID 0000.0001)  ploadbar=  1.01142122450255E+05
 cg2d: Sum(rhs),rhsMax =  -5.40350473084451E+01  1.37993664605294E+00
(PID.TID 0000.0001)  ploadbar=  1.01141264771097E+05
 cg2d: Sum(rhs),rhsMax =  -5.39971018372958E+01  1.38128756249907E+00
(PID.TID 0000.0001)  ploadbar=  1.01140407091938E+05
 cg2d: Sum(rhs),rhsMax =  -5.39835042566299E+01  1.38197026146003E+00
(PID.TID 0000.0001)  ploadbar=  1.01139549412780E+05
 cg2d: Sum(rhs),rhsMax =  -5.40017813575470E+01  1.38178132311247E+00
(PID.TID 0000.0001)  ploadbar=  1.01138691733622E+05
 cg2d: Sum(rhs),rhsMax =  -5.40208420289594E+01  1.38162366631728E+00
(PID.TID 0000.0001)  ploadbar=  1.01139273009373E+05
 cg2d: Sum(rhs),rhsMax =  -5.40642935241484E+01  1.38089162151086E+00
(PID.TID 0000.0001)  ploadbar=  1.01139854285125E+05
 cg2d: Sum(rhs),rhsMax =  -5.41156074656173E+01  1.38000607582123E+00
(PID.TID 0000.0001)  ploadbar=  1.01140435560877E+05
 cg2d: Sum(rhs),rhsMax =  -5.41707280069842E+01  1.37906975841120E+00
(PID.TID 0000.0001)  ploadbar=  1.01141016836629E+05
 cg2d: Sum(rhs),rhsMax =  -5.42284395134231E+01  1.37811478410612E+00
(PID.TID 0000.0001)  ploadbar=  1.01141598112380E+05
 cg2d: Sum(rhs),rhsMax =  -5.38562340745837E+01  1.38819978723224E+00
(PID.TID 0000.0001)  ploadbar=  1.01142179388132E+05
 cg2d: Sum(rhs),rhsMax =  -5.35295276574222E+01  1.39721225904741E+00
(PID.TID 0000.0001)  ploadbar=  1.01141632540320E+05
 cg2d: Sum(rhs),rhsMax =  -5.32411620987307E+01  1.40529708234409E+00
(PID.TID 0000.0001)  ploadbar=  1.01141085692508E+05
 cg2d: Sum(rhs),rhsMax =  -5.29804152074283E+01  1.41270665237331E+00
(PID.TID 0000.0001)  ploadbar=  1.01140538844696E+05
 cg2d: Sum(rhs),rhsMax =  -5.27534925900446E+01  1.41925465055072E+00
(PID.TID 0000.0001)  ploadbar=  1.01139991996884E+05
 cg2d: Sum(rhs),rhsMax =  -5.25666857827786E+01  1.42474717796529E+00
(PID.TID 0000.0001)  ploadbar=  1.01139445149072E+05
 cg2d: Sum(rhs),rhsMax =  -5.24286123298208E+01  1.42892687698186E+00
(PID.TID 0000.0001)  ploadbar=  1.01138898301261E+05
 cg2d: Sum(rhs),rhsMax =  -5.22895630557186E+01  1.43317622017428E+00
(PID.TID 0000.0001)  ploadbar=  1.01137338028573E+05
 cg2d: Sum(rhs),rhsMax =  -5.21960685484284E+01  1.43620994215426E+00
(PID.TID 0000.0001)  ploadbar=  1.01135777755886E+05
 cg2d: Sum(rhs),rhsMax =  -5.21533983855138E+01  1.43786736446268E+00
(PID.TID 0000.0001)  ploadbar=  1.01134217483198E+05
 cg2d: Sum(rhs),rhsMax =  -5.21423859162551E+01  1.43866964031004E+00
(PID.TID 0000.0001)  ploadbar=  1.01132657210511E+05
 cg2d: Sum(rhs),rhsMax =  -5.21719886756528E+01  1.43837119731988E+00
(PID.TID 0000.0001)  ploadbar=  1.01131096937824E+05
 cg2d: Sum(rhs),rhsMax =  -5.22477781162624E+01  1.43682112703661E+00
(PID.TID 0000.0001)  ploadbar=  1.01129536665136E+05
 cg2d: Sum(rhs),rhsMax =  -5.23898304859569E+01  1.43340894348318E+00
(PID.TID 0000.0001)  ploadbar=  1.01128523156498E+05
 cg2d: Sum(rhs),rhsMax =  -5.25449347870723E+01  1.42960461518477E+00
(PID.TID 0000.0001)  ploadbar=  1.01127509647859E+05
 cg2d: Sum(rhs),rhsMax =  -5.27316868434409E+01  1.42491355541917E+00
(PID.TID 0000.0001)  ploadbar=  1.01126496139220E+05
 cg2d: Sum(rhs),rhsMax =  -5.29300504083082E+01  1.41988945710575E+00
(PID.TID 0000.0001)  ploadbar=  1.01125482630582E+05
 cg2d: Sum(rhs),rhsMax =  -5.31435510375838E+01  1.41444021797201E+00
(PID.TID 0000.0001)  ploadbar=  1.01124469121943E+05
 cg2d: Sum(rhs),rhsMax =  -5.33669366097088E+01  1.40870715701794E+00
(PID.TID 0000.0001)  ploadbar=  1.01123455613305E+05
 cg2d: Sum(rhs),rhsMax =  -5.36585438209515E+01  1.40129086490604E+00
(PID.TID 0000.0001)  ploadbar=  1.01123031552206E+05
 cg2d: Sum(rhs),rhsMax =  -5.39608323445942E+01  1.39372987506254E+00
(PID.TID 0000.0001)  ploadbar=  1.01122607491108E+05
 cg2d: Sum(rhs),rhsMax =  -5.42634246501015E+01  1.38629679931271E+00
(PID.TID 0000.0001)  ploadbar=  1.01122183430009E+05
 cg2d: Sum(rhs),rhsMax =  -5.45442937636305E+01  1.37954766637594E+00
(PID.TID 0000.0001)  ploadbar=  1.01121759368910E+05
 cg2d: Sum(rhs),rhsMax =  -5.45973056475405E+01  1.37864963326804E+00
(PID.TID 0000.0001)  ploadbar=  1.01121335307812E+05
 cg2d: Sum(rhs),rhsMax =  -5.46748761604186E+01  1.37718448652479E+00
(PID.TID 0000.0001)  ploadbar=  1.01120911246713E+05
 cg2d: Sum(rhs),rhsMax =  -5.47616568712620E+01  1.37550557920243E+00
(PID.TID 0000.0001)  ploadbar=  1.01120006456304E+05
 cg2d: Sum(rhs),rhsMax =  -5.48412821970636E+01  1.37402003126609E+00
(PID.TID 0000.0001)  ploadbar=  1.01119101665894E+05
 cg2d: Sum(rhs),rhsMax =  -5.49203338797148E+01  1.37256063665716E+00
(PID.TID 0000.0001)  ploadbar=  1.01118196875485E+05
 cg2d: Sum(rhs),rhsMax =  -5.49950345538826E+01  1.37122084836399E+00
(PID.TID 0000.0001)  ploadbar=  1.01117292085075E+05
 cg2d: Sum(rhs),rhsMax =  -5.50604176896170E+01  1.37012375620868E+00
(PID.TID 0000.0001)  ploadbar=  1.01116387294666E+05
 cg2d: Sum(rhs),rhsMax =  -5.51168929920176E+01  1.36926221169122E+00
(PID.TID 0000.0001)  ploadbar=  1.01115482504256E+05
 cg2d: Sum(rhs),rhsMax =  -5.51081671541920E+01  1.37003382483175E+00
(PID.TID 0000.0001)  ploadbar=  1.01115349068450E+05
 cg2d: Sum(rhs),rhsMax =  -5.50946204610028E+01  1.37093386406127E+00
(PID.TID 0000.0001)  ploadbar=  1.01115215632643E+05
 cg2d: Sum(rhs),rhsMax =  -5.50449481054061E+01  1.37274145931427E+00
(PID.TID 0000.0001)  ploadbar=  1.01115082196837E+05
 cg2d: Sum(rhs),rhsMax =  -5.50023833371306E+01  1.37438095010541E+00
(PID.TID 0000.0001)  ploadbar=  1.01114948761030E+05
 cg2d: Sum(rhs),rhsMax =  -5.49620431845861E+01  1.37596999177552E+00
(PID.TID 0000.0001)  ploadbar=  1.01114815325224E+05
 cg2d: Sum(rhs),rhsMax =  -5.49236769759508E+01  1.37751651840007E+00
(PID.TID 0000.0001)  ploadbar=  1.01114681889417E+05
 cg2d: Sum(rhs),rhsMax =  -5.49234591812217E+01  1.37804177596990E+00
(PID.TID 0000.0001)  ploadbar=  1.01115414858209E+05
 cg2d: Sum(rhs),rhsMax =  -5.49201747864434E+01  1.37857269420973E+00
(PID.TID 0000.0001)  ploadbar=  1.01116147827001E+05
 cg2d: Sum(rhs),rhsMax =  -5.49113165786337E+01  1.37917118076099E+00
(PID.TID 0000.0001)  ploadbar=  1.01116880795793E+05
 cg2d: Sum(rhs),rhsMax =  -5.49020153844777E+01  1.37970886017143E+00
(PID.TID 0000.0001)  ploadbar=  1.01117613764585E+05
 cg2d: Sum(rhs),rhsMax =  -5.48873328995905E+01  1.38030657081757E+00
(PID.TID 0000.0001)  ploadbar=  1.01118346733377E+05
 cg2d: Sum(rhs),rhsMax =  -5.48671729914707E+01  1.38095894904044E+00
(PID.TID 0000.0001)  ploadbar=  1.01119079702169E+05
 cg2d: Sum(rhs),rhsMax =  -5.48664172728391E+01  1.38120835919554E+00
(PID.TID 0000.0001)  ploadbar=  1.01121456037074E+05
 cg2d: Sum(rhs),rhsMax =  -5.48732487320759E+01  1.38134932967736E+00
(PID.TID 0000.0001)  ploadbar=  1.01123832371979E+05
 cg2d: Sum(rhs),rhsMax =  -5.48888221680910E+01  1.38135239313740E+00
(PID.TID 0000.0001)  ploadbar=  1.01126208706885E+05
 cg2d: Sum(rhs),rhsMax =  -5.49131404964304E+01  1.38121608293953E+00
(PID.TID 0000.0001)  ploadbar=  1.01128585041790E+05
 cg2d: Sum(rhs),rhsMax =  -5.49428183305551E+01  1.38102574941710E+00
(PID.TID 0000.0001)  ploadbar=  1.01130961376695E+05
 cg2d: Sum(rhs),rhsMax =  -5.49752514236658E+01  1.38084607364668E+00
(PID.TID 0000.0001)  ploadbar=  1.01133337711600E+05
 cg2d: Sum(rhs),rhsMax =  -5.50205530208260E+01  1.38033792136929E+00
(PID.TID 0000.0001)  ploadbar=  1.01136020827045E+05
 cg2d: Sum(rhs),rhsMax =  -5.50604596831148E+01  1.37995329731398E+00
(PID.TID 0000.0001)  ploadbar=  1.01138703942489E+05
 cg2d: Sum(rhs),rhsMax =  -5.50921366072980E+01  1.37976179951787E+00
(PID.TID 0000.0001)  ploadbar=  1.01141387057933E+05
 cg2d: Sum(rhs),rhsMax =  -5.51240698055228E+01  1.37955207848493E+00
(PID.TID 0000.0001)  ploadbar=  1.01144070173378E+05
 cg2d: Sum(rhs),rhsMax =  -5.51644493190531E+01  1.37912652091980E+00
(PID.TID 0000.0001)  ploadbar=  1.01146753288822E+05
 cg2d: Sum(rhs),rhsMax =  -5.52165334782682E+01  1.37841610677297E+00
(PID.TID 0000.0001)  ploadbar=  1.01149436404267E+05
 cg2d: Sum(rhs),rhsMax =  -5.52738097701585E+01  1.37758537279265E+00
(PID.TID 0000.0001)  ploadbar=  1.01151700027060E+05
 cg2d: Sum(rhs),rhsMax =  -5.53378029519414E+01  1.37658500580470E+00
(PID.TID 0000.0001)  ploadbar=  1.01153963649853E+05
 cg2d: Sum(rhs),rhsMax =  -5.54070392984023E+01  1.37545011247523E+00
(PID.TID 0000.0001)  ploadbar=  1.01156227272646E+05
 cg2d: Sum(rhs),rhsMax =  -5.54848114784801E+01  1.37410004561643E+00
(PID.TID 0000.0001)  ploadbar=  1.01158490895440E+05
 cg2d: Sum(rhs),rhsMax =  -5.55696702003992E+01  1.37257153716044E+00
(PID.TID 0000.0001)  ploadbar=  1.01160754518233E+05
 cg2d: Sum(rhs),rhsMax =  -5.56586511221459E+01  1.37093988959665E+00
(PID.TID 0000.0001)  ploadbar=  1.01163018141026E+05
 cg2d: Sum(rhs),rhsMax =  -5.57724450089439E+01  1.36864428077628E+00
(PID.TID 0000.0001)  ploadbar=  1.01164271766714E+05
 cg2d: Sum(rhs),rhsMax =  -5.58939916177931E+01  1.36610592211218E+00
(PID.TID 0000.0001)  ploadbar=  1.01165525392401E+05
 cg2d: Sum(rhs),rhsMax =  -5.60027089507323E+01  1.36382942824795E+00
(PID.TID 0000.0001)  ploadbar=  1.01166779018089E+05
 cg2d: Sum(rhs),rhsMax =  -5.60926592925552E+01  1.36195568299895E+00
(PID.TID 0000.0001)  ploadbar=  1.01168032643776E+05
 cg2d: Sum(rhs),rhsMax =  -5.61638078174396E+01  1.36047610382156E+00
(PID.TID 0000.0001)  ploadbar=  1.01169286269464E+05
 cg2d: Sum(rhs),rhsMax =  -5.62134024999921E+01  1.35944843701111E+00
(PID.TID 0000.0001)  ploadbar=  1.01170539895152E+05
 cg2d: Sum(rhs),rhsMax =  -5.63512957749787E+01  1.35634422862744E+00
(PID.TID 0000.0001)  ploadbar=  1.01170886560771E+05
 cg2d: Sum(rhs),rhsMax =  -5.65171054782697E+01  1.35263598574012E+00
(PID.TID 0000.0001)  ploadbar=  1.01171233226391E+05
 cg2d: Sum(rhs),rhsMax =  -5.66987883356790E+01  1.34862031688248E+00
(PID.TID 0000.0001)  ploadbar=  1.01171579892010E+05
 cg2d: Sum(rhs),rhsMax =  -5.68855905292748E+01  1.34455579393857E+00
(PID.TID 0000.0001)  ploadbar=  1.01171926557630E+05
 cg2d: Sum(rhs),rhsMax =  -5.70755997515689E+01  1.34048741902617E+00
(PID.TID 0000.0001)  ploadbar=  1.01172273223250E+05
 cg2d: Sum(rhs),rhsMax =  -5.72835703071788E+01  1.33606917685142E+00
(PID.TID 0000.0001)  ploadbar=  1.01172619888869E+05
 cg2d: Sum(rhs),rhsMax =  -5.75352872875280E+01  1.33064377156703E+00
(PID.TID 0000.0001)  ploadbar=  1.01172951574043E+05
 cg2d: Sum(rhs),rhsMax =  -5.78667558724301E+01  1.32340859291460E+00
(PID.TID 0000.0001)  ploadbar=  1.01173283259217E+05
 cg2d: Sum(rhs),rhsMax =  -5.82508216616198E+01  1.31503719388264E+00
(PID.TID 0000.0001)  ploadbar=  1.01173614944391E+05
 cg2d: Sum(rhs),rhsMax =  -5.86837219436623E+01  1.30565970626124E+00
(PID.TID 0000.0001)  ploadbar=  1.01173946629565E+05
 cg2d: Sum(rhs),rhsMax =  -5.91861749707345E+01  1.29486948331769E+00
(PID.TID 0000.0001)  ploadbar=  1.01174278314738E+05
 cg2d: Sum(rhs),rhsMax =  -5.97898045199358E+01  1.28206291875132E+00
(PID.TID 0000.0001)  ploadbar=  1.01174609999912E+05
 cg2d: Sum(rhs),rhsMax =  -6.04232053560649E+01  1.26894324638997E+00
(PID.TID 0000.0001)  ploadbar=  1.01173873106345E+05
 cg2d: Sum(rhs),rhsMax =  -6.20282141630217E+01  1.23646726161961E+00
(PID.TID 0000.0001)  ploadbar=  1.01173136212778E+05
 cg2d: Sum(rhs),rhsMax =  -6.38728821208275E+01  1.20115076847530E+00
(PID.TID 0000.0001)  ploadbar=  1.01172399319211E+05
 cg2d: Sum(rhs),rhsMax =  -6.40795639130134E+01  1.19771525571925E+00
(PID.TID 0000.0001)  ploadbar=  1.01171662425644E+05
 cg2d: Sum(rhs),rhsMax =  -6.39533339255959E+01  1.20056454878922E+00
(PID.TID 0000.0001)  ploadbar=  1.01170925532077E+05
 cg2d: Sum(rhs),rhsMax =  -6.38371282416555E+01  1.20328296669440E+00
(PID.TID 0000.0001)  ploadbar=  1.01170188638510E+05
 cg2d: Sum(rhs),rhsMax =  -6.37201927547677E+01  1.20595804622504E+00
(PID.TID 0000.0001)  ploadbar=  1.01169965996292E+05
 cg2d: Sum(rhs),rhsMax =  -6.36481287223008E+01  1.20771673193035E+00
(PID.TID 0000.0001)  ploadbar=  1.01169743354074E+05
 cg2d: Sum(rhs),rhsMax =  -6.36055868538434E+01  1.20884335822413E+00
(PID.TID 0000.0001)  ploadbar=  1.01169520711857E+05
 cg2d: Sum(rhs),rhsMax =  -6.35902239310657E+01  1.20938256069874E+00
(PID.TID 0000.0001)  ploadbar=  1.01169298069639E+05
 cg2d: Sum(rhs),rhsMax =  -6.35856315555837E+01  1.20963919628549E+00
(PID.TID 0000.0001)  ploadbar=  1.01169075427421E+05
 cg2d: Sum(rhs),rhsMax =  -6.35629743689030E+01  1.21015727756145E+00
(PID.TID 0000.0001)  ploadbar=  1.01168852785203E+05
 cg2d: Sum(rhs),rhsMax =  -6.34808789264374E+01  1.21184577571084E+00
(PID.TID 0000.0001)  ploadbar=  1.01169387030025E+05
 cg2d: Sum(rhs),rhsMax =  -6.32909850995951E+01  1.21564106317389E+00
(PID.TID 0000.0001)  ploadbar=  1.01169921274847E+05
 cg2d: Sum(rhs),rhsMax =  -6.29939307919546E+01  1.22156914345926E+00
(PID.TID 0000.0001)  ploadbar=  1.01170455519669E+05
 cg2d: Sum(rhs),rhsMax =  -6.26276993995559E+01  1.22894421396176E+00
(PID.TID 0000.0001)  ploadbar=  1.01170989764491E+05
 cg2d: Sum(rhs),rhsMax =  -6.22719918347864E+01  1.23623079099469E+00
(PID.TID 0000.0001)  ploadbar=  1.01171524009313E+05
 cg2d: Sum(rhs),rhsMax =  -6.19822472767013E+01  1.24231311442227E+00
(PID.TID 0000.0001)  ploadbar=  1.01172058254135E+05
 cg2d: Sum(rhs),rhsMax =  -6.18162267404589E+01  1.24593790925789E+00
(PID.TID 0000.0001)  ploadbar=  1.01171796891589E+05
 cg2d: Sum(rhs),rhsMax =  -6.17183290104977E+01  1.24818541121757E+00
(PID.TID 0000.0001)  ploadbar=  1.01171535529044E+05
 cg2d: Sum(rhs),rhsMax =  -6.17035206193009E+01  1.24874133230545E+00
(PID.TID 0000.0001)  ploadbar=  1.01171274166498E+05
 cg2d: Sum(rhs),rhsMax =  -6.17767185562705E+01  1.24750475724123E+00
(PID.TID 0000.0001)  ploadbar=  1.01171012803952E+05
 cg2d: Sum(rhs),rhsMax =  -6.19368494444424E+01  1.24451108860628E+00
(PID.TID 0000.0001)  ploadbar=  1.01170751441406E+05
 cg2d: Sum(rhs),rhsMax =  -6.21853257493431E+01  1.23976691581613E+00
(PID.TID 0000.0001)  ploadbar=  1.01170490078860E+05
 cg2d: Sum(rhs),rhsMax =  -6.25491315615770E+01  1.23282611098734E+00
(PID.TID 0000.0001)  ploadbar=  1.01170199969621E+05
 cg2d: Sum(rhs),rhsMax =  -6.29635504366021E+01  1.22501530518021E+00
(PID.TID 0000.0001)  ploadbar=  1.01169909860381E+05
 cg2d: Sum(rhs),rhsMax =  -6.34320320831644E+01  1.21630448961962E+00
(PID.TID 0000.0001)  ploadbar=  1.01169619751141E+05
 cg2d: Sum(rhs),rhsMax =  -6.39389196663725E+01  1.20703445202253E+00
(PID.TID 0000.0001)  ploadbar=  1.01169329641902E+05
 cg2d: Sum(rhs),rhsMax =  -6.44829359911439E+01  1.19726022582399E+00
(PID.TID 0000.0001)  ploadbar=  1.01169039532662E+05
 cg2d: Sum(rhs),rhsMax =  -6.50518531313582E+01  1.18723581262100E+00
(PID.TID 0000.0001)  ploadbar=  1.01168749423423E+05
 cg2d: Sum(rhs),rhsMax =  -6.57255948499185E+01  1.17547032384060E+00
(PID.TID 0000.0001)  ploadbar=  1.01168403221914E+05
 cg2d: Sum(rhs),rhsMax =  -6.63879400609068E+01  1.16410264492251E+00
(PID.TID 0000.0001)  ploadbar=  1.01168057020405E+05
 cg2d: Sum(rhs),rhsMax =  -6.70128356847231E+01  1.15356550943625E+00
(PID.TID 0000.0001)  ploadbar=  1.01167710818896E+05
 cg2d: Sum(rhs),rhsMax =  -6.75650260814600E+01  1.14441999671781E+00
(PID.TID 0000.0001)  ploadbar=  1.01167364617388E+05
 cg2d: Sum(rhs),rhsMax =  -6.80046503833842E+01  1.13726959467400E+00
(PID.TID 0000.0001)  ploadbar=  1.01167018415879E+05
 cg2d: Sum(rhs),rhsMax =  -6.82930169615415E+01  1.13267853063841E+00
(PID.TID 0000.0001)  ploadbar=  1.01166672214370E+05
 cg2d: Sum(rhs),rhsMax =  -6.83807478812227E+01  1.13148786543706E+00
(PID.TID 0000.0001)  ploadbar=  1.01166412029816E+05
 cg2d: Sum(rhs),rhsMax =  -6.83905115056671E+01  1.13163812563554E+00
(PID.TID 0000.0001)  ploadbar=  1.01166151845261E+05
 cg2d: Sum(rhs),rhsMax =  -6.84355997189814E+01  1.13125515213409E+00
(PID.TID 0000.0001)  ploadbar=  1.01165891660706E+05
 cg2d: Sum(rhs),rhsMax =  -6.87252791189146E+01  1.12689784465137E+00
(PID.TID 0000.0001)  ploadbar=  1.01165631476152E+05
 cg2d: Sum(rhs),rhsMax =  -6.93015781859272E+01  1.11798376667017E+00
(PID.TID 0000.0001)  ploadbar=  1.01165371291597E+05
 cg2d: Sum(rhs),rhsMax =  -6.99036863533789E+01  1.10885594126201E+00
(PID.TID 0000.0001)  ploadbar=  1.01165111107043E+05
 cg2d: Sum(rhs),rhsMax =  -7.02025764298335E+01  1.10463980554673E+00
(PID.TID 0000.0001)  ploadbar=  1.01165252991953E+05
 cg2d: Sum(rhs),rhsMax =  -7.00344260872720E+01  1.10780046899141E+00
(PID.TID 0000.0001)  ploadbar=  1.01165394876864E+05
 cg2d: Sum(rhs),rhsMax =  -6.92188816844577E+01  1.12137087369168E+00
(PID.TID 0000.0001)  ploadbar=  1.01165536761774E+05
 cg2d: Sum(rhs),rhsMax =  -6.78952161772546E+01  1.14376797044245E+00
(PID.TID 0000.0001)  ploadbar=  1.01165678646685E+05
 cg2d: Sum(rhs),rhsMax =  -6.62663859126816E+01  1.17244038446215E+00
(PID.TID 0000.0001)  ploadbar=  1.01165820531595E+05
 cg2d: Sum(rhs),rhsMax =  -6.45041518760894E+01  1.20505703300272E+00
(PID.TID 0000.0001)  ploadbar=  1.01165962416505E+05
 cg2d: Sum(rhs),rhsMax =  -6.27030842459129E+01  1.24029076039363E+00
(PID.TID 0000.0001)  ploadbar=  1.01165139519651E+05
 cg2d: Sum(rhs),rhsMax =  -6.10963511636287E+01  1.27355643837460E+00
(PID.TID 0000.0001)  ploadbar=  1.01164316622796E+05
 cg2d: Sum(rhs),rhsMax =  -5.97244301247580E+01  1.30348590972417E+00
(PID.TID 0000.0001)  ploadbar=  1.01163493725942E+05
 cg2d: Sum(rhs),rhsMax =  -5.86301781068843E+01  1.32851414488847E+00
(PID.TID 0000.0001)  ploadbar=  1.01162670829088E+05
 cg2d: Sum(rhs),rhsMax =  -5.78843362274770E+01  1.34635425722320E+00
(PID.TID 0000.0001)  ploadbar=  1.01161847932233E+05
 cg2d: Sum(rhs),rhsMax =  -5.75293856362958E+01  1.35540435679344E+00
(PID.TID 0000.0001)  ploadbar=  1.01161025035379E+05
 cg2d: Sum(rhs),rhsMax =  -5.72858653489986E+01  1.36181756042838E+00
(PID.TID 0000.0001)  ploadbar=  1.01159815421633E+05
 cg2d: Sum(rhs),rhsMax =  -5.73797802689039E+01  1.36014254794148E+00
(PID.TID 0000.0001)  ploadbar=  1.01158605807888E+05
 cg2d: Sum(rhs),rhsMax =  -5.78372281873282E+01  1.34984144737525E+00
(PID.TID 0000.0001)  ploadbar=  1.01157396194143E+05
 cg2d: Sum(rhs),rhsMax =  -5.85744827694927E+01  1.33321463708743E+00
(PID.TID 0000.0001)  ploadbar=  1.01156186580398E+05
 cg2d: Sum(rhs),rhsMax =  -5.95688505851154E+01  1.31123334820752E+00
(PID.TID 0000.0001)  ploadbar=  1.01154976966653E+05
 cg2d: Sum(rhs),rhsMax =  -6.07961750102863E+01  1.28494546851885E+00
(PID.TID 0000.0001)  ploadbar=  1.01153767352908E+05
 cg2d: Sum(rhs),rhsMax =  -6.20696267191622E+01  1.25884393710487E+00
(PID.TID 0000.0001)  ploadbar=  1.01152669937715E+05
 cg2d: Sum(rhs),rhsMax =  -6.30108979277097E+01  1.24037398339032E+00
(PID.TID 0000.0001)  ploadbar=  1.01151572522522E+05
 cg2d: Sum(rhs),rhsMax =  -6.35905180927846E+01  1.22947675488962E+00
(PID.TID 0000.0001)  ploadbar=  1.01150475107329E+05
 cg2d: Sum(rhs),rhsMax =  -6.38977720612523E+01  1.22405055667629E+00
(PID.TID 0000.0001)  ploadbar=  1.01149377692136E+05
 cg2d: Sum(rhs),rhsMax =  -6.40860816975523E+01  1.22101938296767E+00
(PID.TID 0000.0001)  ploadbar=  1.01148280276944E+05
 cg2d: Sum(rhs),rhsMax =  -6.42736129619372E+01  1.21810076866832E+00
(PID.TID 0000.0001)  ploadbar=  1.01147182861751E+05
 cg2d: Sum(rhs),rhsMax =  -6.46853893800826E+01  1.21097848756997E+00
(PID.TID 0000.0001)  ploadbar=  1.01146502013109E+05
 cg2d: Sum(rhs),rhsMax =  -6.51626169112761E+01  1.20272864553581E+00
(PID.TID 0000.0001)  ploadbar=  1.01145821164466E+05
 cg2d: Sum(rhs),rhsMax =  -6.56536292578755E+01  1.19434067517333E+00
(PID.TID 0000.0001)  ploadbar=  1.01145140315824E+05
 cg2d: Sum(rhs),rhsMax =  -6.57706912811213E+01  1.19281603038616E+00
(PID.TID 0000.0001)  ploadbar=  1.01144459467182E+05
 cg2d: Sum(rhs),rhsMax =  -6.56154616929617E+01  1.19624365043263E+00
(PID.TID 0000.0001)  ploadbar=  1.01143778618539E+05
 cg2d: Sum(rhs),rhsMax =  -6.54819703246124E+01  1.19929692291024E+00
(PID.TID 0000.0001)  ploadbar=  1.01143097769897E+05
 cg2d: Sum(rhs),rhsMax =  -6.54118831044893E+01  1.20119739698169E+00
(PID.TID 0000.0001)  ploadbar=  1.01142112627958E+05
 cg2d: Sum(rhs),rhsMax =  -6.54002705923183E+01  1.20201621508056E+00
(PID.TID 0000.0001)  ploadbar=  1.01141127486018E+05
 cg2d: Sum(rhs),rhsMax =  -6.54515320453237E+01  1.20166932067908E+00
(PID.TID 0000.0001)  ploadbar=  1.01140142344079E+05
 cg2d: Sum(rhs),rhsMax =  -6.55580880595815E+01  1.20030058710830E+00
(PID.TID 0000.0001)  ploadbar=  1.01139157202140E+05
 cg2d: Sum(rhs),rhsMax =  -6.57163992649952E+01  1.19798468286535E+00
(PID.TID 0000.0001)  ploadbar=  1.01138172060200E+05
 cg2d: Sum(rhs),rhsMax =  -6.59198624278597E+01  1.19485458630622E+00
(PID.TID 0000.0001)  ploadbar=  1.01137186918261E+05
 cg2d: Sum(rhs),rhsMax =  -6.61246384015036E+01  1.19164741081948E+00
(PID.TID 0000.0001)  ploadbar=  1.01135858037308E+05
 cg2d: Sum(rhs),rhsMax =  -6.60926228043482E+01  1.19264139849037E+00
(PID.TID 0000.0001)  ploadbar=  1.01134529156354E+05
 cg2d: Sum(rhs),rhsMax =  -6.60380837785664E+01  1.19396813977907E+00
(PID.TID 0000.0001)  ploadbar=  1.01133200275401E+05
 cg2d: Sum(rhs),rhsMax =  -6.59689786707296E+01  1.19548967481988E+00
(PID.TID 0000.0001)  ploadbar=  1.01131871394447E+05
 cg2d: Sum(rhs),rhsMax =  -6.58745626127061E+01  1.19740637479744E+00
(PID.TID 0000.0001)  ploadbar=  1.01130542513494E+05
 cg2d: Sum(rhs),rhsMax =  -6.57592516832635E+01  1.19963852025156E+00
(PID.TID 0000.0001)  ploadbar=  1.01129213632540E+05
 cg2d: Sum(rhs),rhsMax =  -6.55788036909380E+01  1.20312022691081E+00
(PID.TID 0000.0001)  ploadbar=  1.01129978402546E+05
 cg2d: Sum(rhs),rhsMax =  -6.53862579489314E+01  1.20689272285451E+00
(PID.TID 0000.0001)  ploadbar=  1.01130743172552E+05
 cg2d: Sum(rhs),rhsMax =  -6.51877274236864E+01  1.21084783513905E+00
(PID.TID 0000.0001)  ploadbar=  1.01131507942559E+05
 cg2d: Sum(rhs),rhsMax =  -6.49947410077879E+01  1.21477359571149E+00
(PID.TID 0000.0001)  ploadbar=  1.01132272712565E+05
 cg2d: Sum(rhs),rhsMax =  -6.48157166889081E+01  1.21851045030662E+00
(PID.TID 0000.0001)  ploadbar=  1.01133037482571E+05
 cg2d: Sum(rhs),rhsMax =  -6.45940634418927E+01  1.22312376477053E+00
(PID.TID 0000.0001)  ploadbar=  1.01133802252577E+05
 cg2d: Sum(rhs),rhsMax =  -6.44037555364412E+01  1.22715816336785E+00
(PID.TID 0000.0001)  ploadbar=  1.01132484449642E+05
 cg2d: Sum(rhs),rhsMax =  -6.42611839864485E+01  1.23028829477072E+00
(PID.TID 0000.0001)  ploadbar=  1.01131166646707E+05
 cg2d: Sum(rhs),rhsMax =  -6.41583851521221E+01  1.23266003542984E+00
(PID.TID 0000.0001)  ploadbar=  1.01129848843772E+05
 cg2d: Sum(rhs),rhsMax =  -6.40881971067419E+01  1.23440581428608E+00
(PID.TID 0000.0001)  ploadbar=  1.01128531040837E+05
 cg2d: Sum(rhs),rhsMax =  -6.40079471791185E+01  1.23635080933983E+00
(PID.TID 0000.0001)  ploadbar=  1.01127213237903E+05
 cg2d: Sum(rhs),rhsMax =  -6.39613277616309E+01  1.23765654141894E+00
(PID.TID 0000.0001)  ploadbar=  1.01125895434968E+05
 cg2d: Sum(rhs),rhsMax =  -6.38348412419845E+01  1.24051408768270E+00
(PID.TID 0000.0001)  ploadbar=  1.01124829209727E+05
 cg2d: Sum(rhs),rhsMax =  -6.37100531760355E+01  1.24334073811518E+00
(PID.TID 0000.0001)  ploadbar=  1.01123762984485E+05
 cg2d: Sum(rhs),rhsMax =  -6.35895141817621E+01  1.24608377401146E+00
(PID.TID 0000.0001)  ploadbar=  1.01122696759244E+05
 cg2d: Sum(rhs),rhsMax =  -6.34746153538258E+01  1.24871218858668E+00
(PID.TID 0000.0001)  ploadbar=  1.01121630534003E+05
 cg2d: Sum(rhs),rhsMax =  -6.33673583021448E+01  1.25118419883569E+00
(PID.TID 0000.0001)  ploadbar=  1.01120564308762E+05
 cg2d: Sum(rhs),rhsMax =  -6.32674183245432E+01  1.25350328759958E+00
(PID.TID 0000.0001)  ploadbar=  1.01119498083521E+05
 cg2d: Sum(rhs),rhsMax =  -6.31753283669768E+01  1.25563375699933E+00
(PID.TID 0000.0001)  ploadbar=  1.01118239131688E+05
 cg2d: Sum(rhs),rhsMax =  -6.30691174636735E+01  1.25801103056391E+00
(PID.TID 0000.0001)  ploadbar=  1.01116980179855E+05
 cg2d: Sum(rhs),rhsMax =  -6.29489465108149E+01  1.26063761815160E+00
(PID.TID 0000.0001)  ploadbar=  1.01115721228022E+05
 cg2d: Sum(rhs),rhsMax =  -6.28270126012554E+01  1.26327398439370E+00
(PID.TID 0000.0001)  ploadbar=  1.01114462276189E+05
 cg2d: Sum(rhs),rhsMax =  -6.26994186925904E+01  1.26600084485270E+00
(PID.TID 0000.0001)  ploadbar=  1.01113203324357E+05
 cg2d: Sum(rhs),rhsMax =  -6.25629190871132E+01  1.26888013224307E+00
(PID.TID 0000.0001)  ploadbar=  1.01111944372524E+05
 cg2d: Sum(rhs),rhsMax =  -6.24033416130329E+01  1.27229624266399E+00
(PID.TID 0000.0001)  ploadbar=  1.01111167582509E+05
 cg2d: Sum(rhs),rhsMax =  -6.22446364608567E+01  1.27576294571197E+00
(PID.TID 0000.0001)  ploadbar=  1.01110390792494E+05
 cg2d: Sum(rhs),rhsMax =  -6.20937941829215E+01  1.27913460233353E+00
(PID.TID 0000.0001)  ploadbar=  1.01109614002479E+05
 cg2d: Sum(rhs),rhsMax =  -6.19536147837331E+01  1.28235161901745E+00
(PID.TID 0000.0001)  ploadbar=  1.01108837212465E+05
 cg2d: Sum(rhs),rhsMax =  -6.18253012698073E+01  1.28538567362944E+00
(PID.TID 0000.0001)  ploadbar=  1.01108060422450E+05
 cg2d: Sum(rhs),rhsMax =  -6.17081586429142E+01  1.28824884727900E+00
(PID.TID 0000.0001)  ploadbar=  1.01107283632435E+05
 cg2d: Sum(rhs),rhsMax =  -6.16388302733707E+01  1.29010480657911E+00
(PID.TID 0000.0001)  ploadbar=  1.01106215628180E+05
 cg2d: Sum(rhs),rhsMax =  -6.15758796373291E+01  1.29181466210150E+00
(PID.TID 0000.0001)  ploadbar=  1.01105147623925E+05
 cg2d: Sum(rhs),rhsMax =  -6.15171828999936E+01  1.29342391436378E+00
(PID.TID 0000.0001)  ploadbar=  1.01104079619670E+05
 cg2d: Sum(rhs),rhsMax =  -6.14631496816576E+01  1.29492739063475E+00
(PID.TID 0000.0001)  ploadbar=  1.01103011615415E+05
 cg2d: Sum(rhs),rhsMax =  -6.14131467838702E+01  1.29634296591289E+00
(PID.TID 0000.0001)  ploadbar=  1.01101943611160E+05
 cg2d: Sum(rhs),rhsMax =  -6.13667685815752E+01  1.29767897951047E+00
(PID.TID 0000.0001)  ploadbar=  1.01100875606905E+05
 cg2d: Sum(rhs),rhsMax =  -6.13058371353116E+01  1.29934803279232E+00
(PID.TID 0000.0001)  ploadbar=  1.01101916688943E+05
 cg2d: Sum(rhs),rhsMax =  -6.12392029072854E+01  1.30115778091981E+00
(PID.TID 0000.0001)  ploadbar=  1.01102957770981E+05
 cg2d: Sum(rhs),rhsMax =  -6.11626222839784E+01  1.30320266282893E+00
(PID.TID 0000.0001)  ploadbar=  1.01103998853019E+05
 cg2d: Sum(rhs),rhsMax =  -6.10685332825835E+01  1.30564710346541E+00
(PID.TID 0000.0001)  ploadbar=  1.01105039935057E+05
 cg2d: Sum(rhs),rhsMax =  -6.09503855313476E+01  1.30863557924715E+00
(PID.TID 0000.0001)  ploadbar=  1.01106081017095E+05
 cg2d: Sum(rhs),rhsMax =  -6.08021544434766E+01  1.31230459977869E+00
(PID.TID 0000.0001)  ploadbar=  1.01107122099133E+05
 cg2d: Sum(rhs),rhsMax =  -6.06262081917811E+01  1.31652837975344E+00
(PID.TID 0000.0001)  ploadbar=  1.01107155440714E+05
 cg2d: Sum(rhs),rhsMax =  -6.04261024661402E+01  1.32123519809935E+00
(PID.TID 0000.0001)  ploadbar=  1.01107188782296E+05
 cg2d: Sum(rhs),rhsMax =  -6.02050850964804E+01  1.32636503200028E+00
(PID.TID 0000.0001)  ploadbar=  1.01107222123877E+05
 cg2d: Sum(rhs),rhsMax =  -5.99770971150949E+01  1.33162152394609E+00
(PID.TID 0000.0001)  ploadbar=  1.01107255465458E+05
 cg2d: Sum(rhs),rhsMax =  -5.97605305443472E+01  1.33660093415211E+00
(PID.TID 0000.0001)  ploadbar=  1.01107288807040E+05
 cg2d: Sum(rhs),rhsMax =  -5.95678069838523E+01  1.34101408507821E+00
(PID.TID 0000.0001)  ploadbar=  1.01107322148621E+05
 cg2d: Sum(rhs),rhsMax =  -5.93445948429605E+01  1.34619983525968E+00
(PID.TID 0000.0001)  ploadbar=  1.01106796604661E+05
 cg2d: Sum(rhs),rhsMax =  -5.91319944423781E+01  1.35123302521240E+00
(PID.TID 0000.0001)  ploadbar=  1.01106271060700E+05
 cg2d: Sum(rhs),rhsMax =  -5.89325679338084E+01  1.35604892929237E+00
(PID.TID 0000.0001)  ploadbar=  1.01105745516740E+05
 cg2d: Sum(rhs),rhsMax =  -5.87489783107532E+01  1.36058195160270E+00
(PID.TID 0000.0001)  ploadbar=  1.01105219972780E+05
 cg2d: Sum(rhs),rhsMax =  -5.90910455831750E+01  1.35305399706328E+00
(PID.TID 0000.0001)  ploadbar=  1.01104694428819E+05
 cg2d: Sum(rhs),rhsMax =  -5.96447234466257E+01  1.34089555179975E+00
(PID.TID 0000.0001)  ploadbar=  1.01104168884859E+05
 cg2d: Sum(rhs),rhsMax =  -6.02795287506616E+01  1.32716519627826E+00
(PID.TID 0000.0001)  ploadbar=  1.01104900793006E+05
 cg2d: Sum(rhs),rhsMax =  -6.09754700076785E+01  1.31239920652512E+00
(PID.TID 0000.0001)  ploadbar=  1.01105632701153E+05
 cg2d: Sum(rhs),rhsMax =  -6.17352877347052E+01  1.29662275799114E+00
(PID.TID 0000.0001)  ploadbar=  1.01106364609300E+05
 cg2d: Sum(rhs),rhsMax =  -6.25620214704967E+01  1.27986419067779E+00
(PID.TID 0000.0001)  ploadbar=  1.01107096517447E+05
 cg2d: Sum(rhs),rhsMax =  -6.34529477997023E+01  1.26227470486940E+00
(PID.TID 0000.0001)  ploadbar=  1.01107828425594E+05
 cg2d: Sum(rhs),rhsMax =  -6.44137441697049E+01  1.24383368224941E+00
(PID.TID 0000.0001)  ploadbar=  1.01108560333741E+05
 cg2d: Sum(rhs),rhsMax =  -6.54164257746711E+01  1.22517809756236E+00
(PID.TID 0000.0001)  ploadbar=  1.01109126972413E+05
 cg2d: Sum(rhs),rhsMax =  -6.64188999945121E+01  1.20711294523933E+00
(PID.TID 0000.0001)  ploadbar=  1.01109693611086E+05
 cg2d: Sum(rhs),rhsMax =  -6.74067583955648E+01  1.18986861341844E+00
(PID.TID 0000.0001)  ploadbar=  1.01110260249758E+05
 cg2d: Sum(rhs),rhsMax =  -6.83743192425242E+01  1.17349885170894E+00
(PID.TID 0000.0001)  ploadbar=  1.01110826888430E+05
 cg2d: Sum(rhs),rhsMax =  -6.93203060938075E+01  1.15797517532416E+00
(PID.TID 0000.0001)  ploadbar=  1.01111393527103E+05
 cg2d: Sum(rhs),rhsMax =  -7.02470161775042E+01  1.14321397096745E+00
(PID.TID 0000.0001)  ploadbar=  1.01111960165775E+05
 cg2d: Sum(rhs),rhsMax =  -7.05105062422864E+01  1.13941024221019E+00
(PID.TID 0000.0001)  ploadbar=  1.01113234911292E+05
 cg2d: Sum(rhs),rhsMax =  -7.01753521133764E+01  1.14527252910923E+00
(PID.TID 0000.0001)  ploadbar=  1.01114509656809E+05
 cg2d: Sum(rhs),rhsMax =  -6.98708426362465E+01  1.15063820557617E+00
(PID.TID 0000.0001)  ploadbar=  1.01115784402326E+05
 cg2d: Sum(rhs),rhsMax =  -6.95800121136960E+01  1.15577710122564E+00
(PID.TID 0000.0001)  ploadbar=  1.01117059147843E+05
 cg2d: Sum(rhs),rhsMax =  -6.92923174620424E+01  1.16085964193962E+00
(PID.TID 0000.0001)  ploadbar=  1.01118333893360E+05
 cg2d: Sum(rhs),rhsMax =  -6.89995837565975E+01  1.16601888100428E+00
(PID.TID 0000.0001)  ploadbar=  1.01119608638877E+05
 cg2d: Sum(rhs),rhsMax =  -6.87324151524398E+01  1.17081833558826E+00
(PID.TID 0000.0001)  ploadbar=  1.01120220236145E+05
 cg2d: Sum(rhs),rhsMax =  -6.84748332889044E+01  1.17552019168007E+00
(PID.TID 0000.0001)  ploadbar=  1.01120831833413E+05
 cg2d: Sum(rhs),rhsMax =  -6.82178060020883E+01  1.18027808837567E+00
(PID.TID 0000.0001)  ploadbar=  1.01121443430680E+05
 cg2d: Sum(rhs),rhsMax =  -6.79638060624339E+01  1.18505090751976E+00
(PID.TID 0000.0001)  ploadbar=  1.01122055027948E+05
 cg2d: Sum(rhs),rhsMax =  -6.77139852624389E+01  1.18981831960488E+00
(PID.TID 0000.0001)  ploadbar=  1.01122666625215E+05
 cg2d: Sum(rhs),rhsMax =  -6.74673760743476E+01  1.19459936616081E+00
(PID.TID 0000.0001)  ploadbar=  1.01123278222483E+05
 cg2d: Sum(rhs),rhsMax =  -6.72035261800998E+01  1.19970896822427E+00
(PID.TID 0000.0001)  ploadbar=  1.01124307438285E+05
 cg2d: Sum(rhs),rhsMax =  -6.69512891407291E+01  1.20463590761744E+00
(PID.TID 0000.0001)  ploadbar=  1.01125336654088E+05
 cg2d: Sum(rhs),rhsMax =  -6.67397062644208E+01  1.20885293125781E+00
(PID.TID 0000.0001)  ploadbar=  1.01126365869891E+05
 cg2d: Sum(rhs),rhsMax =  -6.65718742424322E+01  1.21228724412191E+00
(PID.TID 0000.0001)  ploadbar=  1.01127395085693E+05
 cg2d: Sum(rhs),rhsMax =  -6.64500227374315E+01  1.21489100392041E+00
(PID.TID 0000.0001)  ploadbar=  1.01128424301496E+05
 cg2d: Sum(rhs),rhsMax =  -6.63730753709115E+01  1.21667063081857E+00
(PID.TID 0000.0001)  ploadbar=  1.01129453517298E+05
 cg2d: Sum(rhs),rhsMax =  -6.64630448330460E+01  1.21541466752595E+00
(PID.TID 0000.0001)  ploadbar=  1.01129701330261E+05
 cg2d: Sum(rhs),rhsMax =  -6.64966387583557E+01  1.21520852313184E+00
(PID.TID 0000.0001)  ploadbar=  1.01129949143223E+05
 cg2d: Sum(rhs),rhsMax =  -6.64886701357913E+01  1.21578002177255E+00
(PID.TID 0000.0001)  ploadbar=  1.01130196956185E+05
 cg2d: Sum(rhs),rhsMax =  -6.64533188228392E+01  1.21687124793251E+00
(PID.TID 0000.0001)  ploadbar=  1.01130444769147E+05
 cg2d: Sum(rhs),rhsMax =  -6.64058274546070E+01  1.21820973107972E+00
(PID.TID 0000.0001)  ploadbar=  1.01130692582110E+05
 cg2d: Sum(rhs),rhsMax =  -6.63532131700660E+01  1.21966974805943E+00
(PID.TID 0000.0001)  ploadbar=  1.01130940395072E+05
 cg2d: Sum(rhs),rhsMax =  -6.64017227885303E+01  1.21919893284126E+00
(PID.TID 0000.0001)  ploadbar=  1.01131295781730E+05
 cg2d: Sum(rhs),rhsMax =  -6.64923006083763E+01  1.21787971326187E+00
(PID.TID 0000.0001)  ploadbar=  1.01131651168389E+05
 cg2d: Sum(rhs),rhsMax =  -6.66258504279942E+01  1.21570480836543E+00
(PID.TID 0000.0001)  ploadbar=  1.01132006555047E+05
 cg2d: Sum(rhs),rhsMax =  -6.68305930842875E+01  1.21217375355433E+00
(PID.TID 0000.0001)  ploadbar=  1.01132361941706E+05
 cg2d: Sum(rhs),rhsMax =  -6.70843764165665E+01  1.20770748419675E+00
(PID.TID 0000.0001)  ploadbar=  1.01132717328364E+05
 cg2d: Sum(rhs),rhsMax =  -6.73781152940252E+01  1.20248777835968E+00
(PID.TID 0000.0001)  ploadbar=  1.01133072715023E+05
 cg2d: Sum(rhs),rhsMax =  -6.75701558622054E+01  1.19918048396055E+00
(PID.TID 0000.0001)  ploadbar=  1.01132503151574E+05
 cg2d: Sum(rhs),rhsMax =  -6.77631756436112E+01  1.19593524764551E+00
(PID.TID 0000.0001)  ploadbar=  1.01131933588125E+05
 cg2d: Sum(rhs),rhsMax =  -6.79251537123149E+01  1.19331164657269E+00
(PID.TID 0000.0001)  ploadbar=  1.01131364024676E+05
 cg2d: Sum(rhs),rhsMax =  -6.80534486250674E+01  1.19135007650292E+00
(PID.TID 0000.0001)  ploadbar=  1.01130794461228E+05
 cg2d: Sum(rhs),rhsMax =  -6.81464728283920E+01  1.19007423044370E+00
(PID.TID 0000.0001)  ploadbar=  1.01130224897779E+05
 cg2d: Sum(rhs),rhsMax =  -6.82047709411340E+01  1.18946989638115E+00
(PID.TID 0000.0001)  ploadbar=  1.01129655334330E+05
 cg2d: Sum(rhs),rhsMax =  -6.81917593519240E+01  1.19009307151177E+00
(PID.TID 0000.0001)  ploadbar=  1.01130308624749E+05
 cg2d: Sum(rhs),rhsMax =  -6.81647353449344E+01  1.19094448950981E+00
(PID.TID 0000.0001)  ploadbar=  1.01130961915168E+05
 cg2d: Sum(rhs),rhsMax =  -6.81255479291965E+01  1.19199282071985E+00
(PID.TID 0000.0001)  ploadbar=  1.01131615205587E+05
 cg2d: Sum(rhs),rhsMax =  -6.80822046036584E+01  1.19309867402437E+00
(PID.TID 0000.0001)  ploadbar=  1.01132268496006E+05
 cg2d: Sum(rhs),rhsMax =  -6.80562387619177E+01  1.19388409656375E+00
(PID.TID 0000.0001)  ploadbar=  1.01132921786425E+05
 cg2d: Sum(rhs),rhsMax =  -6.80556880704400E+01  1.19420781172615E+00
(PID.TID 0000.0001)  ploadbar=  1.01133575076843E+05
 cg2d: Sum(rhs),rhsMax =  -6.79942086584184E+01  1.19560415347891E+00
(PID.TID 0000.0001)  ploadbar=  1.01133789471669E+05
 cg2d: Sum(rhs),rhsMax =  -6.79600253502465E+01  1.19651851894364E+00
(PID.TID 0000.0001)  ploadbar=  1.01134003866495E+05
 cg2d: Sum(rhs),rhsMax =  -6.79298729011130E+01  1.19735823371286E+00
(PID.TID 0000.0001)  ploadbar=  1.01134218261320E+05
 cg2d: Sum(rhs),rhsMax =  -6.79045815838334E+01  1.19810959687662E+00
(PID.TID 0000.0001)  ploadbar=  1.01134432656146E+05
 cg2d: Sum(rhs),rhsMax =  -6.78897391892255E+01  1.19867596000830E+00
(PID.TID 0000.0001)  ploadbar=  1.01134647050971E+05
 cg2d: Sum(rhs),rhsMax =  -6.78693266138594E+01  1.19934334810000E+00
(PID.TID 0000.0001)  ploadbar=  1.01134861445797E+05
 cg2d: Sum(rhs),rhsMax =  -6.78353028926142E+01  1.20019099544181E+00
(PID.TID 0000.0001)  ploadbar=  1.01133812565457E+05
 cg2d: Sum(rhs),rhsMax =  -6.77714052612542E+01  1.20150519780558E+00
(PID.TID 0000.0001)  ploadbar=  1.01132763685117E+05
 cg2d: Sum(rhs),rhsMax =  -6.76855711118663E+01  1.20315107372036E+00
(PID.TID 0000.0001)  ploadbar=  1.01131714804777E+05
 cg2d: Sum(rhs),rhsMax =  -6.75678613184000E+01  1.20531292383256E+00
(PID.TID 0000.0001)  ploadbar=  1.01130665924437E+05
 cg2d: Sum(rhs),rhsMax =  -6.74334070544423E+01  1.20772868353952E+00
(PID.TID 0000.0001)  ploadbar=  1.01129617044097E+05
 cg2d: Sum(rhs),rhsMax =  -6.73108123947611E+01  1.20988684528782E+00
(PID.TID 0000.0001)  ploadbar=  1.01128568163758E+05
 cg2d: Sum(rhs),rhsMax =  -6.73024524578649E+01  1.21006280995659E+00
(PID.TID 0000.0001)  ploadbar=  1.01127572200042E+05
 cg2d: Sum(rhs),rhsMax =  -6.72849858859455E+01  1.21045884431206E+00
(PID.TID 0000.0001)  ploadbar=  1.01126576236327E+05
 cg2d: Sum(rhs),rhsMax =  -6.72725466232428E+01  1.21082195423499E+00
(PID.TID 0000.0001)  ploadbar=  1.01125580272611E+05
 cg2d: Sum(rhs),rhsMax =  -6.72890910636612E+01  1.21072206888202E+00
(PID.TID 0000.0001)  ploadbar=  1.01124584308896E+05
 cg2d: Sum(rhs),rhsMax =  -6.73356077772211E+01  1.21014107200767E+00
(PID.TID 0000.0001)  ploadbar=  1.01123588345180E+05
 cg2d: Sum(rhs),rhsMax =  -6.73761742884096E+01  1.20972914802816E+00
(PID.TID 0000.0001)  ploadbar=  1.01122592381465E+05
 cg2d: Sum(rhs),rhsMax =  -6.72380902494435E+01  1.21252276030912E+00
(PID.TID 0000.0001)  ploadbar=  1.01121363376317E+05
 cg2d: Sum(rhs),rhsMax =  -6.71467199000495E+01  1.21447539008669E+00
(PID.TID 0000.0001)  ploadbar=  1.01120134371170E+05
 cg2d: Sum(rhs),rhsMax =  -6.70975505676624E+01  1.21566408294578E+00
(PID.TID 0000.0001)  ploadbar=  1.01118905366022E+05
 cg2d: Sum(rhs),rhsMax =  -6.70754623684331E+01  1.21636067712436E+00
(PID.TID 0000.0001)  ploadbar=  1.01117676360875E+05
 cg2d: Sum(rhs),rhsMax =  -6.70683589828938E+01  1.21679089541682E+00
(PID.TID 0000.0001)  ploadbar=  1.01116447355728E+05
 cg2d: Sum(rhs),rhsMax =  -6.70667158170988E+01  1.21713104938077E+00
(PID.TID 0000.0001)  ploadbar=  1.01115218350580E+05
 cg2d: Sum(rhs),rhsMax =  -6.70389580370429E+01  1.21798532259503E+00
(PID.TID 0000.0001)  ploadbar=  1.01114595599669E+05
 cg2d: Sum(rhs),rhsMax =  -6.69649392651946E+01  1.21971523763084E+00
(PID.TID 0000.0001)  ploadbar=  1.01113972848757E+05
 cg2d: Sum(rhs),rhsMax =  -6.68425296996574E+01  1.22236938320537E+00
(PID.TID 0000.0001)  ploadbar=  1.01113350097846E+05
 cg2d: Sum(rhs),rhsMax =  -6.66808638739082E+01  1.22579405456309E+00
(PID.TID 0000.0001)  ploadbar=  1.01112727346934E+05
 cg2d: Sum(rhs),rhsMax =  -6.65061494823930E+01  1.22952072206175E+00
(PID.TID 0000.0001)  ploadbar=  1.01112104596023E+05
 cg2d: Sum(rhs),rhsMax =  -6.63471400374232E+01  1.23302357004949E+00
(PID.TID 0000.0001)  ploadbar=  1.01111481845111E+05
 cg2d: Sum(rhs),rhsMax =  -6.61184979715493E+01  1.23779349163737E+00
(PID.TID 0000.0001)  ploadbar=  1.01110582923777E+05
 cg2d: Sum(rhs),rhsMax =  -6.59744998291872E+01  1.24094808027820E+00
(PID.TID 0000.0001)  ploadbar=  1.01109684002443E+05
 cg2d: Sum(rhs),rhsMax =  -6.64135094217215E+01  1.23314214920972E+00
(PID.TID 0000.0001)  ploadbar=  1.01108785081109E+05
 cg2d: Sum(rhs),rhsMax =  -6.73359961773451E+01  1.21659391997895E+00
(PID.TID 0000.0001)  ploadbar=  1.01107886159774E+05
 cg2d: Sum(rhs),rhsMax =  -6.76693306452748E+01  1.21090403133451E+00
(PID.TID 0000.0001)  ploadbar=  1.01106987238440E+05
 cg2d: Sum(rhs),rhsMax =  -6.76693709782560E+01  1.21116813912429E+00
(PID.TID 0000.0001)  ploadbar=  1.01106088317106E+05
 cg2d: Sum(rhs),rhsMax =  -6.76739369296698E+01  1.21140731890637E+00
(PID.TID 0000.0001)  ploadbar=  1.01107364155545E+05
 cg2d: Sum(rhs),rhsMax =  -6.76373933205035E+01  1.21243817103869E+00
(PID.TID 0000.0001)  ploadbar=  1.01108639993984E+05
 cg2d: Sum(rhs),rhsMax =  -6.76798145147606E+01  1.21210791245125E+00
(PID.TID 0000.0001)  ploadbar=  1.01109915832423E+05
 cg2d: Sum(rhs),rhsMax =  -6.77987838008054E+01  1.21046696569091E+00
(PID.TID 0000.0001)  ploadbar=  1.01111191670862E+05
 cg2d: Sum(rhs),rhsMax =  -6.79691244718844E+01  1.20798151969206E+00
(PID.TID 0000.0001)  ploadbar=  1.01112467509301E+05
 cg2d: Sum(rhs),rhsMax =  -6.81563041835912E+01  1.20527574712638E+00
(PID.TID 0000.0001)  ploadbar=  1.01113743347740E+05
 cg2d: Sum(rhs),rhsMax =  -6.81446249285512E+01  1.20606651626755E+00
(PID.TID 0000.0001)  ploadbar=  1.01113584410854E+05
 cg2d: Sum(rhs),rhsMax =  -6.81238326673937E+01  1.20699183578562E+00
(PID.TID 0000.0001)  ploadbar=  1.01113425473969E+05
 cg2d: Sum(rhs),rhsMax =  -6.81004341502568E+01  1.20794362886188E+00
(PID.TID 0000.0001)  ploadbar=  1.01113266537083E+05
 cg2d: Sum(rhs),rhsMax =  -6.80781228707949E+01  1.20885922791128E+00
(PID.TID 0000.0001)  ploadbar=  1.01113107600198E+05
 cg2d: Sum(rhs),rhsMax =  -6.80592695326604E+01  1.20970051885589E+00
(PID.TID 0000.0001)  ploadbar=  1.01112948663312E+05
 cg2d: Sum(rhs),rhsMax =  -6.80489374074083E+01  1.21037914692816E+00
(PID.TID 0000.0001)  ploadbar=  1.01112789726426E+05
 cg2d: Sum(rhs),rhsMax =  -6.79781719280893E+01  1.21217774334985E+00
(PID.TID 0000.0001)  ploadbar=  1.01112199177453E+05
 cg2d: Sum(rhs),rhsMax =  -6.79033520858053E+01  1.21409489054323E+00
(PID.TID 0000.0001)  ploadbar=  1.01111608628480E+05
 cg2d: Sum(rhs),rhsMax =  -6.77702392112073E+01  1.21710535046528E+00
(PID.TID 0000.0001)  ploadbar=  1.01111018079507E+05
 cg2d: Sum(rhs),rhsMax =  -6.75955406172832E+01  1.22092389870366E+00
(PID.TID 0000.0001)  ploadbar=  1.01110427530535E+05
 cg2d: Sum(rhs),rhsMax =  -6.73925471628919E+01  1.22532444526340E+00
(PID.TID 0000.0001)  ploadbar=  1.01109836981562E+05
 cg2d: Sum(rhs),rhsMax =  -6.71761260616171E+01  1.23004938800987E+00
(PID.TID 0000.0001)  ploadbar=  1.01109246432589E+05
 cg2d: Sum(rhs),rhsMax =  -6.70230219547670E+01  1.23357435371743E+00
(PID.TID 0000.0001)  ploadbar=  1.01109096272372E+05
 cg2d: Sum(rhs),rhsMax =  -6.69111712673211E+01  1.23628412322088E+00
(PID.TID 0000.0001)  ploadbar=  1.01108946112155E+05
 cg2d: Sum(rhs),rhsMax =  -6.67531689980167E+01  1.23979328978025E+00
(PID.TID 0000.0001)  ploadbar=  1.01108795951938E+05
 cg2d: Sum(rhs),rhsMax =  -6.66159089238478E+01  1.24286852286168E+00
(PID.TID 0000.0001)  ploadbar=  1.01108645791721E+05
 cg2d: Sum(rhs),rhsMax =  -6.65346623629869E+01  1.24484336707853E+00
(PID.TID 0000.0001)  ploadbar=  1.01108495631504E+05
 cg2d: Sum(rhs),rhsMax =  -6.64117397957379E+01  1.24753866164642E+00
(PID.TID 0000.0001)  ploadbar=  1.01108345471287E+05
 cg2d: Sum(rhs),rhsMax =  -6.63219744513040E+01  1.24966194709999E+00
(PID.TID 0000.0001)  ploadbar=  1.01107045492021E+05
 cg2d: Sum(rhs),rhsMax =  -6.63155114279970E+01  1.25026098048139E+00
(PID.TID 0000.0001)  ploadbar=  1.01105745512755E+05
 cg2d: Sum(rhs),rhsMax =  -6.64130755726917E+01  1.24894549939861E+00
(PID.TID 0000.0001)  ploadbar=  1.01104445533489E+05
 cg2d: Sum(rhs),rhsMax =  -6.66053868705916E+01  1.24590640404834E+00
(PID.TID 0000.0001)  ploadbar=  1.01103145554223E+05
 cg2d: Sum(rhs),rhsMax =  -6.68867964444636E+01  1.24127885864619E+00
(PID.TID 0000.0001)  ploadbar=  1.01101845574957E+05
 cg2d: Sum(rhs),rhsMax =  -6.71926902876933E+01  1.23629364085066E+00
(PID.TID 0000.0001)  ploadbar=  1.01100545595691E+05
 cg2d: Sum(rhs),rhsMax =  -6.73731637547084E+01  1.23366216291974E+00
(PID.TID 0000.0001)  ploadbar=  1.01099411674153E+05
 cg2d: Sum(rhs),rhsMax =  -6.75280052750689E+01  1.23152871390296E+00
(PID.TID 0000.0001)  ploadbar=  1.01098277752616E+05
 cg2d: Sum(rhs),rhsMax =  -6.76855669976264E+01  1.22937366815210E+00
(PID.TID 0000.0001)  ploadbar=  1.01097143831078E+05
 cg2d: Sum(rhs),rhsMax =  -6.78487662974246E+01  1.22714717053250E+00
(PID.TID 0000.0001)  ploadbar=  1.01096009909541E+05
 cg2d: Sum(rhs),rhsMax =  -6.80406346516377E+01  1.22444037830245E+00
(PID.TID 0000.0001)  ploadbar=  1.01094875988003E+05
 cg2d: Sum(rhs),rhsMax =  -6.82775747677729E+01  1.22096819063321E+00
(PID.TID 0000.0001)  ploadbar=  1.01093742066466E+05
 cg2d: Sum(rhs),rhsMax =  -6.85030374786807E+01  1.21775177070824E+00
(PID.TID 0000.0001)  ploadbar=  1.01092701111389E+05
 cg2d: Sum(rhs),rhsMax =  -6.87143286076713E+01  1.21483610999439E+00
(PID.TID 0000.0001)  ploadbar=  1.01091660156312E+05
 cg2d: Sum(rhs),rhsMax =  -6.89064416606086E+01  1.21230882432886E+00
(PID.TID 0000.0001)  ploadbar=  1.01090619201235E+05
 cg2d: Sum(rhs),rhsMax =  -6.90484965662848E+01  1.21071051785910E+00
(PID.TID 0000.0001)  ploadbar=  1.01089578246158E+05
 cg2d: Sum(rhs),rhsMax =  -6.91313800631361E+01  1.21019374387403E+00
(PID.TID 0000.0001)  ploadbar=  1.01088537291081E+05
 cg2d: Sum(rhs),rhsMax =  -6.91534394506632E+01  1.21078440299191E+00
(PID.TID 0000.0001)  ploadbar=  1.01087496336004E+05
 cg2d: Sum(rhs),rhsMax =  -6.90261405331569E+01  1.21392613133147E+00
(PID.TID 0000.0001)  ploadbar=  1.01086826328499E+05
 cg2d: Sum(rhs),rhsMax =  -6.88291678022867E+01  1.21823960729436E+00
(PID.TID 0000.0001)  ploadbar=  1.01086156320993E+05
 cg2d: Sum(rhs),rhsMax =  -6.85870400116011E+01  1.22331276053333E+00
(PID.TID 0000.0001)  ploadbar=  1.01085486313488E+05
 cg2d: Sum(rhs),rhsMax =  -6.83078393166071E+01  1.22902082929497E+00
(PID.TID 0000.0001)  ploadbar=  1.01084816305982E+05
 cg2d: Sum(rhs),rhsMax =  -6.79553481765718E+01  1.23603540392803E+00
(PID.TID 0000.0001)  ploadbar=  1.01084146298477E+05
 cg2d: Sum(rhs),rhsMax =  -6.75093894787196E+01  1.24476880453621E+00
(PID.TID 0000.0001)  ploadbar=  1.01083476290971E+05
 cg2d: Sum(rhs),rhsMax =  -6.70983524369975E+01  1.25300507092993E+00
(PID.TID 0000.0001)  ploadbar=  1.01083304002315E+05
 cg2d: Sum(rhs),rhsMax =  -6.67372147551480E+01  1.26043854096200E+00
(PID.TID 0000.0001)  ploadbar=  1.01083131713659E+05
 cg2d: Sum(rhs),rhsMax =  -6.64159792256252E+01  1.26723086973125E+00
(PID.TID 0000.0001)  ploadbar=  1.01082959425003E+05
 cg2d: Sum(rhs),rhsMax =  -6.61366558975330E+01  1.27332266072018E+00
(PID.TID 0000.0001)  ploadbar=  1.01082787136347E+05
 cg2d: Sum(rhs),rhsMax =  -6.58937801113491E+01  1.27880070005094E+00
(PID.TID 0000.0001)  ploadbar=  1.01082614847692E+05
 cg2d: Sum(rhs),rhsMax =  -6.56941713061073E+01  1.28351943758470E+00
(PID.TID 0000.0001)  ploadbar=  1.01082442559036E+05
 cg2d: Sum(rhs),rhsMax =  -6.55955688869963E+01  1.28627643934295E+00
(PID.TID 0000.0001)  ploadbar=  1.01083286208359E+05
 cg2d: Sum(rhs),rhsMax =  -6.55206379664475E+01  1.28856724992001E+00
(PID.TID 0000.0001)  ploadbar=  1.01084129857683E+05
 cg2d: Sum(rhs),rhsMax =  -6.54657853321605E+01  1.29045989878067E+00
(PID.TID 0000.0001)  ploadbar=  1.01084973507007E+05
 cg2d: Sum(rhs),rhsMax =  -6.54480035749365E+01  1.29161884697992E+00
(PID.TID 0000.0001)  ploadbar=  1.01085817156330E+05
 cg2d: Sum(rhs),rhsMax =  -6.54633872473222E+01  1.29212156266950E+00
(PID.TID 0000.0001)  ploadbar=  1.01086660805654E+05
 cg2d: Sum(rhs),rhsMax =  -6.55081592658996E+01  1.29204555887097E+00
(PID.TID 0000.0001)  ploadbar=  1.01087504454978E+05
 cg2d: Sum(rhs),rhsMax =  -6.55981008722727E+01  1.29113087703037E+00
(PID.TID 0000.0001)  ploadbar=  1.01086759892293E+05
 cg2d: Sum(rhs),rhsMax =  -6.57018846727856E+01  1.28999362925438E+00
(PID.TID 0000.0001)  ploadbar=  1.01086015329608E+05
 cg2d: Sum(rhs),rhsMax =  -6.58106792616116E+01  1.28881154155392E+00
(PID.TID 0000.0001)  ploadbar=  1.01085270766923E+05
 cg2d: Sum(rhs),rhsMax =  -6.59363545916276E+01  1.28735430831187E+00
(PID.TID 0000.0001)  ploadbar=  1.01084526204237E+05
 cg2d: Sum(rhs),rhsMax =  -6.60752278287177E+01  1.28569610421676E+00
(PID.TID 0000.0001)  ploadbar=  1.01083781641552E+05
 cg2d: Sum(rhs),rhsMax =  -6.62149089808480E+01  1.28408144416823E+00
(PID.TID 0000.0001)  ploadbar=  1.01083037078867E+05
 cg2d: Sum(rhs),rhsMax =  -6.63608527155573E+01  1.28225020861255E+00
(PID.TID 0000.0001)  ploadbar=  1.01082852806172E+05
 cg2d: Sum(rhs),rhsMax =  -6.65038742304139E+01  1.28037683165069E+00
(PID.TID 0000.0001)  ploadbar=  1.01082668533477E+05
 cg2d: Sum(rhs),rhsMax =  -6.66288740792885E+01  1.27875184806367E+00
(PID.TID 0000.0001)  ploadbar=  1.01082484260782E+05
 cg2d: Sum(rhs),rhsMax =  -6.67346758125372E+01  1.27739990508218E+00
(PID.TID 0000.0001)  ploadbar=  1.01082299988087E+05
 cg2d: Sum(rhs),rhsMax =  -6.68275370968894E+01  1.27619811537189E+00
(PID.TID 0000.0001)  ploadbar=  1.01082115715392E+05
 cg2d: Sum(rhs),rhsMax =  -6.69101873004246E+01  1.27508914796226E+00
(PID.TID 0000.0001)  ploadbar=  1.01081931442697E+05
 cg2d: Sum(rhs),rhsMax =  -6.70286746026953E+01  1.27334130035799E+00
(PID.TID 0000.0001)  ploadbar=  1.01081581899087E+05
 cg2d: Sum(rhs),rhsMax =  -6.71235131130233E+01  1.27208507088544E+00
(PID.TID 0000.0001)  ploadbar=  1.01081232355477E+05
 cg2d: Sum(rhs),rhsMax =  -6.71996457476587E+01  1.27122461877107E+00
(PID.TID 0000.0001)  ploadbar=  1.01080882811867E+05
 cg2d: Sum(rhs),rhsMax =  -6.72514937660557E+01  1.27086133774485E+00
(PID.TID 0000.0001)  ploadbar=  1.01080533268257E+05
 cg2d: Sum(rhs),rhsMax =  -6.72704413991183E+01  1.27115810120055E+00
(PID.TID 0000.0001)  ploadbar=  1.01080183724647E+05
 cg2d: Sum(rhs),rhsMax =  -6.72697351047002E+01  1.27186604990924E+00
(PID.TID 0000.0001)  ploadbar=  1.01079834181037E+05
 cg2d: Sum(rhs),rhsMax =  -6.74520753554994E+01  1.26907586140718E+00
(PID.TID 0000.0001)  ploadbar=  1.01078923877792E+05
 cg2d: Sum(rhs),rhsMax =  -6.78250587920297E+01  1.26269542735143E+00
(PID.TID 0000.0001)  ploadbar=  1.01078013574547E+05
 cg2d: Sum(rhs),rhsMax =  -6.82897357829753E+01  1.25465376411747E+00
(PID.TID 0000.0001)  ploadbar=  1.01077103271302E+05
 cg2d: Sum(rhs),rhsMax =  -6.88302492828089E+01  1.24530639221881E+00
(PID.TID 0000.0001)  ploadbar=  1.01076192968057E+05
 cg2d: Sum(rhs),rhsMax =  -6.94290863364753E+01  1.23503369080786E+00
(PID.TID 0000.0001)  ploadbar=  1.01075282664813E+05
 cg2d: Sum(rhs),rhsMax =  -7.00760388010738E+01  1.22407193436472E+00
(PID.TID 0000.0001)  ploadbar=  1.01074372361568E+05
 cg2d: Sum(rhs),rhsMax =  -7.07862433097169E+01  1.21227180320623E+00
(PID.TID 0000.0001)  ploadbar=  1.01073358278788E+05
 cg2d: Sum(rhs),rhsMax =  -7.14922843338597E+01  1.20081329273865E+00
(PID.TID 0000.0001)  ploadbar=  1.01072344196008E+05
 cg2d: Sum(rhs),rhsMax =  -7.21520956579487E+01  1.19038223954158E+00
(PID.TID 0000.0001)  ploadbar=  1.01071330113228E+05
 cg2d: Sum(rhs),rhsMax =  -7.27829554437028E+01  1.18065155176421E+00
(PID.TID 0000.0001)  ploadbar=  1.01070316030448E+05
 cg2d: Sum(rhs),rhsMax =  -7.33885519160113E+01  1.17153422713726E+00
(PID.TID 0000.0001)  ploadbar=  1.01069301947668E+05
 cg2d: Sum(rhs),rhsMax =  -7.39698540963338E+01  1.16299271532081E+00
(PID.TID 0000.0001)  ploadbar=  1.01068287864888E+05
 cg2d: Sum(rhs),rhsMax =  -7.42967156204157E+01  1.15846156688734E+00
(PID.TID 0000.0001)  ploadbar=  1.01067765693047E+05
 cg2d: Sum(rhs),rhsMax =  -7.46724856509997E+01  1.15313587871487E+00
(PID.TID 0000.0001)  ploadbar=  1.01067243521206E+05
 cg2d: Sum(rhs),rhsMax =  -7.50845041356650E+01  1.14723546239144E+00
(PID.TID 0000.0001)  ploadbar=  1.01066721349365E+05
 cg2d: Sum(rhs),rhsMax =  -7.55803126973571E+01  1.14006654411965E+00
(PID.TID 0000.0001)  ploadbar=  1.01066199177524E+05
 cg2d: Sum(rhs),rhsMax =  -7.61941366572087E+01  1.13117123826186E+00
(PID.TID 0000.0001)  ploadbar=  1.01065677005682E+05
 cg2d: Sum(rhs),rhsMax =  -7.68675544971430E+01  1.12147852593662E+00
(PID.TID 0000.0001)  ploadbar=  1.01065154833841E+05
 cg2d: Sum(rhs),rhsMax =  -7.78718350486839E+01  1.10725356474040E+00
(PID.TID 0000.0001)  ploadbar=  1.01063994978433E+05
 cg2d: Sum(rhs),rhsMax =  -7.93111489554122E+01  1.08741308404479E+00
(PID.TID 0000.0001)  ploadbar=  1.01062835123024E+05
 cg2d: Sum(rhs),rhsMax =  -8.08413501343528E+01  1.06709733156680E+00
(PID.TID 0000.0001)  ploadbar=  1.01061675267616E+05
 cg2d: Sum(rhs),rhsMax =  -8.23151253080819E+01  1.04827327501207E+00
(PID.TID 0000.0001)  ploadbar=  1.01060515412207E+05
 cg2d: Sum(rhs),rhsMax =  -8.36213588707760E+01  1.03219397875004E+00
(PID.TID 0000.0001)  ploadbar=  1.01059355556799E+05
 cg2d: Sum(rhs),rhsMax =  -8.30659129827214E+01  1.03941421813796E+00
(PID.TID 0000.0001)  ploadbar=  1.01058195701390E+05
 cg2d: Sum(rhs),rhsMax =  -8.22074723883992E+01  1.05058235165519E+00
(PID.TID 0000.0001)  ploadbar=  1.01056807551891E+05
 cg2d: Sum(rhs),rhsMax =  -8.13943703942754E+01  1.06138666168274E+00
(PID.TID 0000.0001)  ploadbar=  1.01055419402391E+05
 cg2d: Sum(rhs),rhsMax =  -8.06343285811284E+01  1.07169829331722E+00
(PID.TID 0000.0001)  ploadbar=  1.01054031252892E+05
 cg2d: Sum(rhs),rhsMax =  -7.99230278258027E+01  1.08154649071351E+00
(PID.TID 0000.0001)  ploadbar=  1.01052643103392E+05
 cg2d: Sum(rhs),rhsMax =  -7.92649367381044E+01  1.09084644643366E+00
(PID.TID 0000.0001)  ploadbar=  1.01051254953893E+05
 cg2d: Sum(rhs),rhsMax =  -7.86498553630891E+01  1.09972215428521E+00
(PID.TID 0000.0001)  ploadbar=  1.01049866804394E+05
 cg2d: Sum(rhs),rhsMax =  -7.82031387814812E+01  1.10640041796993E+00
(PID.TID 0000.0001)  ploadbar=  1.01048264543047E+05
 cg2d: Sum(rhs),rhsMax =  -7.78633971257519E+01  1.11166909053025E+00
(PID.TID 0000.0001)  ploadbar=  1.01046662281700E+05
 cg2d: Sum(rhs),rhsMax =  -7.76731062162274E+01  1.11487954147667E+00
(PID.TID 0000.0001)  ploadbar=  1.01045060020353E+05
 cg2d: Sum(rhs),rhsMax =  -7.76161612530803E+01  1.11623025965877E+00
(PID.TID 0000.0001)  ploadbar=  1.01043457759006E+05
 cg2d: Sum(rhs),rhsMax =  -7.65050721278318E+01  1.13302721173690E+00
(PID.TID 0000.0001)  ploadbar=  1.01041855497659E+05
 cg2d: Sum(rhs),rhsMax =  -7.54028191305400E+01  1.15022958337476E+00
(PID.TID 0000.0001)  ploadbar=  1.01040253236312E+05
 cg2d: Sum(rhs),rhsMax =  -7.43229485992948E+01  1.16751410683717E+00
(PID.TID 0000.0001)  ploadbar=  1.01040131450435E+05
 cg2d: Sum(rhs),rhsMax =  -7.33006393703992E+01  1.18430208996102E+00
(PID.TID 0000.0001)  ploadbar=  1.01040009664557E+05
 cg2d: Sum(rhs),rhsMax =  -7.24527006527380E+01  1.19860007299684E+00
(PID.TID 0000.0001)  ploadbar=  1.01039887878680E+05
 cg2d: Sum(rhs),rhsMax =  -7.18597688943986E+01  1.20886088267178E+00
(PID.TID 0000.0001)  ploadbar=  1.01039766092802E+05
 cg2d: Sum(rhs),rhsMax =  -7.15491795860691E+01  1.21441075956193E+00
(PID.TID 0000.0001)  ploadbar=  1.01039644306925E+05
 cg2d: Sum(rhs),rhsMax =  -7.15281096082327E+01  1.21499533481192E+00
(PID.TID 0000.0001)  ploadbar=  1.01039522521047E+05
 cg2d: Sum(rhs),rhsMax =  -7.17520411534239E+01  1.21145467619331E+00
(PID.TID 0000.0001)  ploadbar=  1.01041165243619E+05
 cg2d: Sum(rhs),rhsMax =  -7.21438707384497E+01  1.20514616934343E+00
(PID.TID 0000.0001)  ploadbar=  1.01042807966191E+05
 cg2d: Sum(rhs),rhsMax =  -7.26356634100272E+01  1.19727669901742E+00
(PID.TID 0000.0001)  ploadbar=  1.01044450688763E+05
 cg2d: Sum(rhs),rhsMax =  -7.24622656814147E+01  1.20045359093873E+00
(PID.TID 0000.0001)  ploadbar=  1.01046093411335E+05
 cg2d: Sum(rhs),rhsMax =  -7.18457704848834E+01  1.21109271590570E+00
(PID.TID 0000.0001)  ploadbar=  1.01047736133907E+05
 cg2d: Sum(rhs),rhsMax =  -7.12045763664836E+01  1.22236669397897E+00
(PID.TID 0000.0001)  ploadbar=  1.01049378856479E+05
 cg2d: Sum(rhs),rhsMax =  -7.01735745070365E+01  1.24068672153889E+00
(PID.TID 0000.0001)  ploadbar=  1.01050774038857E+05
 cg2d: Sum(rhs),rhsMax =  -6.84012896734015E+01  1.27319052264774E+00
(PID.TID 0000.0001)  ploadbar=  1.01052169221235E+05
 cg2d: Sum(rhs),rhsMax =  -6.66876215495559E+01  1.30626588718284E+00
(PID.TID 0000.0001)  ploadbar=  1.01053564403614E+05
 cg2d: Sum(rhs),rhsMax =  -6.58041321018909E+01  1.32416106485615E+00
(PID.TID 0000.0001)  ploadbar=  1.01054959585992E+05
 cg2d: Sum(rhs),rhsMax =  -6.52588687308421E+01  1.33558843133223E+00
(PID.TID 0000.0001)  ploadbar=  1.01056354768370E+05
 cg2d: Sum(rhs),rhsMax =  -6.47635326590224E+01  1.34618329765879E+00
(PID.TID 0000.0001)  ploadbar=  1.01057749950748E+05
 cg2d: Sum(rhs),rhsMax =  -6.43652926425155E+01  1.35495031663916E+00
(PID.TID 0000.0001)  ploadbar=  1.01059536933936E+05
 cg2d: Sum(rhs),rhsMax =  -6.39671774242023E+01  1.36387253936432E+00
(PID.TID 0000.0001)  ploadbar=  1.01061323917123E+05
 cg2d: Sum(rhs),rhsMax =  -6.35282339610421E+01  1.37383719246549E+00
(PID.TID 0000.0001)  ploadbar=  1.01063110900311E+05
 cg2d: Sum(rhs),rhsMax =  -6.28824153136512E+01  1.38854566138448E+00
(PID.TID 0000.0001)  ploadbar=  1.01064897883498E+05
 cg2d: Sum(rhs),rhsMax =  -6.20400045880180E+01  1.40806286105641E+00
(PID.TID 0000.0001)  ploadbar=  1.01066684866686E+05
 cg2d: Sum(rhs),rhsMax =  -6.10743108313913E+01  1.43105765788196E+00
(PID.TID 0000.0001)  ploadbar=  1.01068471849874E+05
 cg2d: Sum(rhs),rhsMax =  -6.00242080335134E+01  1.45677929018179E+00
(PID.TID 0000.0001)  ploadbar=  1.01070593432281E+05
 cg2d: Sum(rhs),rhsMax =  -5.88720447612680E+01  1.48592856185499E+00
(PID.TID 0000.0001)  ploadbar=  1.01072715014688E+05
 cg2d: Sum(rhs),rhsMax =  -5.76151199346447E+01  1.51893958789903E+00
(PID.TID 0000.0001)  ploadbar=  1.01074836597095E+05
 cg2d: Sum(rhs),rhsMax =  -5.63567331676481E+01  1.55340569751557E+00
(PID.TID 0000.0001)  ploadbar=  1.01076958179502E+05
 cg2d: Sum(rhs),rhsMax =  -5.51484563307042E+01  1.58794472051536E+00
(PID.TID 0000.0001)  ploadbar=  1.01079079761909E+05
 cg2d: Sum(rhs),rhsMax =  -5.39336555226232E+01  1.62416637416875E+00
(PID.TID 0000.0001)  ploadbar=  1.01081201344317E+05
 cg2d: Sum(rhs),rhsMax =  -5.30758308230655E+01  1.65094569748332E+00
(PID.TID 0000.0001)  ploadbar=  1.01083886422666E+05
 cg2d: Sum(rhs),rhsMax =  -5.27217897565841E+01  1.66262592453898E+00
(PID.TID 0000.0001)  ploadbar=  1.01086571501015E+05
 cg2d: Sum(rhs),rhsMax =  -5.29646014997638E+01  1.65565523231028E+00
(PID.TID 0000.0001)  ploadbar=  1.01089256579364E+05
 cg2d: Sum(rhs),rhsMax =  -5.37969212907478E+01  1.63073956602524E+00
(PID.TID 0000.0001)  ploadbar=  1.01091941657713E+05
 cg2d: Sum(rhs),rhsMax =  -5.46887282817951E+01  1.60489876658326E+00
(PID.TID 0000.0001)  ploadbar=  1.01094626736062E+05
 cg2d: Sum(rhs),rhsMax =  -5.56030259168186E+01  1.57931321082628E+00
(PID.TID 0000.0001)  ploadbar=  1.01097311814411E+05
 cg2d: Sum(rhs),rhsMax =  -5.64790816751147E+01  1.55557077528480E+00
(PID.TID 0000.0001)  ploadbar=  1.01098268134537E+05
 cg2d: Sum(rhs),rhsMax =  -5.73463596915482E+01  1.53275171358678E+00
(PID.TID 0000.0001)  ploadbar=  1.01099224454664E+05
 cg2d: Sum(rhs),rhsMax =  -5.82007699257799E+01  1.51091279150457E+00
(PID.TID 0000.0001)  ploadbar=  1.01100180774790E+05
 cg2d: Sum(rhs),rhsMax =  -5.90481455529644E+01  1.48985899578879E+00
(PID.TID 0000.0001)  ploadbar=  1.01101137094917E+05
 cg2d: Sum(rhs),rhsMax =  -5.98947577100593E+01  1.46940214180805E+00
(PID.TID 0000.0001)  ploadbar=  1.01102093415043E+05
 cg2d: Sum(rhs),rhsMax =  -6.07468692557899E+01  1.44938130349792E+00
(PID.TID 0000.0001)  ploadbar=  1.01103049735169E+05
 cg2d: Sum(rhs),rhsMax =  -6.15771416056065E+01  1.43046416272414E+00
(PID.TID 0000.0001)  ploadbar=  1.01104090568709E+05
 cg2d: Sum(rhs),rhsMax =  -6.17318955608980E+01  1.42753483765253E+00
(PID.TID 0000.0001)  ploadbar=  1.01105131402249E+05
 cg2d: Sum(rhs),rhsMax =  -6.14169557084690E+01  1.43554930641876E+00
(PID.TID 0000.0001)  ploadbar=  1.01106172235789E+05
 cg2d: Sum(rhs),rhsMax =  -6.11071046533976E+01  1.44356243093344E+00
(PID.TID 0000.0001)  ploadbar=  1.01107213069329E+05
 cg2d: Sum(rhs),rhsMax =  -6.07959710564262E+01  1.45172576482545E+00
(PID.TID 0000.0001)  ploadbar=  1.01108253902869E+05
 cg2d: Sum(rhs),rhsMax =  -6.04789182541415E+01  1.46015363474445E+00
(PID.TID 0000.0001)  ploadbar=  1.01109294736409E+05
 cg2d: Sum(rhs),rhsMax =  -6.01385656131283E+01  1.46916801818536E+00
(PID.TID 0000.0001)  ploadbar=  1.01110392765525E+05
 cg2d: Sum(rhs),rhsMax =  -5.97829658502915E+01  1.47858848213715E+00
(PID.TID 0000.0001)  ploadbar=  1.01111490794641E+05
 cg2d: Sum(rhs),rhsMax =  -5.94031619862791E+01  1.48865627902954E+00
(PID.TID 0000.0001)  ploadbar=  1.01112588823758E+05
 cg2d: Sum(rhs),rhsMax =  -5.90012094720129E+01  1.49934696996711E+00
(PID.TID 0000.0001)  ploadbar=  1.01113686852874E+05
 cg2d: Sum(rhs),rhsMax =  -5.85783668018370E+01  1.51065544140028E+00
(PID.TID 0000.0001)  ploadbar=  1.01114784881990E+05
 cg2d: Sum(rhs),rhsMax =  -5.81340116293191E+01  1.52262268876125E+00
(PID.TID 0000.0001)  ploadbar=  1.01115882911106E+05
 cg2d: Sum(rhs),rhsMax =  -5.77070258030806E+01  1.53438417746782E+00
(PID.TID 0000.0001)  ploadbar=  1.01116780141050E+05
 cg2d: Sum(rhs),rhsMax =  -5.72995920145414E+01  1.54586030855336E+00
(PID.TID 0000.0001)  ploadbar=  1.01117677370994E+05
 cg2d: Sum(rhs),rhsMax =  -5.69339538448029E+01  1.55642592815738E+00
(PID.TID 0000.0001)  ploadbar=  1.01118574600937E+05
 cg2d: Sum(rhs),rhsMax =  -5.66271600454682E+01  1.56556947530532E+00
(PID.TID 0000.0001)  ploadbar=  1.01119471830881E+05
 cg2d: Sum(rhs),rhsMax =  -5.63767318395267E+01  1.57330822979170E+00
(PID.TID 0000.0001)  ploadbar=  1.01120369060825E+05
 cg2d: Sum(rhs),rhsMax =  -5.61769778424585E+01  1.57976133649897E+00
(PID.TID 0000.0001)  ploadbar=  1.01121266290768E+05
 cg2d: Sum(rhs),rhsMax =  -5.60426852393219E+01  1.58438396256834E+00
(PID.TID 0000.0001)  ploadbar=  1.01121948811194E+05
 cg2d: Sum(rhs),rhsMax =  -5.59373301507655E+01  1.58818248677307E+00
(PID.TID 0000.0001)  ploadbar=  1.01122631331619E+05
 cg2d: Sum(rhs),rhsMax =  -5.58547435787557E+01  1.59132570784613E+00
(PID.TID 0000.0001)  ploadbar=  1.01123313852044E+05
 cg2d: Sum(rhs),rhsMax =  -5.57901087290210E+01  1.59395428755146E+00
(PID.TID 0000.0001)  ploadbar=  1.01123996372470E+05
 cg2d: Sum(rhs),rhsMax =  -5.57428621459816E+01  1.59608916894791E+00
(PID.TID 0000.0001)  ploadbar=  1.01124678892895E+05
 cg2d: Sum(rhs),rhsMax =  -5.57133797539404E+01  1.59772721551903E+00
(PID.TID 0000.0001)  ploadbar=  1.01125361413320E+05
 cg2d: Sum(rhs),rhsMax =  -5.56530960356860E+01  1.60031871087423E+00
(PID.TID 0000.0001)  ploadbar=  1.01126843386675E+05
 cg2d: Sum(rhs),rhsMax =  -5.56048424477205E+01  1.60263129357734E+00
(PID.TID 0000.0001)  ploadbar=  1.01128325360030E+05
 cg2d: Sum(rhs),rhsMax =  -5.55732478865945E+01  1.60453220331574E+00
(PID.TID 0000.0001)  ploadbar=  1.01129807333384E+05
 cg2d: Sum(rhs),rhsMax =  -5.55533706684102E+01  1.60616184577383E+00
(PID.TID 0000.0001)  ploadbar=  1.01131289306739E+05
 cg2d: Sum(rhs),rhsMax =  -5.55445815903684E+01  1.60753613462011E+00
(PID.TID 0000.0001)  ploadbar=  1.01132771280093E+05
 cg2d: Sum(rhs),rhsMax =  -5.55450940090103E+01  1.60870379978848E+00
(PID.TID 0000.0001)  ploadbar=  1.01134253253448E+05
 cg2d: Sum(rhs),rhsMax =  -5.55436397361170E+01  1.60981754075779E+00
(PID.TID 0000.0001)  ploadbar=  1.01134838336961E+05
 cg2d: Sum(rhs),rhsMax =  -5.55418717163148E+01  1.61082707350828E+00
(PID.TID 0000.0001)  ploadbar=  1.01135423420475E+05
 cg2d: Sum(rhs),rhsMax =  -5.55306423089686E+01  1.61200218686125E+00
(PID.TID 0000.0001)  ploadbar=  1.01136008503988E+05
 cg2d: Sum(rhs),rhsMax =  -5.55069953199032E+01  1.61343544187299E+00
(PID.TID 0000.0001)  ploadbar=  1.01136593587502E+05
 cg2d: Sum(rhs),rhsMax =  -5.54683311782402E+01  1.61520782848105E+00
(PID.TID 0000.0001)  ploadbar=  1.01137178671015E+05
 cg2d: Sum(rhs),rhsMax =  -5.54138033987750E+01  1.61734873240832E+00
(PID.TID 0000.0001)  ploadbar=  1.01137763754529E+05
 cg2d: Sum(rhs),rhsMax =  -5.53783479076596E+01  1.61899397470512E+00
(PID.TID 0000.0001)  ploadbar=  1.01139707825406E+05
 cg2d: Sum(rhs),rhsMax =  -5.53481195011916E+01  1.62054641012751E+00
(PID.TID 0000.0001)  ploadbar=  1.01141651896282E+05
 cg2d: Sum(rhs),rhsMax =  -5.53271141665622E+01  1.62189382387414E+00
(PID.TID 0000.0001)  ploadbar=  1.01143595967159E+05
 cg2d: Sum(rhs),rhsMax =  -5.53216091121466E+01  1.62285735819598E+00
(PID.TID 0000.0001)  ploadbar=  1.01145540038036E+05
 cg2d: Sum(rhs),rhsMax =  -5.53307312971774E+01  1.62345862853284E+00
(PID.TID 0000.0001)  ploadbar=  1.01147484108912E+05
 cg2d: Sum(rhs),rhsMax =  -5.53517810365391E+01  1.62377696523198E+00
(PID.TID 0000.0001)  ploadbar=  1.01149428179789E+05
 cg2d: Sum(rhs),rhsMax =  -5.53769998020115E+01  1.62392815993569E+00
(PID.TID 0000.0001)  ploadbar=  1.01150408580517E+05
 cg2d: Sum(rhs),rhsMax =  -5.54068425196326E+01  1.62390244588382E+00
(PID.TID 0000.0001)  ploadbar=  1.01151388981245E+05
 cg2d: Sum(rhs),rhsMax =  -5.54466978686577E+01  1.62354632894245E+00
(PID.TID 0000.0001)  ploadbar=  1.01152369381974E+05
 cg2d: Sum(rhs),rhsMax =  -5.54946537346291E+01  1.62292409229721E+00
(PID.TID 0000.0001)  ploadbar=  1.01153349782702E+05
 cg2d: Sum(rhs),rhsMax =  -5.55520514970176E+01  1.62200228070951E+00
(PID.TID 0000.0001)  ploadbar=  1.01154330183430E+05
 cg2d: Sum(rhs),rhsMax =  -5.56198571407090E+01  1.62075767168232E+00
(PID.TID 0000.0001)  ploadbar=  1.01155310584159E+05
 cg2d: Sum(rhs),rhsMax =  -5.56898242306051E+01  1.61954139654897E+00
(PID.TID 0000.0001)  ploadbar=  1.01155631357877E+05
 cg2d: Sum(rhs),rhsMax =  -5.57665574132876E+01  1.61821801395230E+00
(PID.TID 0000.0001)  ploadbar=  1.01155952131596E+05
 cg2d: Sum(rhs),rhsMax =  -5.58537485070347E+01  1.61668203261062E+00
(PID.TID 0000.0001)  ploadbar=  1.01156272905314E+05
 cg2d: Sum(rhs),rhsMax =  -5.59516038362253E+01  1.61492989196881E+00
(PID.TID 0000.0001)  ploadbar=  1.01156593679032E+05
 cg2d: Sum(rhs),rhsMax =  -5.60599798325341E+01  1.61296691636487E+00
(PID.TID 0000.0001)  ploadbar=  1.01156914452751E+05
 cg2d: Sum(rhs),rhsMax =  -5.61784562720024E+01  1.61080781850885E+00
(PID.TID 0000.0001)  ploadbar=  1.01157235226469E+05
 cg2d: Sum(rhs),rhsMax =  -5.62960566803077E+01  1.60860463133428E+00
(PID.TID 0000.0001)  ploadbar=  1.01157461144989E+05
 cg2d: Sum(rhs),rhsMax =  -5.64160304203700E+01  1.60626650308477E+00
(PID.TID 0000.0001)  ploadbar=  1.01157687063508E+05
 cg2d: Sum(rhs),rhsMax =  -5.65365080213356E+01  1.60384994381099E+00
(PID.TID 0000.0001)  ploadbar=  1.01157912982027E+05
 cg2d: Sum(rhs),rhsMax =  -5.66539883609038E+01  1.60145728355683E+00
(PID.TID 0000.0001)  ploadbar=  1.01158138900546E+05
 cg2d: Sum(rhs),rhsMax =  -5.67649116167756E+01  1.59919260572513E+00
(PID.TID 0000.0001)  ploadbar=  1.01158364819065E+05
 cg2d: Sum(rhs),rhsMax =  -5.68660684343012E+01  1.59715044861628E+00
(PID.TID 0000.0001)  ploadbar=  1.01158590737585E+05
 cg2d: Sum(rhs),rhsMax =  -5.69647134800257E+01  1.59523713540052E+00
(PID.TID 0000.0001)  ploadbar=  1.01158598601625E+05
 cg2d: Sum(rhs),rhsMax =  -5.70532580466829E+01  1.59366277900259E+00
(PID.TID 0000.0001)  ploadbar=  1.01158606465666E+05
 cg2d: Sum(rhs),rhsMax =  -5.71288992019243E+01  1.59250407653542E+00
(PID.TID 0000.0001)  ploadbar=  1.01158614329707E+05
 cg2d: Sum(rhs),rhsMax =  -5.71930136171045E+01  1.59172284438574E+00
(PID.TID 0000.0001)  ploadbar=  1.01158622193748E+05
 cg2d: Sum(rhs),rhsMax =  -5.72462400756443E+01  1.59129933939606E+00
(PID.TID 0000.0001)  ploadbar=  1.01158630057789E+05
 cg2d: Sum(rhs),rhsMax =  -5.72884226415189E+01  1.59123779490025E+00
(PID.TID 0000.0001)  ploadbar=  1.01158637921830E+05
 cg2d: Sum(rhs),rhsMax =  -5.73165200470433E+01  1.59153936219082E+00
(PID.TID 0000.0001)  ploadbar=  1.01157854220366E+05
 cg2d: Sum(rhs),rhsMax =  -5.73338311231836E+01  1.59211560740671E+00
(PID.TID 0000.0001)  ploadbar=  1.01157070518902E+05
 cg2d: Sum(rhs),rhsMax =  -5.73386686568601E+01  1.59302279588796E+00
(PID.TID 0000.0001)  ploadbar=  1.01156286817438E+05
 cg2d: Sum(rhs),rhsMax =  -5.73332359997235E+01  1.59421172599959E+00
(PID.TID 0000.0001)  ploadbar=  1.01155503115974E+05
 cg2d: Sum(rhs),rhsMax =  -5.73193620604829E+01  1.59563394565047E+00
(PID.TID 0000.0001)  ploadbar=  1.01154719414510E+05
 cg2d: Sum(rhs),rhsMax =  -5.72985089696147E+01  1.59724824777926E+00
(PID.TID 0000.0001)  ploadbar=  1.01153935713047E+05
 cg2d: Sum(rhs),rhsMax =  -5.72809240354157E+01  1.59880878720702E+00
(PID.TID 0000.0001)  ploadbar=  1.01153124097338E+05
 cg2d: Sum(rhs),rhsMax =  -5.72625248023080E+01  1.60042700497136E+00
(PID.TID 0000.0001)  ploadbar=  1.01152312481630E+05
 cg2d: Sum(rhs),rhsMax =  -5.72426646029677E+01  1.60212247164870E+00
(PID.TID 0000.0001)  ploadbar=  1.01151500865922E+05
 cg2d: Sum(rhs),rhsMax =  -5.72230748570634E+01  1.60384856408524E+00
(PID.TID 0000.0001)  ploadbar=  1.01150689250213E+05
 cg2d: Sum(rhs),rhsMax =  -5.72041113828138E+01  1.60559426357891E+00
(PID.TID 0000.0001)  ploadbar=  1.01149877634505E+05
 cg2d: Sum(rhs),rhsMax =  -5.71962006190985E+01  1.60706683577634E+00
(PID.TID 0000.0001)  ploadbar=  1.01149066018797E+05
 cg2d: Sum(rhs),rhsMax =  -5.71889291835616E+01  1.60841631750572E+00
(PID.TID 0000.0001)  ploadbar=  1.01148741382566E+05
 cg2d: Sum(rhs),rhsMax =  -5.71831722241237E+01  1.60961987501488E+00
(PID.TID 0000.0001)  ploadbar=  1.01148416746336E+05
 cg2d: Sum(rhs),rhsMax =  -5.71817239187478E+01  1.61060405283836E+00
(PID.TID 0000.0001)  ploadbar=  1.01148092110105E+05
 cg2d: Sum(rhs),rhsMax =  -5.71858637553906E+01  1.61133520727229E+00
(PID.TID 0000.0001)  ploadbar=  1.01147767473875E+05
 cg2d: Sum(rhs),rhsMax =  -5.71961717606232E+01  1.61180016816800E+00
(PID.TID 0000.0001)  ploadbar=  1.01147442837644E+05
 cg2d: Sum(rhs),rhsMax =  -5.72134997022858E+01  1.61197487508115E+00
(PID.TID 0000.0001)  ploadbar=  1.01147118201414E+05
 cg2d: Sum(rhs),rhsMax =  -5.72389479158008E+01  1.61196381463938E+00
(PID.TID 0000.0001)  ploadbar=  1.01146220524335E+05
 cg2d: Sum(rhs),rhsMax =  -5.72683414814658E+01  1.61188308270464E+00
(PID.TID 0000.0001)  ploadbar=  1.01145322847257E+05
 cg2d: Sum(rhs),rhsMax =  -5.73002348082151E+01  1.61177483943204E+00
(PID.TID 0000.0001)  ploadbar=  1.01144425170179E+05
 cg2d: Sum(rhs),rhsMax =  -5.73328102959913E+01  1.61169094087482E+00
(PID.TID 0000.0001)  ploadbar=  1.01143527493101E+05
 cg2d: Sum(rhs),rhsMax =  -5.73643748651878E+01  1.61167854707656E+00
(PID.TID 0000.0001)  ploadbar=  1.01142629816022E+05
 cg2d: Sum(rhs),rhsMax =  -5.73939288820377E+01  1.61176584414494E+00
(PID.TID 0000.0001)  ploadbar=  1.01141732138944E+05
 cg2d: Sum(rhs),rhsMax =  -5.74115599257011E+01  1.61214691062070E+00
(PID.TID 0000.0001)  ploadbar=  1.01141047470121E+05
 cg2d: Sum(rhs),rhsMax =  -5.74211321805741E+01  1.61271767980843E+00
(PID.TID 0000.0001)  ploadbar=  1.01140362801297E+05
 cg2d: Sum(rhs),rhsMax =  -5.74247402462583E+01  1.61342581753168E+00
(PID.TID 0000.0001)  ploadbar=  1.01139678132474E+05
 cg2d: Sum(rhs),rhsMax =  -5.74222219758121E+01  1.61427734243100E+00
(PID.TID 0000.0001)  ploadbar=  1.01138993463651E+05
 cg2d: Sum(rhs),rhsMax =  -5.74143485663093E+01  1.61525262236905E+00
(PID.TID 0000.0001)  ploadbar=  1.01138308794827E+05
 cg2d: Sum(rhs),rhsMax =  -5.74024860149834E+01  1.61631392029764E+00
(PID.TID 0000.0001)  ploadbar=  1.01137624126004E+05
 cg2d: Sum(rhs),rhsMax =  -5.73943240333777E+01  1.61732179679974E+00
(PID.TID 0000.0001)  ploadbar=  1.01136898945751E+05
 cg2d: Sum(rhs),rhsMax =  -5.73861023064314E+01  1.61838134545350E+00
(PID.TID 0000.0001)  ploadbar=  1.01136173765498E+05
 cg2d: Sum(rhs),rhsMax =  -5.73801140805483E+01  1.61942907933789E+00
(PID.TID 0000.0001)  ploadbar=  1.01135448585245E+05
 cg2d: Sum(rhs),rhsMax =  -5.73761122018866E+01  1.62047038775892E+00
(PID.TID 0000.0001)  ploadbar=  1.01134723404992E+05
 cg2d: Sum(rhs),rhsMax =  -5.73736812427461E+01  1.62151514690873E+00
(PID.TID 0000.0001)  ploadbar=  1.01133998224739E+05
 cg2d: Sum(rhs),rhsMax =  -5.73730141648114E+01  1.62255639424895E+00
(PID.TID 0000.0001)  ploadbar=  1.01133273044486E+05
 cg2d: Sum(rhs),rhsMax =  -5.73662191149801E+01  1.62368542823834E+00
(PID.TID 0000.0001)  ploadbar=  1.01132354929650E+05
 cg2d: Sum(rhs),rhsMax =  -5.73577262250207E+01  1.62477553319310E+00
(PID.TID 0000.0001)  ploadbar=  1.01131436814815E+05
 cg2d: Sum(rhs),rhsMax =  -5.73472266415476E+01  1.62583832657429E+00
(PID.TID 0000.0001)  ploadbar=  1.01130518699979E+05
 cg2d: Sum(rhs),rhsMax =  -5.73336312057117E+01  1.62690461242296E+00
(PID.TID 0000.0001)  ploadbar=  1.01129600585144E+05
 cg2d: Sum(rhs),rhsMax =  -5.73183236100970E+01  1.62793703710302E+00
(PID.TID 0000.0001)  ploadbar=  1.01128682470308E+05
 cg2d: Sum(rhs),rhsMax =  -5.73018494581697E+01  1.62891851543448E+00
(PID.TID 0000.0001)  ploadbar=  1.01127764355472E+05
 cg2d: Sum(rhs),rhsMax =  -5.72910334724013E+01  1.62981730813826E+00
(PID.TID 0000.0001)  ploadbar=  1.01126020878325E+05
 cg2d: Sum(rhs),rhsMax =  -5.72887121667417E+01  1.63055171258244E+00
(PID.TID 0000.0001)  ploadbar=  1.01124277401178E+05
 cg2d: Sum(rhs),rhsMax =  -5.72949995535995E+01  1.63111759806515E+00
(PID.TID 0000.0001)  ploadbar=  1.01122533924031E+05
 cg2d: Sum(rhs),rhsMax =  -5.73108704123030E+01  1.63148523651082E+00
(PID.TID 0000.0001)  ploadbar=  1.01120790446884E+05
 cg2d: Sum(rhs),rhsMax =  -5.73380908678333E+01  1.63160200432574E+00
(PID.TID 0000.0001)  ploadbar=  1.01119046969737E+05
 cg2d: Sum(rhs),rhsMax =  -5.73777977016249E+01  1.63143423686318E+00
(PID.TID 0000.0001)  ploadbar=  1.01117303492590E+05
 cg2d: Sum(rhs),rhsMax =  -5.74207745910023E+01  1.63112921787515E+00
(PID.TID 0000.0001)  ploadbar=  1.01116071988899E+05
 cg2d: Sum(rhs),rhsMax =  -5.74750847272885E+01  1.63046056328714E+00
(PID.TID 0000.0001)  ploadbar=  1.01114840485209E+05
 cg2d: Sum(rhs),rhsMax =  -5.75402603414159E+01  1.62944311955785E+00
(PID.TID 0000.0001)  ploadbar=  1.01113608981518E+05
 cg2d: Sum(rhs),rhsMax =  -5.76154727946254E+01  1.62809928905475E+00
(PID.TID 0000.0001)  ploadbar=  1.01112377477827E+05
 cg2d: Sum(rhs),rhsMax =  -5.77002941046857E+01  1.62644216508544E+00
(PID.TID 0000.0001)  ploadbar=  1.01111145974137E+05
 cg2d: Sum(rhs),rhsMax =  -5.77932063439035E+01  1.62451739315125E+00
(PID.TID 0000.0001)  ploadbar=  1.01109914470446E+05
 cg2d: Sum(rhs),rhsMax =  -5.78975061346317E+01  1.62233791235333E+00
(PID.TID 0000.0001)  ploadbar=  1.01106933136417E+05
 cg2d: Sum(rhs),rhsMax =  -5.80137072062941E+01  1.61989297091751E+00
(PID.TID 0000.0001)  ploadbar=  1.01103951802388E+05
 cg2d: Sum(rhs),rhsMax =  -5.81384642999874E+01  1.61727668301278E+00
(PID.TID 0000.0001)  ploadbar=  1.01100970468358E+05
 cg2d: Sum(rhs),rhsMax =  -5.82692141621266E+01  1.61456030297357E+00
(PID.TID 0000.0001)  ploadbar=  1.01097989134329E+05
 cg2d: Sum(rhs),rhsMax =  -5.84040015830456E+01  1.61179440834570E+00
(PID.TID 0000.0001)  ploadbar=  1.01095007800300E+05
 cg2d: Sum(rhs),rhsMax =  -5.85408603339652E+01  1.60903190374464E+00
(PID.TID 0000.0001)  ploadbar=  1.01092026466271E+05
 cg2d: Sum(rhs),rhsMax =  -5.86715826132767E+01  1.60635733705854E+00
(PID.TID 0000.0001)  ploadbar=  1.01090978275003E+05
 cg2d: Sum(rhs),rhsMax =  -5.87958077114017E+01  1.60377918647302E+00
(PID.TID 0000.0001)  ploadbar=  1.01089930083735E+05
 cg2d: Sum(rhs),rhsMax =  -5.89132798433934E+01  1.60130255701250E+00
(PID.TID 0000.0001)  ploadbar=  1.01088881892467E+05
 cg2d: Sum(rhs),rhsMax =  -5.90240850048205E+01  1.59892464385736E+00
(PID.TID 0000.0001)  ploadbar=  1.01087833701200E+05
 cg2d: Sum(rhs),rhsMax =  -5.91287295899435E+01  1.59663197866720E+00
(PID.TID 0000.0001)  ploadbar=  1.01086785509932E+05
 cg2d: Sum(rhs),rhsMax =  -5.92274367974231E+01  1.59441914313822E+00
(PID.TID 0000.0001)  ploadbar=  1.01085737318664E+05
 cg2d: Sum(rhs),rhsMax =  -5.93220821839260E+01  1.59240303511230E+00
(PID.TID 0000.0001)  ploadbar=  1.01085895827018E+05
 cg2d: Sum(rhs),rhsMax =  -5.94204757376691E+01  1.59037203909778E+00
(PID.TID 0000.0001)  ploadbar=  1.01086054335372E+05
 cg2d: Sum(rhs),rhsMax =  -5.95215153437237E+01  1.58835493631941E+00
(PID.TID 0000.0001)  ploadbar=  1.01086212843726E+05
 cg2d: Sum(rhs),rhsMax =  -5.96251214482606E+01  1.58635386212871E+00
(PID.TID 0000.0001)  ploadbar=  1.01086371352080E+05
 cg2d: Sum(rhs),rhsMax =  -5.97314904997812E+01  1.58436531204033E+00
(PID.TID 0000.0001)  ploadbar=  1.01086529860433E+05
 cg2d: Sum(rhs),rhsMax =  -5.98402617119132E+01  1.58240028391258E+00
(PID.TID 0000.0001)  ploadbar=  1.01086688368787E+05
 cg2d: Sum(rhs),rhsMax =  -5.99496470455762E+01  1.58041554705283E+00
(PID.TID 0000.0001)  ploadbar=  1.01085783940595E+05
 cg2d: Sum(rhs),rhsMax =  -6.00551614774596E+01  1.57853160236675E+00
(PID.TID 0000.0001)  ploadbar=  1.01084879512403E+05
 cg2d: Sum(rhs),rhsMax =  -6.01555207409356E+01  1.57678640090534E+00
(PID.TID 0000.0001)  ploadbar=  1.01083975084211E+05
 cg2d: Sum(rhs),rhsMax =  -6.02509737185532E+01  1.57517534831287E+00
(PID.TID 0000.0001)  ploadbar=  1.01083070656019E+05
 cg2d: Sum(rhs),rhsMax =  -6.03402708276167E+01  1.57373587923098E+00
(PID.TID 0000.0001)  ploadbar=  1.01082166227827E+05
 cg2d: Sum(rhs),rhsMax =  -6.04224183553524E+01  1.57249362388861E+00
(PID.TID 0000.0001)  ploadbar=  1.01081261799634E+05
 cg2d: Sum(rhs),rhsMax =  -6.05071940641322E+01  1.57122302220306E+00
(PID.TID 0000.0001)  ploadbar=  1.01079810517372E+05
 cg2d: Sum(rhs),rhsMax =  -6.05904984886752E+01  1.57003203157830E+00
(PID.TID 0000.0001)  ploadbar=  1.01078359235110E+05
 cg2d: Sum(rhs),rhsMax =  -6.06726923927803E+01  1.56890975055335E+00
(PID.TID 0000.0001)  ploadbar=  1.01076907952848E+05
 cg2d: Sum(rhs),rhsMax =  -6.07561996591356E+01  1.56779366161048E+00
(PID.TID 0000.0001)  ploadbar=  1.01075456670586E+05
 cg2d: Sum(rhs),rhsMax =  -6.08412434053104E+01  1.56667905046336E+00
(PID.TID 0000.0001)  ploadbar=  1.01074005388324E+05
 cg2d: Sum(rhs),rhsMax =  -6.09281992444721E+01  1.56555674573823E+00
(PID.TID 0000.0001)  ploadbar=  1.01072554106062E+05
 cg2d: Sum(rhs),rhsMax =  -6.10200328604693E+01  1.56420951801367E+00
(PID.TID 0000.0001)  ploadbar=  1.01071922237422E+05
 cg2d: Sum(rhs),rhsMax =  -6.11063636634661E+01  1.56290482706238E+00
(PID.TID 0000.0001)  ploadbar=  1.01071290368782E+05
 cg2d: Sum(rhs),rhsMax =  -6.11871533920987E+01  1.56164450412152E+00
(PID.TID 0000.0001)  ploadbar=  1.01070658500141E+05
 cg2d: Sum(rhs),rhsMax =  -6.12635301072663E+01  1.56040085065737E+00
(PID.TID 0000.0001)  ploadbar=  1.01070026631501E+05
 cg2d: Sum(rhs),rhsMax =  -6.13352544458103E+01  1.55918312918745E+00
(PID.TID 0000.0001)  ploadbar=  1.01069394762861E+05
 cg2d: Sum(rhs),rhsMax =  -6.14026659772610E+01  1.55798263938539E+00
(PID.TID 0000.0001)  ploadbar=  1.01068762894220E+05
 cg2d: Sum(rhs),rhsMax =  -6.14695579635878E+01  1.55687179878711E+00
(PID.TID 0000.0001)  ploadbar=  1.01068452414673E+05
 cg2d: Sum(rhs),rhsMax =  -6.13277829791423E+01  1.56112930628597E+00
(PID.TID 0000.0001)  ploadbar=  1.01068141935125E+05
 cg2d: Sum(rhs),rhsMax =  -6.04747535329240E+01  1.58389151610127E+00
(PID.TID 0000.0001)  ploadbar=  1.01067831455578E+05
 cg2d: Sum(rhs),rhsMax =  -5.96450136845890E+01  1.60675191988422E+00
(PID.TID 0000.0001)  ploadbar=  1.01067520976030E+05
 cg2d: Sum(rhs),rhsMax =  -5.88393830066148E+01  1.62966356536269E+00
(PID.TID 0000.0001)  ploadbar=  1.01067210496483E+05
 cg2d: Sum(rhs),rhsMax =  -5.80585067581617E+01  1.65258239984622E+00
(PID.TID 0000.0001)  ploadbar=  1.01066900016935E+05
 cg2d: Sum(rhs),rhsMax =  -5.73148363906506E+01  1.67502073950075E+00
(PID.TID 0000.0001)  ploadbar=  1.01067159477641E+05
 cg2d: Sum(rhs),rhsMax =  -5.66004552927409E+01  1.69715496457617E+00
(PID.TID 0000.0001)  ploadbar=  1.01067418938346E+05
 cg2d: Sum(rhs),rhsMax =  -5.59087179176232E+01  1.71914927898396E+00
(PID.TID 0000.0001)  ploadbar=  1.01067678399051E+05
 cg2d: Sum(rhs),rhsMax =  -5.52376564093646E+01  1.74103821937211E+00
(PID.TID 0000.0001)  ploadbar=  1.01067937859757E+05
 cg2d: Sum(rhs),rhsMax =  -5.45819454230859E+01  1.76296749634052E+00
(PID.TID 0000.0001)  ploadbar=  1.01068197320462E+05
 cg2d: Sum(rhs),rhsMax =  -5.39383774420328E+01  1.78502267872553E+00
(PID.TID 0000.0001)  ploadbar=  1.01068456781167E+05
 cg2d: Sum(rhs),rhsMax =  -5.33380860181694E+01  1.80623530526982E+00
(PID.TID 0000.0001)  ploadbar=  1.01068522016617E+05
 cg2d: Sum(rhs),rhsMax =  -5.27595267923186E+01  1.82726793347257E+00
(PID.TID 0000.0001)  ploadbar=  1.01068587252068E+05
 cg2d: Sum(rhs),rhsMax =  -5.22308376438852E+01  1.84709593913418E+00
(PID.TID 0000.0001)  ploadbar=  1.01068652487518E+05
 cg2d: Sum(rhs),rhsMax =  -5.17652323342923E+01  1.86515010120309E+00
(PID.TID 0000.0001)  ploadbar=  1.01068717722968E+05
 cg2d: Sum(rhs),rhsMax =  -5.13643631565227E+01  1.88125621175206E+00
(PID.TID 0000.0001)  ploadbar=  1.01068782958418E+05
 cg2d: Sum(rhs),rhsMax =  -5.10295304468597E+01  1.89525848771631E+00
(PID.TID 0000.0001)  ploadbar=  1.01068848193869E+05
 cg2d: Sum(rhs),rhsMax =  -5.07740871398909E+01  1.90631744650834E+00
(PID.TID 0000.0001)  ploadbar=  1.01069903721491E+05
 cg2d: Sum(rhs),rhsMax =  -5.05912573847062E+01  1.91459391032067E+00
(PID.TID 0000.0001)  ploadbar=  1.01070959249113E+05
 cg2d: Sum(rhs),rhsMax =  -5.04843363122317E+01  1.91989831348932E+00
(PID.TID 0000.0001)  ploadbar=  1.01072014776735E+05
 cg2d: Sum(rhs),rhsMax =  -5.04494367361566E+01  1.92233862562999E+00
(PID.TID 0000.0001)  ploadbar=  1.01073070304357E+05
 cg2d: Sum(rhs),rhsMax =  -5.04834575169622E+01  1.92201927573251E+00
(PID.TID 0000.0001)  ploadbar=  1.01074125831979E+05
 cg2d: Sum(rhs),rhsMax =  -5.05421756212944E+01  1.92062761262473E+00
(PID.TID 0000.0001)  ploadbar=  1.01075181359601E+05
 cg2d: Sum(rhs),rhsMax =  -5.06380237951657E+01  1.91787968828823E+00
(PID.TID 0000.0001)  ploadbar=  1.01077198514796E+05
 cg2d: Sum(rhs),rhsMax =  -5.09241155413231E+01  1.90803222894834E+00
(PID.TID 0000.0001)  ploadbar=  1.01079215669990E+05
 cg2d: Sum(rhs),rhsMax =  -5.13418276710085E+01  1.89347184485997E+00
(PID.TID 0000.0001)  ploadbar=  1.01081232825185E+05
 cg2d: Sum(rhs),rhsMax =  -5.18647607638743E+01  1.87537931421315E+00
(PID.TID 0000.0001)  ploadbar=  1.01083249980379E+05
 cg2d: Sum(rhs),rhsMax =  -5.24775206731493E+01  1.85451333461810E+00
(PID.TID 0000.0001)  ploadbar=  1.01085267135574E+05
 cg2d: Sum(rhs),rhsMax =  -5.31746840651157E+01  1.83126160295623E+00
(PID.TID 0000.0001)  ploadbar=  1.01087284290768E+05
 cg2d: Sum(rhs),rhsMax =  -5.38528408399477E+01  1.80919328424620E+00
(PID.TID 0000.0001)  ploadbar=  1.01088210007314E+05
 cg2d: Sum(rhs),rhsMax =  -5.44955200498802E+01  1.78878561572962E+00
(PID.TID 0000.0001)  ploadbar=  1.01089135723860E+05
 cg2d: Sum(rhs),rhsMax =  -5.51047173594827E+01  1.76988289362765E+00
(PID.TID 0000.0001)  ploadbar=  1.01090061440407E+05
 cg2d: Sum(rhs),rhsMax =  -5.56804304862720E+01  1.75240949493770E+00
(PID.TID 0000.0001)  ploadbar=  1.01090987156953E+05
 cg2d: Sum(rhs),rhsMax =  -5.62263226223897E+01  1.73617690563609E+00
(PID.TID 0000.0001)  ploadbar=  1.01091912873499E+05
 cg2d: Sum(rhs),rhsMax =  -5.67335749281570E+01  1.72138877748827E+00
(PID.TID 0000.0001)  ploadbar=  1.01092838590045E+05
 cg2d: Sum(rhs),rhsMax =  -5.71845789527628E+01  1.70861135900894E+00
(PID.TID 0000.0001)  ploadbar=  1.01093372586079E+05
 cg2d: Sum(rhs),rhsMax =  -5.75866739865621E+01  1.69754307034334E+00
(PID.TID 0000.0001)  ploadbar=  1.01093906582113E+05
 cg2d: Sum(rhs),rhsMax =  -5.80134345313747E+01  1.68597949340261E+00
(PID.TID 0000.0001)  ploadbar=  1.01094440578147E+05
 cg2d: Sum(rhs),rhsMax =  -5.84331690019083E+01  1.67485377587754E+00
(PID.TID 0000.0001)  ploadbar=  1.01094974574181E+05
 cg2d: Sum(rhs),rhsMax =  -5.88286231266264E+01  1.66464001538991E+00
(PID.TID 0000.0001)  ploadbar=  1.01095508570215E+05
 cg2d: Sum(rhs),rhsMax =  -5.91972987990044E+01  1.65537604798778E+00
(PID.TID 0000.0001)  ploadbar=  1.01096042566249E+05
 cg2d: Sum(rhs),rhsMax =  -5.95411891904078E+01  1.64684348848416E+00
(PID.TID 0000.0001)  ploadbar=  1.01096870673215E+05
 cg2d: Sum(rhs),rhsMax =  -5.98615647756290E+01  1.63898447552336E+00
(PID.TID 0000.0001)  ploadbar=  1.01097698780181E+05
 cg2d: Sum(rhs),rhsMax =  -6.01558480903184E+01  1.63185367042395E+00
(PID.TID 0000.0001)  ploadbar=  1.01098526887147E+05
 cg2d: Sum(rhs),rhsMax =  -6.04262488895044E+01  1.62537611103560E+00
(PID.TID 0000.0001)  ploadbar=  1.01099354994113E+05
 cg2d: Sum(rhs),rhsMax =  -6.06743731319817E+01  1.61949600690005E+00
(PID.TID 0000.0001)  ploadbar=  1.01100183101079E+05
 cg2d: Sum(rhs),rhsMax =  -6.09011023986753E+01  1.61418005867342E+00
(PID.TID 0000.0001)  ploadbar=  1.01101011208045E+05
 cg2d: Sum(rhs),rhsMax =  -6.10745540221704E+01  1.61035224285897E+00
(PID.TID 0000.0001)  ploadbar=  1.01102741562178E+05
 cg2d: Sum(rhs),rhsMax =  -6.12162998289904E+01  1.60742295453551E+00
(PID.TID 0000.0001)  ploadbar=  1.01104471916311E+05
 cg2d: Sum(rhs),rhsMax =  -6.13716257325821E+01  1.60419695687680E+00
(PID.TID 0000.0001)  ploadbar=  1.01106202270444E+05
 cg2d: Sum(rhs),rhsMax =  -6.15341973599860E+01  1.60084419965402E+00
(PID.TID 0000.0001)  ploadbar=  1.01107932624577E+05
 cg2d: Sum(rhs),rhsMax =  -6.16992780748978E+01  1.59749055576740E+00
(PID.TID 0000.0001)  ploadbar=  1.01109662978710E+05
 cg2d: Sum(rhs),rhsMax =  -6.18665894073514E+01  1.59414570269202E+00
(PID.TID 0000.0001)  ploadbar=  1.01111393332843E+05
 cg2d: Sum(rhs),rhsMax =  -6.20349864377872E+01  1.59077950500131E+00
(PID.TID 0000.0001)  ploadbar=  1.01111949743183E+05
 cg2d: Sum(rhs),rhsMax =  -6.22111577133221E+01  1.58722806430284E+00
(PID.TID 0000.0001)  ploadbar=  1.01112506153524E+05
 cg2d: Sum(rhs),rhsMax =  -6.23935170818677E+01  1.58354147839541E+00
(PID.TID 0000.0001)  ploadbar=  1.01113062563864E+05
 cg2d: Sum(rhs),rhsMax =  -6.25840778358094E+01  1.57967358134313E+00
(PID.TID 0000.0001)  ploadbar=  1.01113618974204E+05
 cg2d: Sum(rhs),rhsMax =  -6.27779913488169E+01  1.57575025293180E+00
(PID.TID 0000.0001)  ploadbar=  1.01114175384545E+05
 cg2d: Sum(rhs),rhsMax =  -6.29688283383879E+01  1.57193401586428E+00
(PID.TID 0000.0001)  ploadbar=  1.01114731794885E+05
 cg2d: Sum(rhs),rhsMax =  -6.31319064236750E+01  1.56887566329731E+00
(PID.TID 0000.0001)  ploadbar=  1.01114458854136E+05
 cg2d: Sum(rhs),rhsMax =  -6.32886527505267E+01  1.56603610536205E+00
(PID.TID 0000.0001)  ploadbar=  1.01114185913386E+05
 cg2d: Sum(rhs),rhsMax =  -6.34375343778874E+01  1.56345101754592E+00
(PID.TID 0000.0001)  ploadbar=  1.01113912972637E+05
 cg2d: Sum(rhs),rhsMax =  -6.35760510576942E+01  1.56117936403763E+00
(PID.TID 0000.0001)  ploadbar=  1.01113640031888E+05
 cg2d: Sum(rhs),rhsMax =  -6.37034260243304E+01  1.55923697642303E+00
(PID.TID 0000.0001)  ploadbar=  1.01113367091138E+05
 cg2d: Sum(rhs),rhsMax =  -6.38206383543351E+01  1.55759578950827E+00
(PID.TID 0000.0001)  ploadbar=  1.01113094150389E+05
 cg2d: Sum(rhs),rhsMax =  -6.39243131841508E+01  1.55622393611214E+00
(PID.TID 0000.0001)  ploadbar=  1.01112241067451E+05
 cg2d: Sum(rhs),rhsMax =  -6.40250735472812E+01  1.55486166655614E+00
(PID.TID 0000.0001)  ploadbar=  1.01111387984513E+05
 cg2d: Sum(rhs),rhsMax =  -6.41321969713768E+01  1.55328478887032E+00
(PID.TID 0000.0001)  ploadbar=  1.01110534901575E+05
 cg2d: Sum(rhs),rhsMax =  -6.42456714452768E+01  1.55149563546958E+00
(PID.TID 0000.0001)  ploadbar=  1.01109681818637E+05
 cg2d: Sum(rhs),rhsMax =  -6.43613849339336E+01  1.54959673251461E+00
(PID.TID 0000.0001)  ploadbar=  1.01108828735700E+05
 cg2d: Sum(rhs),rhsMax =  -6.44755807241200E+01  1.54767834985230E+00
(PID.TID 0000.0001)  ploadbar=  1.01107975652762E+05
 cg2d: Sum(rhs),rhsMax =  -6.45643146185707E+01  1.54644231651148E+00
(PID.TID 0000.0001)  ploadbar=  1.01107176299239E+05
 cg2d: Sum(rhs),rhsMax =  -6.46368603954070E+01  1.54566260796856E+00
(PID.TID 0000.0001)  ploadbar=  1.01106376945716E+05
 cg2d: Sum(rhs),rhsMax =  -6.46860500620354E+01  1.54550983914380E+00
(PID.TID 0000.0001)  ploadbar=  1.01105577592193E+05
 cg2d: Sum(rhs),rhsMax =  -6.47030054943975E+01  1.54619727232009E+00
(PID.TID 0000.0001)  ploadbar=  1.01104778238671E+05
 cg2d: Sum(rhs),rhsMax =  -6.46796812057846E+01  1.54791882369135E+00
(PID.TID 0000.0001)  ploadbar=  1.01103978885148E+05
 cg2d: Sum(rhs),rhsMax =  -6.46075397145946E+01  1.55088405497548E+00
(PID.TID 0000.0001)  ploadbar=  1.01103179531625E+05
 cg2d: Sum(rhs),rhsMax =  -6.44707212520254E+01  1.55536078666279E+00
(PID.TID 0000.0001)  ploadbar=  1.01102663006295E+05
 cg2d: Sum(rhs),rhsMax =  -6.43089955412730E+01  1.56041230087836E+00
(PID.TID 0000.0001)  ploadbar=  1.01102146480964E+05
 cg2d: Sum(rhs),rhsMax =  -6.41521126435688E+01  1.56532811357250E+00
(PID.TID 0000.0001)  ploadbar=  1.01101629955633E+05
 cg2d: Sum(rhs),rhsMax =  -6.40317584919925E+01  1.56933081609637E+00
(PID.TID 0000.0001)  ploadbar=  1.01101113430302E+05
 cg2d: Sum(rhs),rhsMax =  -6.37110786933864E+01  1.57825793746667E+00
(PID.TID 0000.0001)  ploadbar=  1.01100596904971E+05
 cg2d: Sum(rhs),rhsMax =  -6.33746960321794E+01  1.58762982357645E+00
(PID.TID 0000.0001)  ploadbar=  1.01100080379640E+05
 cg2d: Sum(rhs),rhsMax =  -6.30030991675091E+01  1.59804803761209E+00
(PID.TID 0000.0001)  ploadbar=  1.01099658312403E+05
 cg2d: Sum(rhs),rhsMax =  -6.25714690616272E+01  1.61018674491354E+00
(PID.TID 0000.0001)  ploadbar=  1.01099236245166E+05
 cg2d: Sum(rhs),rhsMax =  -6.09443414371963E+01  1.65437684267821E+00
(PID.TID 0000.0001)  ploadbar=  1.01098814177928E+05
 cg2d: Sum(rhs),rhsMax =  -5.90019291105175E+01  1.71013928917001E+00
(PID.TID 0000.0001)  ploadbar=  1.01098392110691E+05
 cg2d: Sum(rhs),rhsMax =  -5.72618105977140E+01  1.76350818264342E+00
(PID.TID 0000.0001)  ploadbar=  1.01097970043454E+05
 cg2d: Sum(rhs),rhsMax =  -5.57094766924267E+01  1.81415245350241E+00
(PID.TID 0000.0001)  ploadbar=  1.01097547976217E+05
 cg2d: Sum(rhs),rhsMax =  -5.44079698008254E+01  1.85903460794661E+00
(PID.TID 0000.0001)  ploadbar=  1.01096505994592E+05
 cg2d: Sum(rhs),rhsMax =  -5.32063371044172E+01  1.90248532581208E+00
(PID.TID 0000.0001)  ploadbar=  1.01095464012967E+05
 cg2d: Sum(rhs),rhsMax =  -5.20762827550471E+01  1.94521288388588E+00
(PID.TID 0000.0001)  ploadbar=  1.01094422031342E+05
 cg2d: Sum(rhs),rhsMax =  -5.09843795332038E+01  1.98829396574390E+00
(PID.TID 0000.0001)  ploadbar=  1.01093380049718E+05
 cg2d: Sum(rhs),rhsMax =  -4.99007277215265E+01  2.03287321378275E+00
(PID.TID 0000.0001)  ploadbar=  1.01092338068093E+05
 cg2d: Sum(rhs),rhsMax =  -4.89115888372841E+01  2.07535976694827E+00
(PID.TID 0000.0001)  ploadbar=  1.01091296086468E+05
 cg2d: Sum(rhs),rhsMax =  -4.82052544953428E+01  2.10721444668756E+00
(PID.TID 0000.0001)  ploadbar=  1.01091188720048E+05
 cg2d: Sum(rhs),rhsMax =  -4.78036950653840E+01  2.12642114810389E+00
(PID.TID 0000.0001)  ploadbar=  1.01091081353628E+05
 cg2d: Sum(rhs),rhsMax =  -4.76438576958735E+01  2.13511473441781E+00
(PID.TID 0000.0001)  ploadbar=  1.01090973987208E+05
 cg2d: Sum(rhs),rhsMax =  -4.80703684888656E+01  2.11776700825185E+00
(PID.TID 0000.0001)  ploadbar=  1.01090866620788E+05
 cg2d: Sum(rhs),rhsMax =  -4.92873278442696E+01  2.06707938984268E+00
(PID.TID 0000.0001)  ploadbar=  1.01090759254369E+05
 cg2d: Sum(rhs),rhsMax =  -5.04007997583283E+01  2.02302364629685E+00
(PID.TID 0000.0001)  ploadbar=  1.01090651887949E+05
 cg2d: Sum(rhs),rhsMax =  -5.13399579656874E+01  1.98754753747907E+00
(PID.TID 0000.0001)  ploadbar=  1.01091005796785E+05
 cg2d: Sum(rhs),rhsMax =  -5.22240251020749E+01  1.95536208979402E+00
(PID.TID 0000.0001)  ploadbar=  1.01091359705621E+05
 cg2d: Sum(rhs),rhsMax =  -5.30712088317256E+01  1.92554365519942E+00
(PID.TID 0000.0001)  ploadbar=  1.01091713614457E+05
 cg2d: Sum(rhs),rhsMax =  -5.38835463136885E+01  1.89784992283509E+00
(PID.TID 0000.0001)  ploadbar=  1.01092067523293E+05
 cg2d: Sum(rhs),rhsMax =  -5.21905385578752E+01  1.96075271831628E+00
(PID.TID 0000.0001)  ploadbar=  1.01092421432129E+05
 cg2d: Sum(rhs),rhsMax =  -5.08120585060987E+01  2.01528066249014E+00
(PID.TID 0000.0001)  ploadbar=  1.01092775340965E+05
 cg2d: Sum(rhs),rhsMax =  -5.02496682879830E+01  2.03922009810127E+00
(PID.TID 0000.0001)  ploadbar=  1.01093195952812E+05
 cg2d: Sum(rhs),rhsMax =  -5.03621754375532E+01  2.03608088800382E+00
(PID.TID 0000.0001)  ploadbar=  1.01093616564659E+05
 cg2d: Sum(rhs),rhsMax =  -5.10570469796324E+01  2.00980021505813E+00
(PID.TID 0000.0001)  ploadbar=  1.01094037176505E+05
 cg2d: Sum(rhs),rhsMax =  -5.18626649016824E+01  1.98002197505379E+00
(PID.TID 0000.0001)  ploadbar=  1.01094457788352E+05
 cg2d: Sum(rhs),rhsMax =  -5.26666068387407E+01  1.95125026773725E+00
(PID.TID 0000.0001)  ploadbar=  1.01094878400199E+05
 cg2d: Sum(rhs),rhsMax =  -5.34119443386628E+01  1.92548592665913E+00
(PID.TID 0000.0001)  ploadbar=  1.01095299012046E+05
 cg2d: Sum(rhs),rhsMax =  -5.40064369392856E+01  1.90566556750315E+00
(PID.TID 0000.0001)  ploadbar=  1.01094961351838E+05
 cg2d: Sum(rhs),rhsMax =  -5.45202666814302E+01  1.88899536333280E+00
(PID.TID 0000.0001)  ploadbar=  1.01094623691631E+05
 cg2d: Sum(rhs),rhsMax =  -5.49719258213922E+01  1.87468433831732E+00
(PID.TID 0000.0001)  ploadbar=  1.01094286031424E+05
 cg2d: Sum(rhs),rhsMax =  -5.53995360964751E+01  1.86134664926018E+00
(PID.TID 0000.0001)  ploadbar=  1.01093948371216E+05
 cg2d: Sum(rhs),rhsMax =  -5.58898966733493E+01  1.84607064073120E+00
(PID.TID 0000.0001)  ploadbar=  1.01093610711009E+05
 cg2d: Sum(rhs),rhsMax =  -5.64779726239298E+01  1.82782321656751E+00
(PID.TID 0000.0001)  ploadbar=  1.01093273050802E+05
 cg2d: Sum(rhs),rhsMax =  -5.71330094541413E+01  1.80788087165585E+00
(PID.TID 0000.0001)  ploadbar=  1.01094350026331E+05
 cg2d: Sum(rhs),rhsMax =  -5.75355974248626E+01  1.79628681089305E+00
(PID.TID 0000.0001)  ploadbar=  1.01095427001860E+05
 cg2d: Sum(rhs),rhsMax =  -5.70422397586913E+01  1.81293475719406E+00
(PID.TID 0000.0001)  ploadbar=  1.01096503977390E+05
 cg2d: Sum(rhs),rhsMax =  -5.66352743883847E+01  1.82712785393744E+00
(PID.TID 0000.0001)  ploadbar=  1.01097580952919E+05
 cg2d: Sum(rhs),rhsMax =  -5.63186810737627E+01  1.83861745570480E+00
(PID.TID 0000.0001)  ploadbar=  1.01098657928449E+05
 cg2d: Sum(rhs),rhsMax =  -5.60892451627585E+01  1.84740572099646E+00
(PID.TID 0000.0001)  ploadbar=  1.01099734903978E+05
 cg2d: Sum(rhs),rhsMax =  -5.58593308309434E+01  1.85625579357035E+00
(PID.TID 0000.0001)  ploadbar=  1.01099760582590E+05
 cg2d: Sum(rhs),rhsMax =  -5.56517948926045E+01  1.86440617521445E+00
(PID.TID 0000.0001)  ploadbar=  1.01099786261202E+05
 cg2d: Sum(rhs),rhsMax =  -5.54665418382788E+01  1.87184780292337E+00
(PID.TID 0000.0001)  ploadbar=  1.01099811939814E+05
 cg2d: Sum(rhs),rhsMax =  -5.52760775211962E+01  1.87949766123500E+00
(PID.TID 0000.0001)  ploadbar=  1.01099837618426E+05
 cg2d: Sum(rhs),rhsMax =  -5.50666614111001E+01  1.88783034374966E+00
(PID.TID 0000.0001)  ploadbar=  1.01099863297039E+05
 cg2d: Sum(rhs),rhsMax =  -5.48298779357145E+01  1.89715425696611E+00
(PID.TID 0000.0001)  ploadbar=  1.01099888975651E+05
 cg2d: Sum(rhs),rhsMax =  -5.45361224089607E+01  1.90858636257876E+00
(PID.TID 0000.0001)  ploadbar=  1.01099702918318E+05
 cg2d: Sum(rhs),rhsMax =  -5.41834014763790E+01  1.92227149309838E+00
(PID.TID 0000.0001)  ploadbar=  1.01099516860985E+05
 cg2d: Sum(rhs),rhsMax =  -5.37783770617308E+01  1.93805861037158E+00
(PID.TID 0000.0001)  ploadbar=  1.01099330803652E+05
 cg2d: Sum(rhs),rhsMax =  -5.33243279671055E+01  1.95592094166341E+00
(PID.TID 0000.0001)  ploadbar=  1.01099144746319E+05
 cg2d: Sum(rhs),rhsMax =  -5.28253888561056E+01  1.97580969609211E+00
(PID.TID 0000.0001)  ploadbar=  1.01098958688986E+05
 cg2d: Sum(rhs),rhsMax =  -5.22877833411724E+01  1.99759758502216E+00
(PID.TID 0000.0001)  ploadbar=  1.01098772631653E+05
 cg2d: Sum(rhs),rhsMax =  -5.17587571582285E+01  2.01945592479984E+00
(PID.TID 0000.0001)  ploadbar=  1.01099451948385E+05
 cg2d: Sum(rhs),rhsMax =  -5.12297509576936E+01  2.04171302527277E+00
(PID.TID 0000.0001)  ploadbar=  1.01100131265117E+05
 cg2d: Sum(rhs),rhsMax =  -5.07107379520386E+01  2.06397810668899E+00
(PID.TID 0000.0001)  ploadbar=  1.01100810581850E+05
 cg2d: Sum(rhs),rhsMax =  -5.02394078848809E+01  2.08467326137865E+00
(PID.TID 0000.0001)  ploadbar=  1.01101489898582E+05
 cg2d: Sum(rhs),rhsMax =  -4.98390654628160E+01  2.10271125178867E+00
(PID.TID 0000.0001)  ploadbar=  1.01102169215314E+05
 cg2d: Sum(rhs),rhsMax =  -4.95184642342354E+01  2.11757336438461E+00
(PID.TID 0000.0001)  ploadbar=  1.01102848532047E+05
 cg2d: Sum(rhs),rhsMax =  -4.93066559115013E+01  2.12798294268864E+00
(PID.TID 0000.0001)  ploadbar=  1.01103152329438E+05
 cg2d: Sum(rhs),rhsMax =  -4.91824081993651E+01  2.13473403102716E+00
(PID.TID 0000.0001)  ploadbar=  1.01103456126830E+05
 cg2d: Sum(rhs),rhsMax =  -4.91306338560451E+01  2.13841834722511E+00
(PID.TID 0000.0001)  ploadbar=  1.01103759924222E+05
 cg2d: Sum(rhs),rhsMax =  -4.92218113241717E+01  2.13594506451770E+00
(PID.TID 0000.0001)  ploadbar=  1.01104063721614E+05
 cg2d: Sum(rhs),rhsMax =  -4.95168531852771E+01  2.12475460845361E+00
(PID.TID 0000.0001)  ploadbar=  1.01104367519006E+05
 cg2d: Sum(rhs),rhsMax =  -4.99805146939647E+01  2.10662311049456E+00
(PID.TID 0000.0001)  ploadbar=  1.01104671316398E+05
 cg2d: Sum(rhs),rhsMax =  -5.04215099544206E+01  2.08976572791821E+00
(PID.TID 0000.0001)  ploadbar=  1.01104487671199E+05
 cg2d: Sum(rhs),rhsMax =  -5.08498518875410E+01  2.07372095671391E+00
(PID.TID 0000.0001)  ploadbar=  1.01104304026000E+05
 cg2d: Sum(rhs),rhsMax =  -5.12553654434728E+01  2.05886900764923E+00
(PID.TID 0000.0001)  ploadbar=  1.01104120380801E+05
 cg2d: Sum(rhs),rhsMax =  -5.16275936542376E+01  2.04557490589489E+00
(PID.TID 0000.0001)  ploadbar=  1.01103936735602E+05
 cg2d: Sum(rhs),rhsMax =  -5.19709554409111E+01  2.03360756194951E+00
(PID.TID 0000.0001)  ploadbar=  1.01103753090403E+05
 cg2d: Sum(rhs),rhsMax =  -5.22833143040751E+01  2.02300279480228E+00
(PID.TID 0000.0001)  ploadbar=  1.01103569445204E+05
 cg2d: Sum(rhs),rhsMax =  -5.25535276466730E+01  2.01418651100143E+00
(PID.TID 0000.0001)  ploadbar=  1.01103192413891E+05
 cg2d: Sum(rhs),rhsMax =  -5.28016076896536E+01  2.00634908009459E+00
(PID.TID 0000.0001)  ploadbar=  1.01102815382579E+05
 cg2d: Sum(rhs),rhsMax =  -5.30255668166825E+01  1.99954193025308E+00
(PID.TID 0000.0001)  ploadbar=  1.01102438351266E+05
 cg2d: Sum(rhs),rhsMax =  -5.32289168390765E+01  1.99360851133985E+00
(PID.TID 0000.0001)  ploadbar=  1.01102061319953E+05
 cg2d: Sum(rhs),rhsMax =  -5.34151929179917E+01  1.98840012155620E+00
(PID.TID 0000.0001)  ploadbar=  1.01101684288641E+05
 cg2d: Sum(rhs),rhsMax =  -5.35873573783857E+01  1.98379379456593E+00
(PID.TID 0000.0001)  ploadbar=  1.01101307257328E+05
 cg2d: Sum(rhs),rhsMax =  -5.37248857393350E+01  1.98039348435306E+00
(PID.TID 0000.0001)  ploadbar=  1.01100994505835E+05
 cg2d: Sum(rhs),rhsMax =  -5.38606095305432E+01  1.97697636899479E+00
(PID.TID 0000.0001)  ploadbar=  1.01100681754343E+05
 cg2d: Sum(rhs),rhsMax =  -5.39916585776059E+01  1.97364783473930E+00
(PID.TID 0000.0001)  ploadbar=  1.01100369002850E+05
 cg2d: Sum(rhs),rhsMax =  -5.41189217009596E+01  1.97037410825170E+00
(PID.TID 0000.0001)  ploadbar=  1.01100056251357E+05
 cg2d: Sum(rhs),rhsMax =  -5.42412264161143E+01  1.96719660437486E+00
(PID.TID 0000.0001)  ploadbar=  1.01099743499864E+05
 cg2d: Sum(rhs),rhsMax =  -5.43564448756689E+01  1.96418775520389E+00
(PID.TID 0000.0001)  ploadbar=  1.01099430748372E+05
 cg2d: Sum(rhs),rhsMax =  -5.44873527116228E+01  1.96065994594598E+00
(PID.TID 0000.0001)  ploadbar=  1.01099674921917E+05
 cg2d: Sum(rhs),rhsMax =  -5.46216855648610E+01  1.95705829750289E+00
(PID.TID 0000.0001)  ploadbar=  1.01099919095463E+05
 cg2d: Sum(rhs),rhsMax =  -5.47597337249429E+01  1.95337417611422E+00
(PID.TID 0000.0001)  ploadbar=  1.01100163269008E+05
 cg2d: Sum(rhs),rhsMax =  -5.48999238298763E+01  1.94966692313523E+00
(PID.TID 0000.0001)  ploadbar=  1.01100407442554E+05
 cg2d: Sum(rhs),rhsMax =  -5.50429408674235E+01  1.94591062379023E+00
(PID.TID 0000.0001)  ploadbar=  1.01100651616100E+05
 cg2d: Sum(rhs),rhsMax =  -5.51892623067550E+01  1.94209095915175E+00
(PID.TID 0000.0001)  ploadbar=  1.01100895789645E+05
 cg2d: Sum(rhs),rhsMax =  -5.53082014078580E+01  1.93923307263789E+00
(PID.TID 0000.0001)  ploadbar=  1.01100607174328E+05
 cg2d: Sum(rhs),rhsMax =  -5.54319248040193E+01  1.93620557140751E+00
(PID.TID 0000.0001)  ploadbar=  1.01100318559010E+05
 cg2d: Sum(rhs),rhsMax =  -5.55604944709559E+01  1.93301089124387E+00
(PID.TID 0000.0001)  ploadbar=  1.01100029943692E+05
 cg2d: Sum(rhs),rhsMax =  -5.56915770905341E+01  1.92973226679873E+00
(PID.TID 0000.0001)  ploadbar=  1.01099741328375E+05
 cg2d: Sum(rhs),rhsMax =  -5.58242010397452E+01  1.92640320432638E+00
(PID.TID 0000.0001)  ploadbar=  1.01099452713057E+05
 cg2d: Sum(rhs),rhsMax =  -5.59559831603617E+01  1.92310379407537E+00
(PID.TID 0000.0001)  ploadbar=  1.01099164097739E+05
 cg2d: Sum(rhs),rhsMax =  -5.60791128836787E+01  1.92014591062112E+00
(PID.TID 0000.0001)  ploadbar=  1.01098499160666E+05
 cg2d: Sum(rhs),rhsMax =  -5.61998215417779E+01  1.91731860119726E+00
(PID.TID 0000.0001)  ploadbar=  1.01097834223592E+05
 cg2d: Sum(rhs),rhsMax =  -5.63247065374936E+01  1.91439661376351E+00
(PID.TID 0000.0001)  ploadbar=  1.01097169286519E+05
 cg2d: Sum(rhs),rhsMax =  -5.64479874026588E+01  1.91157452621878E+00
(PID.TID 0000.0001)  ploadbar=  1.01096504349445E+05
 cg2d: Sum(rhs),rhsMax =  -5.65674218451890E+01  1.90892517662748E+00
(PID.TID 0000.0001)  ploadbar=  1.01095839412372E+05
 cg2d: Sum(rhs),rhsMax =  -5.66813032540887E+01  1.90650227474023E+00
(PID.TID 0000.0001)  ploadbar=  1.01095174475298E+05
 cg2d: Sum(rhs),rhsMax =  -5.67966793579620E+01  1.90397872627342E+00
(PID.TID 0000.0001)  ploadbar=  1.01094349269527E+05
 cg2d: Sum(rhs),rhsMax =  -5.68950990384111E+01  1.90197096507202E+00
(PID.TID 0000.0001)  ploadbar=  1.01093524063756E+05
 cg2d: Sum(rhs),rhsMax =  -5.69813697790800E+01  1.90031279874705E+00
(PID.TID 0000.0001)  ploadbar=  1.01092698857985E+05
 cg2d: Sum(rhs),rhsMax =  -5.70523738503862E+01  1.89910454214504E+00
(PID.TID 0000.0001)  ploadbar=  1.01091873652214E+05
 cg2d: Sum(rhs),rhsMax =  -5.71056137911022E+01  1.89842491240095E+00
(PID.TID 0000.0001)  ploadbar=  1.01091048446443E+05
 cg2d: Sum(rhs),rhsMax =  -5.71423285199664E+01  1.89823117192850E+00
(PID.TID 0000.0001)  ploadbar=  1.01090223240672E+05
 cg2d: Sum(rhs),rhsMax =  -5.71860061562710E+01  1.89783813152192E+00
(PID.TID 0000.0001)  ploadbar=  1.01089888669173E+05
 cg2d: Sum(rhs),rhsMax =  -5.72241083462643E+01  1.89766044382260E+00
(PID.TID 0000.0001)  ploadbar=  1.01089554097673E+05
 cg2d: Sum(rhs),rhsMax =  -5.72643574008051E+01  1.89744153359738E+00
(PID.TID 0000.0001)  ploadbar=  1.01089219526174E+05
 cg2d: Sum(rhs),rhsMax =  -5.73071694351716E+01  1.89716528946714E+00
(PID.TID 0000.0001)  ploadbar=  1.01088884954674E+05
 cg2d: Sum(rhs),rhsMax =  -5.73498965593285E+01  1.89691921282502E+00
(PID.TID 0000.0001)  ploadbar=  1.01088550383174E+05
 cg2d: Sum(rhs),rhsMax =  -5.73923783246754E+01  1.89670958879675E+00
(PID.TID 0000.0001)  ploadbar=  1.01088215811675E+05
 cg2d: Sum(rhs),rhsMax =  -5.74169382860357E+01  1.89710489202064E+00
(PID.TID 0000.0001)  ploadbar=  1.01087936964859E+05
 cg2d: Sum(rhs),rhsMax =  -5.74464449327726E+01  1.89735021192490E+00
(PID.TID 0000.0001)  ploadbar=  1.01087658118044E+05
 cg2d: Sum(rhs),rhsMax =  -5.74794413990338E+01  1.89749385982146E+00
(PID.TID 0000.0001)  ploadbar=  1.01087379271228E+05
 cg2d: Sum(rhs),rhsMax =  -5.75217686505037E+01  1.89734237549687E+00
(PID.TID 0000.0001)  ploadbar=  1.01087100424412E+05
 cg2d: Sum(rhs),rhsMax =  -5.75735646176953E+01  1.89688921850835E+00
(PID.TID 0000.0001)  ploadbar=  1.01086821577597E+05
 cg2d: Sum(rhs),rhsMax =  -5.76333260254628E+01  1.89618312013444E+00
(PID.TID 0000.0001)  ploadbar=  1.01086542730781E+05
 cg2d: Sum(rhs),rhsMax =  -5.77162455585281E+01  1.89471865106738E+00
(PID.TID 0000.0001)  ploadbar=  1.01086381754447E+05
 cg2d: Sum(rhs),rhsMax =  -5.76841463049940E+01  1.89703541152466E+00
(PID.TID 0000.0001)  ploadbar=  1.01086220778112E+05
 cg2d: Sum(rhs),rhsMax =  -5.75033110808061E+01  1.90427153274149E+00
(PID.TID 0000.0001)  ploadbar=  1.01086059801778E+05
 cg2d: Sum(rhs),rhsMax =  -5.73496679674895E+01  1.91065275224658E+00
(PID.TID 0000.0001)  ploadbar=  1.01085898825444E+05
 cg2d: Sum(rhs),rhsMax =  -5.72238437020898E+01  1.91614059575195E+00
(PID.TID 0000.0001)  ploadbar=  1.01085737849109E+05
 cg2d: Sum(rhs),rhsMax =  -5.71200465184519E+01  1.92091530217059E+00
(PID.TID 0000.0001)  ploadbar=  1.01085576872775E+05
 cg2d: Sum(rhs),rhsMax =  -5.71089657238486E+01  1.92251489752275E+00
(PID.TID 0000.0001)  ploadbar=  1.01085449877288E+05
 cg2d: Sum(rhs),rhsMax =  -5.71434468199589E+01  1.92251390242569E+00
(PID.TID 0000.0001)  ploadbar=  1.01085322881802E+05
 cg2d: Sum(rhs),rhsMax =  -5.70866359463858E+01  1.92551881745127E+00
(PID.TID 0000.0001)  ploadbar=  1.01085195886315E+05
 cg2d: Sum(rhs),rhsMax =  -5.70056964364960E+01  1.92927565059210E+00
(PID.TID 0000.0001)  ploadbar=  1.01085068890828E+05
 cg2d: Sum(rhs),rhsMax =  -5.69803940763467E+01  1.93108562131263E+00
(PID.TID 0000.0001)  ploadbar=  1.01084941895342E+05
 cg2d: Sum(rhs),rhsMax =  -5.70169547654192E+01  1.93072921998617E+00
(PID.TID 0000.0001)  ploadbar=  1.01084814899855E+05
 cg2d: Sum(rhs),rhsMax =  -5.70982530373621E+01  1.92890579391496E+00
(PID.TID 0000.0001)  ploadbar=  1.01085351689917E+05
 cg2d: Sum(rhs),rhsMax =  -5.72037569286742E+01  1.92631414595704E+00
(PID.TID 0000.0001)  ploadbar=  1.01085888479979E+05
 cg2d: Sum(rhs),rhsMax =  -5.73202626670401E+01  1.92340454931224E+00
(PID.TID 0000.0001)  ploadbar=  1.01086425270041E+05
 cg2d: Sum(rhs),rhsMax =  -5.74597821791493E+01  1.91977712459778E+00
(PID.TID 0000.0001)  ploadbar=  1.01086962060103E+05
 cg2d: Sum(rhs),rhsMax =  -5.76231829406773E+01  1.91541452357861E+00
(PID.TID 0000.0001)  ploadbar=  1.01087498850165E+05
 cg2d: Sum(rhs),rhsMax =  -5.77942783411005E+01  1.91086319588404E+00
(PID.TID 0000.0001)  ploadbar=  1.01088035640227E+05
 cg2d: Sum(rhs),rhsMax =  -5.80186703912312E+01  1.90456022647400E+00
(PID.TID 0000.0001)  ploadbar=  1.01088175427335E+05
 cg2d: Sum(rhs),rhsMax =  -5.82602368111669E+01  1.89772061674458E+00
(PID.TID 0000.0001)  ploadbar=  1.01088315214443E+05
 cg2d: Sum(rhs),rhsMax =  -5.85511844366448E+01  1.88931604562745E+00
(PID.TID 0000.0001)  ploadbar=  1.01088455001552E+05
 cg2d: Sum(rhs),rhsMax =  -5.88891948878169E+01  1.87946446729414E+00
(PID.TID 0000.0001)  ploadbar=  1.01088594788660E+05
 cg2d: Sum(rhs),rhsMax =  -5.92601716128262E+01  1.86865642991732E+00
(PID.TID 0000.0001)  ploadbar=  1.01088734575768E+05
 cg2d: Sum(rhs),rhsMax =  -5.94747966320557E+01  1.86283825164673E+00
(PID.TID 0000.0001)  ploadbar=  1.01088874362877E+05
 cg2d: Sum(rhs),rhsMax =  -5.95264807988029E+01  1.86214711337057E+00
(PID.TID 0000.0001)  ploadbar=  1.01088904338860E+05
 cg2d: Sum(rhs),rhsMax =  -5.95747654399111E+01  1.86156746511609E+00
(PID.TID 0000.0001)  ploadbar=  1.01088934314843E+05
 cg2d: Sum(rhs),rhsMax =  -5.96204547484969E+01  1.86107321712398E+00
(PID.TID 0000.0001)  ploadbar=  1.01088964290827E+05
 cg2d: Sum(rhs),rhsMax =  -5.96635784030363E+01  1.86066225856064E+00
(PID.TID 0000.0001)  ploadbar=  1.01088994266810E+05
 cg2d: Sum(rhs),rhsMax =  -5.97022281397769E+01  1.86039071524125E+00
(PID.TID 0000.0001)  ploadbar=  1.01089024242793E+05
 cg2d: Sum(rhs),rhsMax =  -5.97365047108502E+01  1.86025325625026E+00
(PID.TID 0000.0001)  ploadbar=  1.01089054218776E+05
 cg2d: Sum(rhs),rhsMax =  -5.97792614424021E+01  1.85980900202447E+00
(PID.TID 0000.0001)  ploadbar=  1.01088589613326E+05
 cg2d: Sum(rhs),rhsMax =  -5.98145753118986E+01  1.85955270004273E+00
(PID.TID 0000.0001)  ploadbar=  1.01088125007876E+05
 cg2d: Sum(rhs),rhsMax =  -5.98432610671370E+01  1.85945647091738E+00
(PID.TID 0000.0001)  ploadbar=  1.01087660402425E+05
 cg2d: Sum(rhs),rhsMax =  -5.98683201332660E+01  1.85942711108643E+00
(PID.TID 0000.0001)  ploadbar=  1.01087195796975E+05
 cg2d: Sum(rhs),rhsMax =  -5.98891933201966E+01  1.85948110155701E+00
(PID.TID 0000.0001)  ploadbar=  1.01086731191524E+05
 cg2d: Sum(rhs),rhsMax =  -5.99063815785795E+01  1.85960158966610E+00
(PID.TID 0000.0001)  ploadbar=  1.01086266586074E+05
 cg2d: Sum(rhs),rhsMax =  -5.98946913708288E+01  1.86067249431543E+00
(PID.TID 0000.0001)  ploadbar=  1.01085945704678E+05
 cg2d: Sum(rhs),rhsMax =  -5.98806578118174E+01  1.86186907870294E+00
(PID.TID 0000.0001)  ploadbar=  1.01085624823282E+05
 cg2d: Sum(rhs),rhsMax =  -5.98601674876042E+01  1.86331865299375E+00
(PID.TID 0000.0001)  ploadbar=  1.01085303941887E+05
 cg2d: Sum(rhs),rhsMax =  -5.98326825188376E+01  1.86503337114644E+00
(PID.TID 0000.0001)  ploadbar=  1.01084983060491E+05
 cg2d: Sum(rhs),rhsMax =  -5.98004893615997E+01  1.86694116170421E+00
(PID.TID 0000.0001)  ploadbar=  1.01084662179095E+05
 cg2d: Sum(rhs),rhsMax =  -5.97633337270200E+01  1.86904920059976E+00
(PID.TID 0000.0001)  ploadbar=  1.01084341297700E+05
 cg2d: Sum(rhs),rhsMax =  -5.97424466491388E+01  1.87067249928411E+00
(PID.TID 0000.0001)  ploadbar=  1.01084053085826E+05
 cg2d: Sum(rhs),rhsMax =  -5.97182533525818E+01  1.87242392427911E+00
(PID.TID 0000.0001)  ploadbar=  1.01083764873953E+05
 cg2d: Sum(rhs),rhsMax =  -5.96903405537333E+01  1.87431863408963E+00
(PID.TID 0000.0001)  ploadbar=  1.01083476662079E+05
 cg2d: Sum(rhs),rhsMax =  -5.96573415586460E+01  1.87640326975418E+00
(PID.TID 0000.0001)  ploadbar=  1.01083188450206E+05
 cg2d: Sum(rhs),rhsMax =  -5.96204946811370E+01  1.87863773865144E+00
(PID.TID 0000.0001)  ploadbar=  1.01082900238332E+05
 cg2d: Sum(rhs),rhsMax =  -5.95816803799867E+01  1.88096164935240E+00
(PID.TID 0000.0001)  ploadbar=  1.01082612026459E+05
 cg2d: Sum(rhs),rhsMax =  -5.95284925423167E+01  1.88376428139881E+00
(PID.TID 0000.0001)  ploadbar=  1.01083405504850E+05
 cg2d: Sum(rhs),rhsMax =  -5.94732492746982E+01  1.88665938518351E+00
(PID.TID 0000.0001)  ploadbar=  1.01084198983242E+05
 cg2d: Sum(rhs),rhsMax =  -5.94239288254355E+01  1.88939642724230E+00
(PID.TID 0000.0001)  ploadbar=  1.01084992461634E+05
 cg2d: Sum(rhs),rhsMax =  -5.93755975168996E+01  1.89213063064904E+00
(PID.TID 0000.0001)  ploadbar=  1.01085785940026E+05
 cg2d: Sum(rhs),rhsMax =  -5.93272101438927E+01  1.89489544298773E+00
(PID.TID 0000.0001)  ploadbar=  1.01086579418418E+05
 cg2d: Sum(rhs),rhsMax =  -5.92796059526285E+01  1.89766347788655E+00
(PID.TID 0000.0001)  ploadbar=  1.01087372896810E+05
 cg2d: Sum(rhs),rhsMax =  -5.92443251326098E+01  1.89996726703991E+00
(PID.TID 0000.0001)  ploadbar=  1.01086918346469E+05
 cg2d: Sum(rhs),rhsMax =  -5.92099490152988E+01  1.90217290977563E+00
(PID.TID 0000.0001)  ploadbar=  1.01086463796128E+05
 cg2d: Sum(rhs),rhsMax =  -5.91739937066510E+01  1.90436125252639E+00
(PID.TID 0000.0001)  ploadbar=  1.01086009245787E+05
 cg2d: Sum(rhs),rhsMax =  -5.91405117465738E+01  1.90639868873629E+00
(PID.TID 0000.0001)  ploadbar=  1.01085554695446E+05
 cg2d: Sum(rhs),rhsMax =  -5.91117923155036E+01  1.90821365965781E+00
(PID.TID 0000.0001)  ploadbar=  1.01085100145105E+05
 cg2d: Sum(rhs),rhsMax =  -5.90892934151565E+01  1.90975847088770E+00
(PID.TID 0000.0001)  ploadbar=  1.01084645594764E+05
 cg2d: Sum(rhs),rhsMax =  -5.90646026106708E+01  1.91140277285354E+00
(PID.TID 0000.0001)  ploadbar=  1.01085997886423E+05
 cg2d: Sum(rhs),rhsMax =  -5.90505593028202E+01  1.91273105956402E+00
(PID.TID 0000.0001)  ploadbar=  1.01087350178082E+05
 cg2d: Sum(rhs),rhsMax =  -5.90485801141997E+01  1.91369390985897E+00
(PID.TID 0000.0001)  ploadbar=  1.01088702469740E+05
 cg2d: Sum(rhs),rhsMax =  -5.90616040797373E+01  1.91419662377972E+00
(PID.TID 0000.0001)  ploadbar=  1.01090054761399E+05
 cg2d: Sum(rhs),rhsMax =  -5.90921453389256E+01  1.91416032141284E+00
(PID.TID 0000.0001)  ploadbar=  1.01091407053058E+05
 cg2d: Sum(rhs),rhsMax =  -5.91419114900733E+01  1.91353053119437E+00
(PID.TID 0000.0001)  ploadbar=  1.01092759344716E+05
 cg2d: Sum(rhs),rhsMax =  -5.92145424680485E+01  1.91218865516659E+00
(PID.TID 0000.0001)  ploadbar=  1.01093362655728E+05
 cg2d: Sum(rhs),rhsMax =  -5.93058911487678E+01  1.91027562359688E+00
(PID.TID 0000.0001)  ploadbar=  1.01093965966740E+05
 cg2d: Sum(rhs),rhsMax =  -5.94196901704915E+01  1.90767702873534E+00
(PID.TID 0000.0001)  ploadbar=  1.01094569277752E+05
 cg2d: Sum(rhs),rhsMax =  -5.95536676942644E+01  1.90447052039425E+00
(PID.TID 0000.0001)  ploadbar=  1.01095172588764E+05
 cg2d: Sum(rhs),rhsMax =  -5.97056494805268E+01  1.90073223161982E+00
(PID.TID 0000.0001)  ploadbar=  1.01095775899776E+05
 cg2d: Sum(rhs),rhsMax =  -5.98743398619970E+01  1.89650861133106E+00
(PID.TID 0000.0001)  ploadbar=  1.01096379210788E+05
 cg2d: Sum(rhs),rhsMax =  -6.00782404714015E+01  1.89118749470264E+00
(PID.TID 0000.0001)  ploadbar=  1.01096243348169E+05
 cg2d: Sum(rhs),rhsMax =  -6.02901242899044E+01  1.88564577099396E+00
(PID.TID 0000.0001)  ploadbar=  1.01096107485549E+05
 cg2d: Sum(rhs),rhsMax =  -6.05131276918440E+01  1.87978863513441E+00
(PID.TID 0000.0001)  ploadbar=  1.01095971622930E+05
 cg2d: Sum(rhs),rhsMax =  -6.07457920819553E+01  1.87366713778466E+00
(PID.TID 0000.0001)  ploadbar=  1.01095835760311E+05
 cg2d: Sum(rhs),rhsMax =  -6.09835105392522E+01  1.86742675468521E+00
(PID.TID 0000.0001)  ploadbar=  1.01095699897691E+05
 cg2d: Sum(rhs),rhsMax =  -6.12250046187668E+01  1.86110772920960E+00
(PID.TID 0000.0001)  ploadbar=  1.01095564035072E+05
 cg2d: Sum(rhs),rhsMax =  -6.14457819861335E+01  1.85541706851246E+00
(PID.TID 0000.0001)  ploadbar=  1.01096010581509E+05
 cg2d: Sum(rhs),rhsMax =  -6.16697608032810E+01  1.84962535904523E+00
(PID.TID 0000.0001)  ploadbar=  1.01096457127947E+05
 cg2d: Sum(rhs),rhsMax =  -6.18969623574878E+01  1.84373280557171E+00
(PID.TID 0000.0001)  ploadbar=  1.01096903674385E+05
 cg2d: Sum(rhs),rhsMax =  -6.21283620727152E+01  1.83771276674719E+00
(PID.TID 0000.0001)  ploadbar=  1.01097350220823E+05
 cg2d: Sum(rhs),rhsMax =  -6.23643054642682E+01  1.83155786698679E+00
(PID.TID 0000.0001)  ploadbar=  1.01097796767261E+05
 cg2d: Sum(rhs),rhsMax =  -6.26050245726539E+01  1.82526448807559E+00
(PID.TID 0000.0001)  ploadbar=  1.01098243313698E+05
 cg2d: Sum(rhs),rhsMax =  -6.28549320088863E+01  1.81878534592084E+00
(PID.TID 0000.0001)  ploadbar=  1.01098912385173E+05
 cg2d: Sum(rhs),rhsMax =  -6.31010966163532E+01  1.81249636575368E+00
(PID.TID 0000.0001)  ploadbar=  1.01099581456648E+05
 cg2d: Sum(rhs),rhsMax =  -6.33384550472279E+01  1.80653938018653E+00
(PID.TID 0000.0001)  ploadbar=  1.01100250528122E+05
 cg2d: Sum(rhs),rhsMax =  -6.35679908713920E+01  1.80088001274818E+00
(PID.TID 0000.0001)  ploadbar=  1.01100919599597E+05
 cg2d: Sum(rhs),rhsMax =  -6.37882268403711E+01  1.79555427631425E+00
(PID.TID 0000.0001)  ploadbar=  1.01101588671072E+05
 cg2d: Sum(rhs),rhsMax =  -6.39985548254224E+01  1.79057066405351E+00
(PID.TID 0000.0001)  ploadbar=  1.01102257742546E+05
 cg2d: Sum(rhs),rhsMax =  -6.42174926645511E+01  1.78538755459100E+00
(PID.TID 0000.0001)  ploadbar=  1.01102599485315E+05
 cg2d: Sum(rhs),rhsMax =  -6.44263759472278E+01  1.78052509119566E+00
(PID.TID 0000.0001)  ploadbar=  1.01102941228084E+05
 cg2d: Sum(rhs),rhsMax =  -6.46250309111447E+01  1.77598403207456E+00
(PID.TID 0000.0001)  ploadbar=  1.01103282970853E+05
 cg2d: Sum(rhs),rhsMax =  -6.48160359773191E+01  1.77168731234447E+00
(PID.TID 0000.0001)  ploadbar=  1.01103624713622E+05
 cg2d: Sum(rhs),rhsMax =  -6.50008799784261E+01  1.76758738025477E+00
(PID.TID 0000.0001)  ploadbar=  1.01103966456391E+05
 cg2d: Sum(rhs),rhsMax =  -6.51800260036673E+01  1.76366680434096E+00
(PID.TID 0000.0001)  ploadbar=  1.01104308199159E+05
 cg2d: Sum(rhs),rhsMax =  -6.53515058254964E+01  1.75997591711641E+00
(PID.TID 0000.0001)  ploadbar=  1.01105139929419E+05
 cg2d: Sum(rhs),rhsMax =  -6.55186050678664E+01  1.75642347197596E+00
(PID.TID 0000.0001)  ploadbar=  1.01105971659679E+05
 cg2d: Sum(rhs),rhsMax =  -6.56810776954783E+01  1.75301130542924E+00
(PID.TID 0000.0001)  ploadbar=  1.01106803389939E+05
 cg2d: Sum(rhs),rhsMax =  -6.58379962330395E+01  1.74976154341256E+00
(PID.TID 0000.0001)  ploadbar=  1.01107635120199E+05
 cg2d: Sum(rhs),rhsMax =  -6.59914755422821E+01  1.74661404501361E+00
(PID.TID 0000.0001)  ploadbar=  1.01108466850459E+05
 cg2d: Sum(rhs),rhsMax =  -6.61428948779226E+01  1.74352814272297E+00
(PID.TID 0000.0001)  ploadbar=  1.01109298580719E+05
 cg2d: Sum(rhs),rhsMax =  -6.62652165159532E+01  1.74117980547816E+00
(PID.TID 0000.0001)  ploadbar=  1.01109517227604E+05
 cg2d: Sum(rhs),rhsMax =  -6.63886395380894E+01  1.73877029616481E+00
(PID.TID 0000.0001)  ploadbar=  1.01109735874489E+05
 cg2d: Sum(rhs),rhsMax =  -6.65124284409698E+01  1.73631885938584E+00
(PID.TID 0000.0001)  ploadbar=  1.01109954521374E+05
 cg2d: Sum(rhs),rhsMax =  -6.66340615653944E+01  1.73389097598610E+00
(PID.TID 0000.0001)  ploadbar=  1.01110173168259E+05
 cg2d: Sum(rhs),rhsMax =  -6.67537605248537E+01  1.73147969843281E+00
(PID.TID 0000.0001)  ploadbar=  1.01110391815145E+05
 cg2d: Sum(rhs),rhsMax =  -6.68718432492324E+01  1.72907430472998E+00
(PID.TID 0000.0001)  ploadbar=  1.01110610462030E+05
 cg2d: Sum(rhs),rhsMax =  -6.69595298993883E+01  1.72746675983182E+00
(PID.TID 0000.0001)  ploadbar=  1.01111574045368E+05
 cg2d: Sum(rhs),rhsMax =  -6.70308486052453E+01  1.72628895338429E+00
(PID.TID 0000.0001)  ploadbar=  1.01112537628706E+05
 cg2d: Sum(rhs),rhsMax =  -6.70809891396784E+01  1.72566171371187E+00
(PID.TID 0000.0001)  ploadbar=  1.01113501212044E+05
 cg2d: Sum(rhs),rhsMax =  -6.71028889382194E+01  1.72576408545367E+00
(PID.TID 0000.0001)  ploadbar=  1.01114464795383E+05
 cg2d: Sum(rhs),rhsMax =  -6.71013451220975E+01  1.72647251766508E+00
(PID.TID 0000.0001)  ploadbar=  1.01115428378721E+05
 cg2d: Sum(rhs),rhsMax =  -6.70913278429382E+01  1.72740193869929E+00
(PID.TID 0000.0001)  ploadbar=  1.01116391962059E+05
 cg2d: Sum(rhs),rhsMax =  -6.71156307853559E+01  1.72747640200325E+00
(PID.TID 0000.0001)  ploadbar=  1.01116051085573E+05
 cg2d: Sum(rhs),rhsMax =  -6.72036516694064E+01  1.72594136933286E+00
(PID.TID 0000.0001)  ploadbar=  1.01115710209086E+05
 cg2d: Sum(rhs),rhsMax =  -6.74032363164705E+01  1.72158535669525E+00
(PID.TID 0000.0001)  ploadbar=  1.01115369332600E+05
 cg2d: Sum(rhs),rhsMax =  -6.77473843258419E+01  1.71361755754381E+00
(PID.TID 0000.0001)  ploadbar=  1.01115028456113E+05
 cg2d: Sum(rhs),rhsMax =  -6.82323278663999E+01  1.70223409135669E+00
(PID.TID 0000.0001)  ploadbar=  1.01114687579626E+05
 cg2d: Sum(rhs),rhsMax =  -6.88502198377863E+01  1.68776776387750E+00
(PID.TID 0000.0001)  ploadbar=  1.01114346703140E+05
 cg2d: Sum(rhs),rhsMax =  -6.95899620593588E+01  1.67061958474710E+00
(PID.TID 0000.0001)  ploadbar=  1.01113715662121E+05
 cg2d: Sum(rhs),rhsMax =  -7.04499137076971E+01  1.65100221538785E+00
(PID.TID 0000.0001)  ploadbar=  1.01113084621101E+05
 cg2d: Sum(rhs),rhsMax =  -7.14022122907445E+01  1.62973937998016E+00
(PID.TID 0000.0001)  ploadbar=  1.01112453580082E+05
 cg2d: Sum(rhs),rhsMax =  -7.23792281460924E+01  1.60847618107336E+00
(PID.TID 0000.0001)  ploadbar=  1.01111822539063E+05
 cg2d: Sum(rhs),rhsMax =  -7.33103490545598E+01  1.58876109439330E+00
(PID.TID 0000.0001)  ploadbar=  1.01111191498044E+05
 cg2d: Sum(rhs),rhsMax =  -7.41506206364563E+01  1.57144908385793E+00
(PID.TID 0000.0001)  ploadbar=  1.01110560457025E+05
 cg2d: Sum(rhs),rhsMax =  -7.48905720996740E+01  1.55658268241115E+00
(PID.TID 0000.0001)  ploadbar=  1.01110325594713E+05
 cg2d: Sum(rhs),rhsMax =  -7.54986808766948E+01  1.54467425183190E+00
(PID.TID 0000.0001)  ploadbar=  1.01110090732401E+05
 cg2d: Sum(rhs),rhsMax =  -7.59884669197771E+01  1.53531825429990E+00
(PID.TID 0000.0001)  ploadbar=  1.01109855870089E+05
 cg2d: Sum(rhs),rhsMax =  -7.63914253809990E+01  1.52779102902440E+00
(PID.TID 0000.0001)  ploadbar=  1.01109621007777E+05
 cg2d: Sum(rhs),rhsMax =  -7.67298251242856E+01  1.52159576845429E+00
(PID.TID 0000.0001)  ploadbar=  1.01109386145466E+05
 cg2d: Sum(rhs),rhsMax =  -7.70257058712136E+01  1.51626337067718E+00
(PID.TID 0000.0001)  ploadbar=  1.01109151283154E+05
 cg2d: Sum(rhs),rhsMax =  -7.72730550577338E+01  1.51194006705891E+00
(PID.TID 0000.0001)  ploadbar=  1.01108352701572E+05
 cg2d: Sum(rhs),rhsMax =  -7.75071048784819E+01  1.50792180448956E+00
(PID.TID 0000.0001)  ploadbar=  1.01107554119991E+05
 cg2d: Sum(rhs),rhsMax =  -7.77050716824995E+01  1.50464387746657E+00
(PID.TID 0000.0001)  ploadbar=  1.01106755538409E+05
 cg2d: Sum(rhs),rhsMax =  -7.78745284642516E+01  1.50195014258098E+00
(PID.TID 0000.0001)  ploadbar=  1.01105956956828E+05
 cg2d: Sum(rhs),rhsMax =  -7.80413496615974E+01  1.49933681241706E+00
(PID.TID 0000.0001)  ploadbar=  1.01105158375246E+05
 cg2d: Sum(rhs),rhsMax =  -7.82091614190902E+01  1.49673145863007E+00
(PID.TID 0000.0001)  ploadbar=  1.01104359793664E+05
 cg2d: Sum(rhs),rhsMax =  -7.84706093298780E+01  1.49236881172642E+00
(PID.TID 0000.0001)  ploadbar=  1.01104449950411E+05
 cg2d: Sum(rhs),rhsMax =  -7.87562272790514E+01  1.48759366653860E+00
(PID.TID 0000.0001)  ploadbar=  1.01104540107157E+05
 cg2d: Sum(rhs),rhsMax =  -7.90552615978618E+01  1.48261874061644E+00
(PID.TID 0000.0001)  ploadbar=  1.01104630263903E+05
 cg2d: Sum(rhs),rhsMax =  -7.93781525893711E+01  1.47725540997777E+00
(PID.TID 0000.0001)  ploadbar=  1.01104720420649E+05
 cg2d: Sum(rhs),rhsMax =  -7.97318239238868E+01  1.47138459599442E+00
(PID.TID 0000.0001)  ploadbar=  1.01104810577395E+05
 cg2d: Sum(rhs),rhsMax =  -8.01169431615307E+01  1.46500566239900E+00
(PID.TID 0000.0001)  ploadbar=  1.01104900734141E+05
 cg2d: Sum(rhs),rhsMax =  -8.05450105772356E+01  1.45791735941307E+00
(PID.TID 0000.0001)  ploadbar=  1.01105443440577E+05
 cg2d: Sum(rhs),rhsMax =  -8.09811243616808E+01  1.45076893356100E+00
(PID.TID 0000.0001)  ploadbar=  1.01105986147013E+05
 cg2d: Sum(rhs),rhsMax =  -8.14078036163597E+01  1.44387337705998E+00
(PID.TID 0000.0001)  ploadbar=  1.01106528853449E+05
 cg2d: Sum(rhs),rhsMax =  -8.18191542804903E+01  1.43732599424549E+00
(PID.TID 0000.0001)  ploadbar=  1.01107071559884E+05
 cg2d: Sum(rhs),rhsMax =  -8.22136664322665E+01  1.43114230709600E+00
(PID.TID 0000.0001)  ploadbar=  1.01107614266320E+05
 cg2d: Sum(rhs),rhsMax =  -8.25951309821573E+01  1.42524589673988E+00
(PID.TID 0000.0001)  ploadbar=  1.01108156972756E+05
 cg2d: Sum(rhs),rhsMax =  -8.29898855763276E+01  1.41914262932537E+00
(PID.TID 0000.0001)  ploadbar=  1.01108237493417E+05
 cg2d: Sum(rhs),rhsMax =  -8.33864980757543E+01  1.41303191817784E+00
(PID.TID 0000.0001)  ploadbar=  1.01108318014077E+05
 cg2d: Sum(rhs),rhsMax =  -8.37656503627205E+01  1.40723762151823E+00
(PID.TID 0000.0001)  ploadbar=  1.01108398534738E+05
 cg2d: Sum(rhs),rhsMax =  -8.41326127100553E+01  1.40166356847740E+00
(PID.TID 0000.0001)  ploadbar=  1.01108479055399E+05
 cg2d: Sum(rhs),rhsMax =  -8.44869771951948E+01  1.39631053848064E+00
(PID.TID 0000.0001)  ploadbar=  1.01108559576060E+05
 cg2d: Sum(rhs),rhsMax =  -8.48217066648650E+01  1.39128733077916E+00
(PID.TID 0000.0001)  ploadbar=  1.01108640096721E+05
 cg2d: Sum(rhs),rhsMax =  -8.50455902238613E+01  1.38812130051286E+00
(PID.TID 0000.0001)  ploadbar=  1.01109788139579E+05
 cg2d: Sum(rhs),rhsMax =  -8.52581554146218E+01  1.38516641162394E+00
(PID.TID 0000.0001)  ploadbar=  1.01110936182438E+05
 cg2d: Sum(rhs),rhsMax =  -8.54437575903227E+01  1.38267418300775E+00
(PID.TID 0000.0001)  ploadbar=  1.01112084225297E+05
 cg2d: Sum(rhs),rhsMax =  -8.56236601918969E+01  1.38029757450127E+00
(PID.TID 0000.0001)  ploadbar=  1.01113232268155E+05
 cg2d: Sum(rhs),rhsMax =  -8.58136074040645E+01  1.37778284356114E+00
(PID.TID 0000.0001)  ploadbar=  1.01114380311014E+05
 cg2d: Sum(rhs),rhsMax =  -8.60166400380034E+01  1.37508401134983E+00
(PID.TID 0000.0001)  ploadbar=  1.01115528353873E+05
 cg2d: Sum(rhs),rhsMax =  -8.62060106473900E+01  1.37261204788597E+00
(PID.TID 0000.0001)  ploadbar=  1.01116367720446E+05
 cg2d: Sum(rhs),rhsMax =  -8.63984414563315E+01  1.37010021015548E+00
(PID.TID 0000.0001)  ploadbar=  1.01117207087020E+05
 cg2d: Sum(rhs),rhsMax =  -8.65878410436707E+01  1.36764691616893E+00
(PID.TID 0000.0001)  ploadbar=  1.01118046453594E+05
 cg2d: Sum(rhs),rhsMax =  -8.67752133633749E+01  1.36523580161734E+00
(PID.TID 0000.0001)  ploadbar=  1.01118885820168E+05
 cg2d: Sum(rhs),rhsMax =  -8.69621618682624E+01  1.36284001292842E+00
(PID.TID 0000.0001)  ploadbar=  1.01119725186741E+05
 cg2d: Sum(rhs),rhsMax =  -8.71497792317042E+01  1.36044148730375E+00
(PID.TID 0000.0001)  ploadbar=  1.01120564553315E+05
 cg2d: Sum(rhs),rhsMax =  -8.73178840177024E+01  1.35835066317972E+00
(PID.TID 0000.0001)  ploadbar=  1.01121183688530E+05
 cg2d: Sum(rhs),rhsMax =  -8.74680195862799E+01  1.35654321470428E+00
(PID.TID 0000.0001)  ploadbar=  1.01121802823744E+05
 cg2d: Sum(rhs),rhsMax =  -8.76005596500940E+01  1.35501071825622E+00
(PID.TID 0000.0001)  ploadbar=  1.01122421958959E+05
 cg2d: Sum(rhs),rhsMax =  -8.76972893061972E+01  1.35403293986914E+00
(PID.TID 0000.0001)  ploadbar=  1.01123041094173E+05
 cg2d: Sum(rhs),rhsMax =  -8.77487795881833E+01  1.35375270742925E+00
(PID.TID 0000.0001)  ploadbar=  1.01123660229388E+05
 cg2d: Sum(rhs),rhsMax =  -8.77246483496986E+01  1.35463731740124E+00
(PID.TID 0000.0001)  ploadbar=  1.01124279364602E+05
 cg2d: Sum(rhs),rhsMax =  -8.74188691269102E+01  1.35985986851933E+00
(PID.TID 0000.0001)  ploadbar=  1.01125413926302E+05
 cg2d: Sum(rhs),rhsMax =  -8.71395486610857E+01  1.36467502938831E+00
(PID.TID 0000.0001)  ploadbar=  1.01126548488002E+05
 cg2d: Sum(rhs),rhsMax =  -8.68737289914846E+01  1.36927945045766E+00
(PID.TID 0000.0001)  ploadbar=  1.01127683049702E+05
 cg2d: Sum(rhs),rhsMax =  -8.66063225132198E+01  1.37390956712379E+00
(PID.TID 0000.0001)  ploadbar=  1.01128817611402E+05
 cg2d: Sum(rhs),rhsMax =  -8.63280578573230E+01  1.37871392604933E+00
(PID.TID 0000.0001)  ploadbar=  1.01129952173102E+05
 cg2d: Sum(rhs),rhsMax =  -8.60318928315399E+01  1.38380737489269E+00
(PID.TID 0000.0001)  ploadbar=  1.01131086734802E+05
 cg2d: Sum(rhs),rhsMax =  -8.57374045248679E+01  1.38893782627393E+00
(PID.TID 0000.0001)  ploadbar=  1.01132972447170E+05
 cg2d: Sum(rhs),rhsMax =  -8.54338022583509E+01  1.39428177061565E+00
(PID.TID 0000.0001)  ploadbar=  1.01134858159537E+05
 cg2d: Sum(rhs),rhsMax =  -8.51326337547234E+01  1.39965441212485E+00
(PID.TID 0000.0001)  ploadbar=  1.01136743871904E+05
 cg2d: Sum(rhs),rhsMax =  -8.48393361726437E+01  1.40496683971344E+00
(PID.TID 0000.0001)  ploadbar=  1.01138629584272E+05
 cg2d: Sum(rhs),rhsMax =  -8.45558737843826E+01  1.41018356341471E+00
(PID.TID 0000.0001)  ploadbar=  1.01140515296639E+05
 cg2d: Sum(rhs),rhsMax =  -8.42835199870218E+01  1.41527873121366E+00
(PID.TID 0000.0001)  ploadbar=  1.01142401009006E+05
 cg2d: Sum(rhs),rhsMax =  -8.39874886771558E+01  1.42083219393880E+00
(PID.TID 0000.0001)  ploadbar=  1.01142650543068E+05
 cg2d: Sum(rhs),rhsMax =  -8.36557252160794E+01  1.42705726472183E+00
(PID.TID 0000.0001)  ploadbar=  1.01142900077130E+05
 cg2d: Sum(rhs),rhsMax =  -8.33033925985652E+01  1.43370789986650E+00
(PID.TID 0000.0001)  ploadbar=  1.01143149611192E+05
 cg2d: Sum(rhs),rhsMax =  -8.29402542917189E+01  1.44062649014455E+00
(PID.TID 0000.0001)  ploadbar=  1.01143399145253E+05
 cg2d: Sum(rhs),rhsMax =  -8.25616851165482E+01  1.44790056672720E+00
(PID.TID 0000.0001)  ploadbar=  1.01143648679315E+05
 cg2d: Sum(rhs),rhsMax =  -8.21649413658547E+01  1.45558905784418E+00
(PID.TID 0000.0001)  ploadbar=  1.01143898213377E+05
 cg2d: Sum(rhs),rhsMax =  -8.17742598932417E+01  1.46322690675701E+00
(PID.TID 0000.0001)  ploadbar=  1.01143779337469E+05
 cg2d: Sum(rhs),rhsMax =  -8.13869527527350E+01  1.47086295924872E+00
(PID.TID 0000.0001)  ploadbar=  1.01143660461561E+05
 cg2d: Sum(rhs),rhsMax =  -8.10146133171440E+01  1.47828818235941E+00
(PID.TID 0000.0001)  ploadbar=  1.01143541585653E+05
 cg2d: Sum(rhs),rhsMax =  -8.06711324112019E+01  1.48524247809852E+00
(PID.TID 0000.0001)  ploadbar=  1.01143422709745E+05
 cg2d: Sum(rhs),rhsMax =  -8.03658621607312E+01  1.49154052178782E+00
(PID.TID 0000.0001)  ploadbar=  1.01143303833837E+05
 cg2d: Sum(rhs),rhsMax =  -8.01022413365012E+01  1.49709845657520E+00
(PID.TID 0000.0001)  ploadbar=  1.01143184957929E+05
 cg2d: Sum(rhs),rhsMax =  -7.98664115923538E+01  1.50214499012016E+00
(PID.TID 0000.0001)  ploadbar=  1.01144019998994E+05
 cg2d: Sum(rhs),rhsMax =  -7.96492669359910E+01  1.50684287419294E+00
(PID.TID 0000.0001)  ploadbar=  1.01144855040058E+05
 cg2d: Sum(rhs),rhsMax =  -7.94371022844862E+01  1.51144609969389E+00
(PID.TID 0000.0001)  ploadbar=  1.01145690081123E+05
 cg2d: Sum(rhs),rhsMax =  -7.92168781475171E+01  1.51620402344573E+00
(PID.TID 0000.0001)  ploadbar=  1.01146525122187E+05
 cg2d: Sum(rhs),rhsMax =  -7.89799559081365E+01  1.52128495159329E+00
(PID.TID 0000.0001)  ploadbar=  1.01147360163252E+05
 cg2d: Sum(rhs),rhsMax =  -7.87245332136205E+01  1.52672810487121E+00
(PID.TID 0000.0001)  ploadbar=  1.01148195204316E+05
 cg2d: Sum(rhs),rhsMax =  -7.84529029738944E+01  1.53256013115773E+00
(PID.TID 0000.0001)  ploadbar=  1.01148361054430E+05
 cg2d: Sum(rhs),rhsMax =  -7.81978320642258E+01  1.53814413452712E+00
(PID.TID 0000.0001)  ploadbar=  1.01148526904544E+05
 cg2d: Sum(rhs),rhsMax =  -7.79810841938003E+01  1.54304442198903E+00
(PID.TID 0000.0001)  ploadbar=  1.01148692754658E+05
 cg2d: Sum(rhs),rhsMax =  -7.78210633173452E+01  1.54688332976630E+00
(PID.TID 0000.0001)  ploadbar=  1.01148858604772E+05
 cg2d: Sum(rhs),rhsMax =  -7.77345852191323E+01  1.54931185092128E+00
(PID.TID 0000.0001)  ploadbar=  1.01149024454886E+05
 cg2d: Sum(rhs),rhsMax =  -7.77245786733122E+01  1.55025871918947E+00
(PID.TID 0000.0001)  ploadbar=  1.01149190305000E+05
 cg2d: Sum(rhs),rhsMax =  -7.77708874467302E+01  1.55008890717460E+00
(PID.TID 0000.0001)  ploadbar=  1.01148568704263E+05
 cg2d: Sum(rhs),rhsMax =  -7.78445351090486E+01  1.54938293940084E+00
(PID.TID 0000.0001)  ploadbar=  1.01147947103527E+05
 cg2d: Sum(rhs),rhsMax =  -7.79143364327076E+01  1.54876373409316E+00
(PID.TID 0000.0001)  ploadbar=  1.01147325502790E+05
 cg2d: Sum(rhs),rhsMax =  -7.79657912494597E+01  1.54851740244165E+00
(PID.TID 0000.0001)  ploadbar=  1.01146703902053E+05
 cg2d: Sum(rhs),rhsMax =  -7.79891172787859E+01  1.54883852902016E+00
(PID.TID 0000.0001)  ploadbar=  1.01146082301317E+05
 cg2d: Sum(rhs),rhsMax =  -7.79855381914850E+01  1.54970241915181E+00
(PID.TID 0000.0001)  ploadbar=  1.01145460700580E+05
 cg2d: Sum(rhs),rhsMax =  -7.79345935635595E+01  1.55151992743329E+00
(PID.TID 0000.0001)  ploadbar=  1.01145552353320E+05
 cg2d: Sum(rhs),rhsMax =  -7.78589018938450E+01  1.55384514042920E+00
(PID.TID 0000.0001)  ploadbar=  1.01145644006060E+05
 cg2d: Sum(rhs),rhsMax =  -7.77826856152911E+01  1.55619690227952E+00
(PID.TID 0000.0001)  ploadbar=  1.01145735658800E+05
 cg2d: Sum(rhs),rhsMax =  -7.77668508092129E+01  1.55735378948789E+00
(PID.TID 0000.0001)  ploadbar=  1.01145827311540E+05
 cg2d: Sum(rhs),rhsMax =  -7.78259861732624E+01  1.55702111673276E+00
(PID.TID 0000.0001)  ploadbar=  1.01145918964281E+05
 cg2d: Sum(rhs),rhsMax =  -7.79559380515429E+01  1.55528577362087E+00
(PID.TID 0000.0001)  ploadbar=  1.01146010617021E+05
 cg2d: Sum(rhs),rhsMax =  -7.81078822849836E+01  1.55307093596768E+00
(PID.TID 0000.0001)  ploadbar=  1.01145249168063E+05
 cg2d: Sum(rhs),rhsMax =  -7.82616899485589E+01  1.55078039458804E+00
(PID.TID 0000.0001)  ploadbar=  1.01144487719105E+05
 cg2d: Sum(rhs),rhsMax =  -7.83941484457547E+01  1.54887376457567E+00
(PID.TID 0000.0001)  ploadbar=  1.01143726270147E+05
 cg2d: Sum(rhs),rhsMax =  -7.84894777444821E+01  1.54765857265280E+00
(PID.TID 0000.0001)  ploadbar=  1.01142964821189E+05
 cg2d: Sum(rhs),rhsMax =  -7.85461433676043E+01  1.54715801320878E+00
(PID.TID 0000.0001)  ploadbar=  1.01142203372231E+05
 cg2d: Sum(rhs),rhsMax =  -7.86644893472927E+01  1.54539315721699E+00
(PID.TID 0000.0001)  ploadbar=  1.01141441923273E+05
 cg2d: Sum(rhs),rhsMax =  -7.95441145930827E+01  1.52888673911316E+00
(PID.TID 0000.0001)  ploadbar=  1.01141483220520E+05
 cg2d: Sum(rhs),rhsMax =  -8.05249355888692E+01  1.51086897434261E+00
(PID.TID 0000.0001)  ploadbar=  1.01141524517767E+05
 cg2d: Sum(rhs),rhsMax =  -8.16393114115587E+01  1.49087035333160E+00
(PID.TID 0000.0001)  ploadbar=  1.01141565815014E+05
 cg2d: Sum(rhs),rhsMax =  -8.28737374310725E+01  1.46930644850494E+00
(PID.TID 0000.0001)  ploadbar=  1.01141607112262E+05
 cg2d: Sum(rhs),rhsMax =  -8.41954395528805E+01  1.44690010655223E+00
(PID.TID 0000.0001)  ploadbar=  1.01141648409509E+05
 cg2d: Sum(rhs),rhsMax =  -8.55444896512222E+01  1.42475558642688E+00
(PID.TID 0000.0001)  ploadbar=  1.01141689706756E+05
 cg2d: Sum(rhs),rhsMax =  -8.67734134835021E+01  1.40523615941557E+00
(PID.TID 0000.0001)  ploadbar=  1.01141261242227E+05
 cg2d: Sum(rhs),rhsMax =  -8.78269961635546E+01  1.38902792468891E+00
(PID.TID 0000.0001)  ploadbar=  1.01140832777698E+05
 cg2d: Sum(rhs),rhsMax =  -8.63680372287275E+01  1.41315007818321E+00
(PID.TID 0000.0001)  ploadbar=  1.01140404313169E+05
 cg2d: Sum(rhs),rhsMax =  -8.47150922022895E+01  1.44139350223304E+00
(PID.TID 0000.0001)  ploadbar=  1.01139975848640E+05
 cg2d: Sum(rhs),rhsMax =  -8.32294110763876E+01  1.46780259213982E+00
(PID.TID 0000.0001)  ploadbar=  1.01139547384111E+05
 cg2d: Sum(rhs),rhsMax =  -8.19010017803265E+01  1.49229846226119E+00
(PID.TID 0000.0001)  ploadbar=  1.01139118919582E+05
 cg2d: Sum(rhs),rhsMax =  -8.08283532297648E+01  1.51279925477609E+00
(PID.TID 0000.0001)  ploadbar=  1.01138835232519E+05
 cg2d: Sum(rhs),rhsMax =  -7.98696229047516E+01  1.53166854615606E+00
(PID.TID 0000.0001)  ploadbar=  1.01138551545457E+05
 cg2d: Sum(rhs),rhsMax =  -7.89779127599496E+01  1.54968485825885E+00
(PID.TID 0000.0001)  ploadbar=  1.01138267858394E+05
 cg2d: Sum(rhs),rhsMax =  -7.81439482185689E+01  1.56695633182924E+00
(PID.TID 0000.0001)  ploadbar=  1.01137984171332E+05
 cg2d: Sum(rhs),rhsMax =  -7.73550324607781E+01  1.58367795143138E+00
(PID.TID 0000.0001)  ploadbar=  1.01137700484270E+05
 cg2d: Sum(rhs),rhsMax =  -7.65953036409782E+01  1.60013317129544E+00
(PID.TID 0000.0001)  ploadbar=  1.01137416797207E+05
 cg2d: Sum(rhs),rhsMax =  -7.59552341320897E+01  1.61429912551712E+00
(PID.TID 0000.0001)  ploadbar=  1.01137535182717E+05
 cg2d: Sum(rhs),rhsMax =  -7.53732935556667E+01  1.62737664940005E+00
(PID.TID 0000.0001)  ploadbar=  1.01137653568227E+05
 cg2d: Sum(rhs),rhsMax =  -7.48280138980959E+01  1.63978217643794E+00
(PID.TID 0000.0001)  ploadbar=  1.01137771953737E+05
 cg2d: Sum(rhs),rhsMax =  -7.43255183970960E+01  1.65134423557080E+00
(PID.TID 0000.0001)  ploadbar=  1.01137890339247E+05
 cg2d: Sum(rhs),rhsMax =  -7.38626448295896E+01  1.66209846149685E+00
(PID.TID 0000.0001)  ploadbar=  1.01138008724757E+05
 cg2d: Sum(rhs),rhsMax =  -7.34514183402920E+01  1.67173466320763E+00
(PID.TID 0000.0001)  ploadbar=  1.01138127110267E+05
 cg2d: Sum(rhs),rhsMax =  -7.31615789551739E+01  1.67870509627730E+00
(PID.TID 0000.0001)  ploadbar=  1.01138157085913E+05
 cg2d: Sum(rhs),rhsMax =  -7.29901197859939E+01  1.68301013243071E+00
(PID.TID 0000.0001)  ploadbar=  1.01138187061559E+05
 cg2d: Sum(rhs),rhsMax =  -7.29470212853966E+01  1.68438176443591E+00
(PID.TID 0000.0001)  ploadbar=  1.01138217037205E+05
 cg2d: Sum(rhs),rhsMax =  -7.30705149524727E+01  1.68192439567705E+00
(PID.TID 0000.0001)  ploadbar=  1.01138247012851E+05
 cg2d: Sum(rhs),rhsMax =  -7.33018477436734E+01  1.67701497532348E+00
(PID.TID 0000.0001)  ploadbar=  1.01138276988497E+05
 cg2d: Sum(rhs),rhsMax =  -7.40195551857882E+01  1.66115538675778E+00
(PID.TID 0000.0001)  ploadbar=  1.01138306964143E+05
 cg2d: Sum(rhs),rhsMax =  -7.46972607711124E+01  1.64649652754731E+00
(PID.TID 0000.0001)  ploadbar=  1.01138980294542E+05
 cg2d: Sum(rhs),rhsMax =  -7.54015358053391E+01  1.63154161456197E+00
(PID.TID 0000.0001)  ploadbar=  1.01139653624941E+05
 cg2d: Sum(rhs),rhsMax =  -7.60968097908563E+01  1.61707092837564E+00
(PID.TID 0000.0001)  ploadbar=  1.01140326955340E+05
 cg2d: Sum(rhs),rhsMax =  -7.67600998459083E+01  1.60354180263381E+00
(PID.TID 0000.0001)  ploadbar=  1.01141000285739E+05
 cg2d: Sum(rhs),rhsMax =  -7.73784264889743E+01  1.59117975933261E+00
(PID.TID 0000.0001)  ploadbar=  1.01141673616138E+05
 cg2d: Sum(rhs),rhsMax =  -7.79441786780249E+01  1.58008817336709E+00
(PID.TID 0000.0001)  ploadbar=  1.01142346946537E+05
 cg2d: Sum(rhs),rhsMax =  -7.84686167008822E+01  1.57000260625400E+00
(PID.TID 0000.0001)  ploadbar=  1.01143424753857E+05
 cg2d: Sum(rhs),rhsMax =  -7.89609731492664E+01  1.56070579010911E+00
(PID.TID 0000.0001)  ploadbar=  1.01144502561177E+05
 cg2d: Sum(rhs),rhsMax =  -7.94210515748680E+01  1.55217526151364E+00
(PID.TID 0000.0001)  ploadbar=  1.01145580368498E+05
 cg2d: Sum(rhs),rhsMax =  -7.98466183764310E+01  1.54442982860849E+00
(PID.TID 0000.0001)  ploadbar=  1.01146658175818E+05
 cg2d: Sum(rhs),rhsMax =  -8.02313523070237E+01  1.53756414822750E+00
(PID.TID 0000.0001)  ploadbar=  1.01147735983138E+05
 cg2d: Sum(rhs),rhsMax =  -8.05710187082056E+01  1.53163610594868E+00
(PID.TID 0000.0001)  ploadbar=  1.01148813790459E+05
 cg2d: Sum(rhs),rhsMax =  -8.08774370110947E+01  1.52634878568795E+00
(PID.TID 0000.0001)  ploadbar=  1.01149189070246E+05
 cg2d: Sum(rhs),rhsMax =  -8.11628775934915E+01  1.52145552944109E+00
(PID.TID 0000.0001)  ploadbar=  1.01149564350034E+05
 cg2d: Sum(rhs),rhsMax =  -8.14262090108879E+01  1.51696865642774E+00
(PID.TID 0000.0001)  ploadbar=  1.01149939629821E+05
 cg2d: Sum(rhs),rhsMax =  -8.16727956177631E+01  1.51277916822597E+00
(PID.TID 0000.0001)  ploadbar=  1.01150314909609E+05
 cg2d: Sum(rhs),rhsMax =  -8.19075665193179E+01  1.50879104960370E+00
(PID.TID 0000.0001)  ploadbar=  1.01150690189396E+05
 cg2d: Sum(rhs),rhsMax =  -8.21338174527334E+01  1.50493592164369E+00
(PID.TID 0000.0001)  ploadbar=  1.01151065469184E+05
 cg2d: Sum(rhs),rhsMax =  -8.23567509208178E+01  1.50119297300217E+00
(PID.TID 0000.0001)  ploadbar=  1.01152826998541E+05
 cg2d: Sum(rhs),rhsMax =  -8.25998660734239E+01  1.49713408886705E+00
(PID.TID 0000.0001)  ploadbar=  1.01154588527898E+05
 cg2d: Sum(rhs),rhsMax =  -8.28537223110033E+01  1.49293495823861E+00
(PID.TID 0000.0001)  ploadbar=  1.01156350057256E+05
 cg2d: Sum(rhs),rhsMax =  -8.31141282763504E+01  1.48867204890341E+00
(PID.TID 0000.0001)  ploadbar=  1.01158111586613E+05
 cg2d: Sum(rhs),rhsMax =  -8.33791946117728E+01  1.48437690440917E+00
(PID.TID 0000.0001)  ploadbar=  1.01159873115970E+05
 cg2d: Sum(rhs),rhsMax =  -8.36443662951597E+01  1.48012842138647E+00
(PID.TID 0000.0001)  ploadbar=  1.01161634645328E+05
 cg2d: Sum(rhs),rhsMax =  -8.38361450599215E+01  1.47722922094242E+00
(PID.TID 0000.0001)  ploadbar=  1.01161311865719E+05
 cg2d: Sum(rhs),rhsMax =  -8.40211861325822E+01  1.47449053925005E+00
(PID.TID 0000.0001)  ploadbar=  1.01160989086110E+05
 cg2d: Sum(rhs),rhsMax =  -8.42050552447773E+01  1.47181402609695E+00
(PID.TID 0000.0001)  ploadbar=  1.01160666306501E+05
 cg2d: Sum(rhs),rhsMax =  -8.43889433058889E+01  1.46917679476380E+00
(PID.TID 0000.0001)  ploadbar=  1.01160343526892E+05
 cg2d: Sum(rhs),rhsMax =  -8.45719243017853E+01  1.46659095948422E+00
(PID.TID 0000.0001)  ploadbar=  1.01160020747283E+05
 cg2d: Sum(rhs),rhsMax =  -8.47558013130334E+01  1.46401998956176E+00
(PID.TID 0000.0001)  ploadbar=  1.01159697967673E+05
 cg2d: Sum(rhs),rhsMax =  -8.48937629603221E+01  1.46227277631758E+00
(PID.TID 0000.0001)  ploadbar=  1.01159432137758E+05
 cg2d: Sum(rhs),rhsMax =  -8.50200244174490E+01  1.46075579677279E+00
(PID.TID 0000.0001)  ploadbar=  1.01159166307842E+05
 cg2d: Sum(rhs),rhsMax =  -8.51590163807105E+01  1.45904725181849E+00
(PID.TID 0000.0001)  ploadbar=  1.01158900477926E+05
 cg2d: Sum(rhs),rhsMax =  -8.53092597971733E+01  1.45717171640485E+00
(PID.TID 0000.0001)  ploadbar=  1.01158634648011E+05
 cg2d: Sum(rhs),rhsMax =  -8.54645107796683E+01  1.45523623386784E+00
(PID.TID 0000.0001)  ploadbar=  1.01158368818095E+05
 cg2d: Sum(rhs),rhsMax =  -8.56251940201522E+01  1.45323279392559E+00
(PID.TID 0000.0001)  ploadbar=  1.01158102988179E+05
 cg2d: Sum(rhs),rhsMax =  -8.58042102394934E+01  1.45089991041011E+00
(PID.TID 0000.0001)  ploadbar=  1.01158055346025E+05
 cg2d: Sum(rhs),rhsMax =  -8.59748177795866E+01  1.44868907118726E+00
(PID.TID 0000.0001)  ploadbar=  1.01158007703871E+05
 cg2d: Sum(rhs),rhsMax =  -8.61472028805942E+01  1.44642709473211E+00
(PID.TID 0000.0001)  ploadbar=  1.01157960061717E+05
 cg2d: Sum(rhs),rhsMax =  -8.63349794957085E+01  1.44388602198214E+00
(PID.TID 0000.0001)  ploadbar=  1.01157912419563E+05
 cg2d: Sum(rhs),rhsMax =  -8.65376963853805E+01  1.44107529800475E+00
(PID.TID 0000.0001)  ploadbar=  1.01157864777409E+05
 cg2d: Sum(rhs),rhsMax =  -8.67576199459070E+01  1.43795755267424E+00
(PID.TID 0000.0001)  ploadbar=  1.01157817135255E+05
 cg2d: Sum(rhs),rhsMax =  -8.70517722290632E+01  1.43366875251423E+00
(PID.TID 0000.0001)  ploadbar=  1.01157637928724E+05
 cg2d: Sum(rhs),rhsMax =  -8.73628271602244E+01  1.42916736819517E+00
(PID.TID 0000.0001)  ploadbar=  1.01157458722193E+05
 cg2d: Sum(rhs),rhsMax =  -8.76725991585917E+01  1.42475410212603E+00
(PID.TID 0000.0001)  ploadbar=  1.01157279515662E+05
 cg2d: Sum(rhs),rhsMax =  -8.79877201901013E+01  1.42032159109722E+00
(PID.TID 0000.0001)  ploadbar=  1.01157100309131E+05
 cg2d: Sum(rhs),rhsMax =  -8.83079516188814E+01  1.41587524276993E+00
(PID.TID 0000.0001)  ploadbar=  1.01156921102600E+05
 cg2d: Sum(rhs),rhsMax =  -8.80851854175374E+01  1.42019696314605E+00
(PID.TID 0000.0001)  ploadbar=  1.01156741896069E+05
 cg2d: Sum(rhs),rhsMax =  -8.76364231753968E+01  1.42821485960684E+00
(PID.TID 0000.0001)  ploadbar=  1.01155992284353E+05
 cg2d: Sum(rhs),rhsMax =  -8.72206167037677E+01  1.43577529665311E+00
(PID.TID 0000.0001)  ploadbar=  1.01155242672638E+05
 cg2d: Sum(rhs),rhsMax =  -8.68338432719137E+01  1.44293082400952E+00
(PID.TID 0000.0001)  ploadbar=  1.01154493060922E+05
 cg2d: Sum(rhs),rhsMax =  -8.64827500261243E+01  1.44955463081513E+00
(PID.TID 0000.0001)  ploadbar=  1.01153743449206E+05
 cg2d: Sum(rhs),rhsMax =  -8.61688576861596E+01  1.45560567790449E+00
(PID.TID 0000.0001)  ploadbar=  1.01152993837490E+05
 cg2d: Sum(rhs),rhsMax =  -8.58881964567263E+01  1.46113689646939E+00
(PID.TID 0000.0001)  ploadbar=  1.01152244225775E+05
 cg2d: Sum(rhs),rhsMax =  -8.56485735134947E+01  1.46599337954830E+00
(PID.TID 0000.0001)  ploadbar=  1.01152114683393E+05
 cg2d: Sum(rhs),rhsMax =  -8.54627288881719E+01  1.46994278059493E+00
(PID.TID 0000.0001)  ploadbar=  1.01151985141011E+05
 cg2d: Sum(rhs),rhsMax =  -8.53048954104457E+01  1.47341505248406E+00
(PID.TID 0000.0001)  ploadbar=  1.01151855598629E+05
 cg2d: Sum(rhs),rhsMax =  -8.52304162022808E+01  1.47544719011241E+00
(PID.TID 0000.0001)  ploadbar=  1.01151726056247E+05
 cg2d: Sum(rhs),rhsMax =  -8.52272498359189E+01  1.47623667165648E+00
(PID.TID 0000.0001)  ploadbar=  1.01151596513866E+05
 cg2d: Sum(rhs),rhsMax =  -8.52711375829476E+01  1.47620250313166E+00
(PID.TID 0000.0001)  ploadbar=  1.01151466971484E+05
 cg2d: Sum(rhs),rhsMax =  -8.53420909528290E+01  1.47564888888763E+00
(PID.TID 0000.0001)  ploadbar=  1.01150989720174E+05
 cg2d: Sum(rhs),rhsMax =  -8.54035879023545E+01  1.47520739695614E+00
(PID.TID 0000.0001)  ploadbar=  1.01150512468864E+05
 cg2d: Sum(rhs),rhsMax =  -8.54547005462211E+01  1.47489373210583E+00
(PID.TID 0000.0001)  ploadbar=  1.01150035217555E+05
 cg2d: Sum(rhs),rhsMax =  -8.54930787442815E+01  1.47474898549390E+00
(PID.TID 0000.0001)  ploadbar=  1.01149557966245E+05
 cg2d: Sum(rhs),rhsMax =  -8.55319664109147E+01  1.47454537615352E+00
(PID.TID 0000.0001)  ploadbar=  1.01149080714935E+05
 cg2d: Sum(rhs),rhsMax =  -8.55963983897024E+01  1.47385236541843E+00
(PID.TID 0000.0001)  ploadbar=  1.01148603463625E+05
 cg2d: Sum(rhs),rhsMax =  -8.57392160848357E+01  1.47184513513688E+00
(PID.TID 0000.0001)  ploadbar=  1.01148160941748E+05
 cg2d: Sum(rhs),rhsMax =  -8.59124495052830E+01  1.46935297582565E+00
(PID.TID 0000.0001)  ploadbar=  1.01147718419871E+05
 cg2d: Sum(rhs),rhsMax =  -8.61348207705429E+01  1.46606306088533E+00
(PID.TID 0000.0001)  ploadbar=  1.01147275897994E+05
 cg2d: Sum(rhs),rhsMax =  -8.63928869093154E+01  1.46221545597710E+00
(PID.TID 0000.0001)  ploadbar=  1.01146833376118E+05
 cg2d: Sum(rhs),rhsMax =  -8.66570350939094E+01  1.45831810990554E+00
(PID.TID 0000.0001)  ploadbar=  1.01146390854241E+05
 cg2d: Sum(rhs),rhsMax =  -8.68963366000673E+01  1.45489132514910E+00
(PID.TID 0000.0001)  ploadbar=  1.01145948332364E+05
 cg2d: Sum(rhs),rhsMax =  -8.71986644135473E+01  1.45045352955847E+00
(PID.TID 0000.0001)  ploadbar=  1.01147004052332E+05
 cg2d: Sum(rhs),rhsMax =  -8.75273585243033E+01  1.44562926133691E+00
(PID.TID 0000.0001)  ploadbar=  1.01148059772301E+05
 cg2d: Sum(rhs),rhsMax =  -8.78743702457639E+01  1.44055908638070E+00
(PID.TID 0000.0001)  ploadbar=  1.01149115492269E+05
 cg2d: Sum(rhs),rhsMax =  -8.82228328525967E+01  1.43552226270876E+00
(PID.TID 0000.0001)  ploadbar=  1.01150171212238E+05
 cg2d: Sum(rhs),rhsMax =  -8.85812994059390E+01  1.43038072014638E+00
(PID.TID 0000.0001)  ploadbar=  1.01151226932207E+05
 cg2d: Sum(rhs),rhsMax =  -8.89355715696412E+01  1.42536514475594E+00
(PID.TID 0000.0001)  ploadbar=  1.01152282652175E+05
 cg2d: Sum(rhs),rhsMax =  -8.91929125169277E+01  1.42192718972240E+00
(PID.TID 0000.0001)  ploadbar=  1.01152355378476E+05
 cg2d: Sum(rhs),rhsMax =  -8.94016354524264E+01  1.41927422032834E+00
(PID.TID 0000.0001)  ploadbar=  1.01152428104776E+05
 cg2d: Sum(rhs),rhsMax =  -8.95496514016773E+01  1.41758810929400E+00
(PID.TID 0000.0001)  ploadbar=  1.01152500831077E+05
 cg2d: Sum(rhs),rhsMax =  -8.96832644921164E+01  1.41612757310466E+00
(PID.TID 0000.0001)  ploadbar=  1.01152573557377E+05
 cg2d: Sum(rhs),rhsMax =  -8.98453664135966E+01  1.41421477276776E+00
(PID.TID 0000.0001)  ploadbar=  1.01152646283678E+05
 cg2d: Sum(rhs),rhsMax =  -9.00674679856783E+01  1.41135911847096E+00
(PID.TID 0000.0001)  ploadbar=  1.01152719009978E+05
 cg2d: Sum(rhs),rhsMax =  -9.03100852493175E+01  1.40817401007775E+00
(PID.TID 0000.0001)  ploadbar=  1.01152213060267E+05
 cg2d: Sum(rhs),rhsMax =  -9.05965208516279E+01  1.40430265478536E+00
(PID.TID 0000.0001)  ploadbar=  1.01151707110556E+05
 cg2d: Sum(rhs),rhsMax =  -9.09053624644553E+01  1.40008483047066E+00
(PID.TID 0000.0001)  ploadbar=  1.01151201160844E+05
 cg2d: Sum(rhs),rhsMax =  -9.12233646178123E+01  1.39572789949759E+00
(PID.TID 0000.0001)  ploadbar=  1.01150695211133E+05
 cg2d: Sum(rhs),rhsMax =  -9.15320173481253E+01  1.39151680820747E+00
(PID.TID 0000.0001)  ploadbar=  1.01150189261421E+05
 cg2d: Sum(rhs),rhsMax =  -9.18238116842781E+01  1.38756175212228E+00
(PID.TID 0000.0001)  ploadbar=  1.01149683311710E+05
 cg2d: Sum(rhs),rhsMax =  -9.21047587057100E+01  1.38380010754046E+00
(PID.TID 0000.0001)  ploadbar=  1.01149428290261E+05
 cg2d: Sum(rhs),rhsMax =  -9.23679646978248E+01  1.38033064643111E+00
(PID.TID 0000.0001)  ploadbar=  1.01149173268811E+05
 cg2d: Sum(rhs),rhsMax =  -9.26315179739483E+01  1.37687904067532E+00
(PID.TID 0000.0001)  ploadbar=  1.01148918247362E+05
 cg2d: Sum(rhs),rhsMax =  -9.28890664246979E+01  1.37353789961190E+00
(PID.TID 0000.0001)  ploadbar=  1.01148663225913E+05
 cg2d: Sum(rhs),rhsMax =  -9.31463135792382E+01  1.37021822598292E+00
(PID.TID 0000.0001)  ploadbar=  1.01148408204464E+05
 cg2d: Sum(rhs),rhsMax =  -9.34068502631525E+01  1.36686785303110E+00
(PID.TID 0000.0001)  ploadbar=  1.01148153183014E+05
 cg2d: Sum(rhs),rhsMax =  -9.36910865438054E+01  1.36319913590575E+00
(PID.TID 0000.0001)  ploadbar=  1.01147683072065E+05
 cg2d: Sum(rhs),rhsMax =  -9.39545103098432E+01  1.35986284745921E+00
(PID.TID 0000.0001)  ploadbar=  1.01147212961115E+05
 cg2d: Sum(rhs),rhsMax =  -9.42047535207973E+01  1.35674443902195E+00
(PID.TID 0000.0001)  ploadbar=  1.01146742850166E+05
 cg2d: Sum(rhs),rhsMax =  -9.44221064865694E+01  1.35412300246987E+00
(PID.TID 0000.0001)  ploadbar=  1.01146272739216E+05
 cg2d: Sum(rhs),rhsMax =  -9.45946474986019E+01  1.35215959925522E+00
(PID.TID 0000.0001)  ploadbar=  1.01145802628267E+05
 cg2d: Sum(rhs),rhsMax =  -9.44856067234753E+01  1.35423146871129E+00
(PID.TID 0000.0001)  ploadbar=  1.01145332517317E+05
 cg2d: Sum(rhs),rhsMax =  -9.43210410052993E+01  1.35710323787015E+00
(PID.TID 0000.0001)  ploadbar=  1.01145040983568E+05
 cg2d: Sum(rhs),rhsMax =  -9.41360374808402E+01  1.36027661900402E+00
(PID.TID 0000.0001)  ploadbar=  1.01144749449819E+05
 cg2d: Sum(rhs),rhsMax =  -9.39297387044298E+01  1.36376720595835E+00
(PID.TID 0000.0001)  ploadbar=  1.01144457916069E+05
 cg2d: Sum(rhs),rhsMax =  -9.37077509931626E+01  1.36749732157961E+00
(PID.TID 0000.0001)  ploadbar=  1.01144166382320E+05
 cg2d: Sum(rhs),rhsMax =  -9.34807424519040E+01  1.37131219439965E+00
(PID.TID 0000.0001)  ploadbar=  1.01143874848571E+05
 cg2d: Sum(rhs),rhsMax =  -9.32596386492744E+01  1.37505170078184E+00
(PID.TID 0000.0001)  ploadbar=  1.01143583314822E+05
 cg2d: Sum(rhs),rhsMax =  -9.30742522053035E+01  1.37825641692359E+00
(PID.TID 0000.0001)  ploadbar=  1.01143510338073E+05
 cg2d: Sum(rhs),rhsMax =  -9.29130975927858E+01  1.38108886653927E+00
(PID.TID 0000.0001)  ploadbar=  1.01143437361324E+05
 cg2d: Sum(rhs),rhsMax =  -9.27792438326991E+01  1.38349927603764E+00
(PID.TID 0000.0001)  ploadbar=  1.01143364384576E+05
 cg2d: Sum(rhs),rhsMax =  -9.26698160836099E+01  1.38552454168425E+00
(PID.TID 0000.0001)  ploadbar=  1.01143291407827E+05
 cg2d: Sum(rhs),rhsMax =  -9.25782478221855E+01  1.38725812820919E+00
(PID.TID 0000.0001)  ploadbar=  1.01143218431078E+05
 cg2d: Sum(rhs),rhsMax =  -9.24967024387304E+01  1.38881656619475E+00
(PID.TID 0000.0001)  ploadbar=  1.01143145454329E+05
 cg2d: Sum(rhs),rhsMax =  -9.24048192472701E+01  1.39057193379534E+00
(PID.TID 0000.0001)  ploadbar=  1.01142400999200E+05
 cg2d: Sum(rhs),rhsMax =  -9.22966354483730E+01  1.39261299454413E+00
(PID.TID 0000.0001)  ploadbar=  1.01141656544072E+05
 cg2d: Sum(rhs),rhsMax =  -9.21647835343786E+01  1.39505297252054E+00
(PID.TID 0000.0001)  ploadbar=  1.01140912088943E+05
 cg2d: Sum(rhs),rhsMax =  -9.20101675358874E+01  1.39788268438835E+00
(PID.TID 0000.0001)  ploadbar=  1.01140167633814E+05
 cg2d: Sum(rhs),rhsMax =  -9.18408252211671E+01  1.40098123560244E+00
(PID.TID 0000.0001)  ploadbar=  1.01139423178685E+05
 cg2d: Sum(rhs),rhsMax =  -9.16956044764331E+01  1.40375576095552E+00
(PID.TID 0000.0001)  ploadbar=  1.01138678723556E+05
 cg2d: Sum(rhs),rhsMax =  -9.15835785918421E+01  1.40603200843072E+00
(PID.TID 0000.0001)  ploadbar=  1.01138167990953E+05
 cg2d: Sum(rhs),rhsMax =  -9.15074427697150E+01  1.40776506780093E+00
(PID.TID 0000.0001)  ploadbar=  1.01137657258349E+05
 cg2d: Sum(rhs),rhsMax =  -9.14492247146041E+01  1.40922697423468E+00
(PID.TID 0000.0001)  ploadbar=  1.01137146525746E+05
 cg2d: Sum(rhs),rhsMax =  -9.13955010135501E+01  1.41062472927595E+00
(PID.TID 0000.0001)  ploadbar=  1.01136635793143E+05
 cg2d: Sum(rhs),rhsMax =  -9.13387095788823E+01  1.41207268595022E+00
(PID.TID 0000.0001)  ploadbar=  1.01136125060539E+05
 cg2d: Sum(rhs),rhsMax =  -9.12805681907140E+01  1.41354177900793E+00
(PID.TID 0000.0001)  ploadbar=  1.01135614327936E+05
 cg2d: Sum(rhs),rhsMax =  -9.14339839622475E+01  1.41173698079874E+00
(PID.TID 0000.0001)  ploadbar=  1.01136480980992E+05
 cg2d: Sum(rhs),rhsMax =  -9.22478372578204E+01  1.39984131623807E+00
(PID.TID 0000.0001)  ploadbar=  1.01137347634048E+05
 cg2d: Sum(rhs),rhsMax =  -9.30677652478461E+01  1.38805964073216E+00
(PID.TID 0000.0001)  ploadbar=  1.01138214287103E+05
 cg2d: Sum(rhs),rhsMax =  -9.38934988944417E+01  1.37639528039661E+00
(PID.TID 0000.0001)  ploadbar=  1.01139080940159E+05
 cg2d: Sum(rhs),rhsMax =  -9.47388125787673E+01  1.36464641056360E+00
(PID.TID 0000.0001)  ploadbar=  1.01139947593215E+05
 cg2d: Sum(rhs),rhsMax =  -9.56182026748084E+01  1.35261620704443E+00
(PID.TID 0000.0001)  ploadbar=  1.01140814246271E+05
 cg2d: Sum(rhs),rhsMax =  -9.65342428350261E+01  1.34027329266834E+00
(PID.TID 0000.0001)  ploadbar=  1.01141139651548E+05
 cg2d: Sum(rhs),rhsMax =  -9.74799866265566E+01  1.32773573863003E+00
(PID.TID 0000.0001)  ploadbar=  1.01141465056826E+05
 cg2d: Sum(rhs),rhsMax =  -9.84677233359295E+01  1.31485631390174E+00
(PID.TID 0000.0001)  ploadbar=  1.01141790462104E+05
 cg2d: Sum(rhs),rhsMax =  -9.95043362028747E+01  1.30157253487741E+00
(PID.TID 0000.0001)  ploadbar=  1.01142115867381E+05
 cg2d: Sum(rhs),rhsMax =  -1.00594197837859E+02  1.28785923343000E+00
(PID.TID 0000.0001)  ploadbar=  1.01142441272659E+05
 cg2d: Sum(rhs),rhsMax =  -1.01710431043728E+02  1.27408879056591E+00
(PID.TID 0000.0001)  ploadbar=  1.01142766677937E+05
 cg2d: Sum(rhs),rhsMax =  -1.01907805642656E+02  1.27198680454122E+00
(PID.TID 0000.0001)  ploadbar=  1.01142668819304E+05
 cg2d: Sum(rhs),rhsMax =  -1.02100884853311E+02  1.26994828273180E+00
(PID.TID 0000.0001)  ploadbar=  1.01142570960671E+05
 cg2d: Sum(rhs),rhsMax =  -1.02301943954420E+02  1.26781951868994E+00
(PID.TID 0000.0001)  ploadbar=  1.01142473102038E+05
 cg2d: Sum(rhs),rhsMax =  -1.02507838195403E+02  1.26564281485676E+00
(PID.TID 0000.0001)  ploadbar=  1.01142375243405E+05
 cg2d: Sum(rhs),rhsMax =  -1.02720586151672E+02  1.26339389442621E+00
(PID.TID 0000.0001)  ploadbar=  1.01142277384773E+05
 cg2d: Sum(rhs),rhsMax =  -1.02941330951729E+02  1.26105960976142E+00
(PID.TID 0000.0001)  ploadbar=  1.01142179526140E+05
 cg2d: Sum(rhs),rhsMax =  -1.03169995849298E+02  1.25863670372144E+00
(PID.TID 0000.0001)  ploadbar=  1.01143046417534E+05
 cg2d: Sum(rhs),rhsMax =  -1.03380468107936E+02  1.25644404246405E+00
(PID.TID 0000.0001)  ploadbar=  1.01143913308928E+05
 cg2d: Sum(rhs),rhsMax =  -1.03574006226885E+02  1.25446527129401E+00
(PID.TID 0000.0001)  ploadbar=  1.01144780200322E+05
 cg2d: Sum(rhs),rhsMax =  -1.03753262071441E+02  1.25266809334740E+00
(PID.TID 0000.0001)  ploadbar=  1.01145647091716E+05
 cg2d: Sum(rhs),rhsMax =  -1.03925230474659E+02  1.25096642833158E+00
(PID.TID 0000.0001)  ploadbar=  1.01146513983111E+05
 cg2d: Sum(rhs),rhsMax =  -1.04094595457948E+02  1.24930035338137E+00
(PID.TID 0000.0001)  ploadbar=  1.01147380874505E+05
 cg2d: Sum(rhs),rhsMax =  -1.04315643542125E+02  1.24702598033931E+00
(PID.TID 0000.0001)  ploadbar=  1.01147255817162E+05
 cg2d: Sum(rhs),rhsMax =  -1.04576804049071E+02  1.24428618197408E+00
(PID.TID 0000.0001)  ploadbar=  1.01147130759819E+05
 cg2d: Sum(rhs),rhsMax =  -1.04859134731664E+02  1.24131036650297E+00
(PID.TID 0000.0001)  ploadbar=  1.01147005702476E+05
 cg2d: Sum(rhs),rhsMax =  -1.04439707057622E+02  1.24667171827978E+00
(PID.TID 0000.0001)  ploadbar=  1.01146880645133E+05
 cg2d: Sum(rhs),rhsMax =  -1.03804211311334E+02  1.25468339340582E+00
(PID.TID 0000.0001)  ploadbar=  1.01146755587790E+05
 cg2d: Sum(rhs),rhsMax =  -1.03110844648594E+02  1.26350034496521E+00
(PID.TID 0000.0001)  ploadbar=  1.01146630530447E+05
 cg2d: Sum(rhs),rhsMax =  -1.02390308974719E+02  1.27275880648937E+00
(PID.TID 0000.0001)  ploadbar=  1.01147028103954E+05
 cg2d: Sum(rhs),rhsMax =  -1.01704506758426E+02  1.28169588501790E+00
(PID.TID 0000.0001)  ploadbar=  1.01147425677461E+05
 cg2d: Sum(rhs),rhsMax =  -1.01064675168199E+02  1.29015031020784E+00
(PID.TID 0000.0001)  ploadbar=  1.01147823250968E+05
 cg2d: Sum(rhs),rhsMax =  -1.00450649066591E+02  1.29836173560872E+00
(PID.TID 0000.0001)  ploadbar=  1.01148220824475E+05
 cg2d: Sum(rhs),rhsMax =  -9.98257595403698E+01  1.30679798712673E+00
(PID.TID 0000.0001)  ploadbar=  1.01148618397983E+05
 cg2d: Sum(rhs),rhsMax =  -9.92179724188671E+01  1.31509496512210E+00
(PID.TID 0000.0001)  ploadbar=  1.01149015971490E+05
 cg2d: Sum(rhs),rhsMax =  -9.85840373537804E+01  1.32385121211315E+00
(PID.TID 0000.0001)  ploadbar=  1.01149741075324E+05
 cg2d: Sum(rhs),rhsMax =  -9.79399851111361E+01  1.33286531929175E+00
(PID.TID 0000.0001)  ploadbar=  1.01150466179159E+05
 cg2d: Sum(rhs),rhsMax =  -9.72784201141958E+01  1.34224806214779E+00
(PID.TID 0000.0001)  ploadbar=  1.01151191282994E+05
 cg2d: Sum(rhs),rhsMax =  -9.66080176845596E+01  1.35188819916266E+00
(PID.TID 0000.0001)  ploadbar=  1.01151916386829E+05
 cg2d: Sum(rhs),rhsMax =  -9.59403545783322E+01  1.36162895415856E+00
(PID.TID 0000.0001)  ploadbar=  1.01152641490664E+05
 cg2d: Sum(rhs),rhsMax =  -9.52914367196938E+01  1.37123988512246E+00
(PID.TID 0000.0001)  ploadbar=  1.01153366594499E+05
 cg2d: Sum(rhs),rhsMax =  -9.47295019981105E+01  1.37972911348665E+00
(PID.TID 0000.0001)  ploadbar=  1.01154285010299E+05
 cg2d: Sum(rhs),rhsMax =  -9.42578656528560E+01  1.38700471425557E+00
(PID.TID 0000.0001)  ploadbar=  1.01155203426100E+05
 cg2d: Sum(rhs),rhsMax =  -9.38699638207305E+01  1.39312239817841E+00
(PID.TID 0000.0001)  ploadbar=  1.01156121841900E+05
 cg2d: Sum(rhs),rhsMax =  -9.35473398482576E+01  1.39832433952062E+00
(PID.TID 0000.0001)  ploadbar=  1.01157040257701E+05
 cg2d: Sum(rhs),rhsMax =  -9.32757479368969E+01  1.40280148802120E+00
(PID.TID 0000.0001)  ploadbar=  1.01157958673501E+05
 cg2d: Sum(rhs),rhsMax =  -9.30446361566137E+01  1.40669460079812E+00
(PID.TID 0000.0001)  ploadbar=  1.01158877089301E+05
 cg2d: Sum(rhs),rhsMax =  -9.27489919016983E+01  1.41158250961205E+00
(PID.TID 0000.0001)  ploadbar=  1.01159391863457E+05
 cg2d: Sum(rhs),rhsMax =  -9.24482723316373E+01  1.41657174273603E+00
(PID.TID 0000.0001)  ploadbar=  1.01159906637613E+05
 cg2d: Sum(rhs),rhsMax =  -9.21753237735533E+01  1.42115804878915E+00
(PID.TID 0000.0001)  ploadbar=  1.01160421411768E+05
 cg2d: Sum(rhs),rhsMax =  -9.19558383619094E+01  1.42493231864509E+00
(PID.TID 0000.0001)  ploadbar=  1.01160936185924E+05
 cg2d: Sum(rhs),rhsMax =  -9.18205797243659E+01  1.42739985336140E+00
(PID.TID 0000.0001)  ploadbar=  1.01161450960079E+05
 cg2d: Sum(rhs),rhsMax =  -9.17929061661821E+01  1.42818121126770E+00
(PID.TID 0000.0001)  ploadbar=  1.01161965734235E+05
 cg2d: Sum(rhs),rhsMax =  -9.20293185927722E+01  1.42484756319773E+00
(PID.TID 0000.0001)  ploadbar=  1.01161829403668E+05
 cg2d: Sum(rhs),rhsMax =  -9.24542468147577E+01  1.41861658257580E+00
(PID.TID 0000.0001)  ploadbar=  1.01161693073101E+05
 cg2d: Sum(rhs),rhsMax =  -9.30649519117884E+01  1.40960563374911E+00
(PID.TID 0000.0001)  ploadbar=  1.01161556742534E+05
 cg2d: Sum(rhs),rhsMax =  -9.38431184899358E+01  1.39819337736456E+00
(PID.TID 0000.0001)  ploadbar=  1.01161420411967E+05
 cg2d: Sum(rhs),rhsMax =  -9.47608422288176E+01  1.38490648391490E+00
(PID.TID 0000.0001)  ploadbar=  1.01161284081400E+05
 cg2d: Sum(rhs),rhsMax =  -9.57606445312714E+01  1.37067588021246E+00
(PID.TID 0000.0001)  ploadbar=  1.01161147750833E+05
 cg2d: Sum(rhs),rhsMax =  -9.65283062277149E+01  1.36004760164557E+00
(PID.TID 0000.0001)  ploadbar=  1.01160942490097E+05
 cg2d: Sum(rhs),rhsMax =  -9.70474129491901E+01  1.35308618512353E+00
(PID.TID 0000.0001)  ploadbar=  1.01160737229361E+05
 cg2d: Sum(rhs),rhsMax =  -9.72898086872767E+01  1.35006748384170E+00
(PID.TID 0000.0001)  ploadbar=  1.01160531968625E+05
 cg2d: Sum(rhs),rhsMax =  -9.69515391715977E+01  1.35516933987510E+00
(PID.TID 0000.0001)  ploadbar=  1.01160326707889E+05
 cg2d: Sum(rhs),rhsMax =  -9.66113113284548E+01  1.36036986078354E+00
(PID.TID 0000.0001)  ploadbar=  1.01160121447153E+05
 cg2d: Sum(rhs),rhsMax =  -9.62588051359979E+01  1.36581490603256E+00
(PID.TID 0000.0001)  ploadbar=  1.01159916186418E+05
 cg2d: Sum(rhs),rhsMax =  -9.59828659297763E+01  1.37021764853068E+00
(PID.TID 0000.0001)  ploadbar=  1.01159992658923E+05
 cg2d: Sum(rhs),rhsMax =  -9.57105917113333E+01  1.37460705056883E+00
(PID.TID 0000.0001)  ploadbar=  1.01160069131427E+05
 cg2d: Sum(rhs),rhsMax =  -9.54062480079390E+01  1.37949639648792E+00
(PID.TID 0000.0001)  ploadbar=  1.01160145603932E+05
 cg2d: Sum(rhs),rhsMax =  -9.50690171989632E+01  1.38490679145057E+00
(PID.TID 0000.0001)  ploadbar=  1.01160222076437E+05
 cg2d: Sum(rhs),rhsMax =  -9.47033922875289E+01  1.39078511289694E+00
(PID.TID 0000.0001)  ploadbar=  1.01160298548942E+05
 cg2d: Sum(rhs),rhsMax =  -9.43052781641931E+01  1.39720211347626E+00
(PID.TID 0000.0001)  ploadbar=  1.01160375021447E+05
 cg2d: Sum(rhs),rhsMax =  -9.40316527264218E+01  1.40181283563818E+00
(PID.TID 0000.0001)  ploadbar=  1.01161637482390E+05
 cg2d: Sum(rhs),rhsMax =  -9.37581800695600E+01  1.40644640747951E+00
(PID.TID 0000.0001)  ploadbar=  1.01162899943333E+05
 cg2d: Sum(rhs),rhsMax =  -9.34546325829816E+01  1.41155924811367E+00
(PID.TID 0000.0001)  ploadbar=  1.01164162404276E+05
 cg2d: Sum(rhs),rhsMax =  -9.31282404804590E+01  1.41704923660772E+00
(PID.TID 0000.0001)  ploadbar=  1.01165424865219E+05
 cg2d: Sum(rhs),rhsMax =  -9.27638777925789E+01  1.42315401378328E+00
(PID.TID 0000.0001)  ploadbar=  1.01166687326162E+05
 cg2d: Sum(rhs),rhsMax =  -9.24397082678779E+01  1.42868042687296E+00
(PID.TID 0000.0001)  ploadbar=  1.01167949787105E+05
 cg2d: Sum(rhs),rhsMax =  -9.21863930758842E+01  1.43311395341883E+00
(PID.TID 0000.0001)  ploadbar=  1.01168406212032E+05
 cg2d: Sum(rhs),rhsMax =  -9.20413745954819E+01  1.43584990710102E+00
(PID.TID 0000.0001)  ploadbar=  1.01168862636959E+05
 cg2d: Sum(rhs),rhsMax =  -9.20012387134782E+01  1.43692422314278E+00
(PID.TID 0000.0001)  ploadbar=  1.01169319061885E+05
 cg2d: Sum(rhs),rhsMax =  -9.20451108795226E+01  1.43665421478659E+00
(PID.TID 0000.0001)  ploadbar=  1.01169775486812E+05
 cg2d: Sum(rhs),rhsMax =  -9.28400699224813E+01  1.42472988049965E+00
(PID.TID 0000.0001)  ploadbar=  1.01170231911739E+05
 cg2d: Sum(rhs),rhsMax =  -9.40313245209569E+01  1.40701745350807E+00
(PID.TID 0000.0001)  ploadbar=  1.01170688336665E+05
 cg2d: Sum(rhs),rhsMax =  -9.51990351235261E+01  1.39011806014930E+00
(PID.TID 0000.0001)  ploadbar=  1.01170970359040E+05
 cg2d: Sum(rhs),rhsMax =  -9.63378548535440E+01  1.37406996237050E+00
(PID.TID 0000.0001)  ploadbar=  1.01171252381415E+05
 cg2d: Sum(rhs),rhsMax =  -9.74105995617017E+01  1.35934708097522E+00
(PID.TID 0000.0001)  ploadbar=  1.01171534403790E+05
 cg2d: Sum(rhs),rhsMax =  -9.83998115246208E+01  1.34611317479012E+00
(PID.TID 0000.0001)  ploadbar=  1.01171816426164E+05
 cg2d: Sum(rhs),rhsMax =  -9.93008101484514E+01  1.33435328284844E+00
(PID.TID 0000.0001)  ploadbar=  1.01172098448539E+05
 cg2d: Sum(rhs),rhsMax =  -1.00113260174487E+02  1.32399920157192E+00
(PID.TID 0000.0001)  ploadbar=  1.01172380470914E+05
 cg2d: Sum(rhs),rhsMax =  -1.00828345300818E+02  1.31508021931531E+00
(PID.TID 0000.0001)  ploadbar=  1.01171287150819E+05
 cg2d: Sum(rhs),rhsMax =  -1.01509637963718E+02  1.30672351493730E+00
(PID.TID 0000.0001)  ploadbar=  1.01170193830724E+05
 cg2d: Sum(rhs),rhsMax =  -1.02148488055179E+02  1.29901822747424E+00
(PID.TID 0000.0001)  ploadbar=  1.01169100510629E+05
 cg2d: Sum(rhs),rhsMax =  -1.02725239029550E+02  1.29218951315303E+00
(PID.TID 0000.0001)  ploadbar=  1.01168007190534E+05
 cg2d: Sum(rhs),rhsMax =  -1.03236604155396E+02  1.28625280989039E+00
(PID.TID 0000.0001)  ploadbar=  1.01166913870440E+05
 cg2d: Sum(rhs),rhsMax =  -1.03679492088991E+02  1.28122116490999E+00
(PID.TID 0000.0001)  ploadbar=  1.01165820550345E+05
 cg2d: Sum(rhs),rhsMax =  -1.04003838017597E+02  1.27767638568517E+00
(PID.TID 0000.0001)  ploadbar=  1.01164894956261E+05
 cg2d: Sum(rhs),rhsMax =  -1.04067209610015E+02  1.27733739799751E+00
(PID.TID 0000.0001)  ploadbar=  1.01163969362176E+05
 cg2d: Sum(rhs),rhsMax =  -1.03804815580098E+02  1.28099508850300E+00
(PID.TID 0000.0001)  ploadbar=  1.01163043768092E+05
 cg2d: Sum(rhs),rhsMax =  -1.03528480504751E+02  1.28483309537510E+00
(PID.TID 0000.0001)  ploadbar=  1.01162118174008E+05
 cg2d: Sum(rhs),rhsMax =  -1.03223649689245E+02  1.28903594909299E+00
(PID.TID 0000.0001)  ploadbar=  1.01161192579924E+05
 cg2d: Sum(rhs),rhsMax =  -1.02952867938292E+02  1.29282391633720E+00
(PID.TID 0000.0001)  ploadbar=  1.01160266985840E+05
 cg2d: Sum(rhs),rhsMax =  -1.02800974159723E+02  1.29510471172584E+00
(PID.TID 0000.0001)  ploadbar=  1.01159805414882E+05
 cg2d: Sum(rhs),rhsMax =  -1.03189374147513E+02  1.29057070860474E+00
(PID.TID 0000.0001)  ploadbar=  1.01159343843923E+05
 cg2d: Sum(rhs),rhsMax =  -1.04575110576892E+02  1.27377723046344E+00
(PID.TID 0000.0001)  ploadbar=  1.01158882272965E+05
 cg2d: Sum(rhs),rhsMax =  -1.06007020941355E+02  1.25684774694489E+00
(PID.TID 0000.0001)  ploadbar=  1.01158420702007E+05
 cg2d: Sum(rhs),rhsMax =  -1.07451884713085E+02  1.24019297640172E+00
(PID.TID 0000.0001)  ploadbar=  1.01157959131048E+05
 cg2d: Sum(rhs),rhsMax =  -1.08003160675748E+02  1.23407904229862E+00
(PID.TID 0000.0001)  ploadbar=  1.01157497560090E+05
 cg2d: Sum(rhs),rhsMax =  -1.08375426299582E+02  1.23007293881793E+00
(PID.TID 0000.0001)  ploadbar=  1.01158653440307E+05
 cg2d: Sum(rhs),rhsMax =  -1.08723489554455E+02  1.22638446613122E+00
(PID.TID 0000.0001)  ploadbar=  1.01159809320524E+05
 cg2d: Sum(rhs),rhsMax =  -1.09066439124344E+02  1.22279464340172E+00
(PID.TID 0000.0001)  ploadbar=  1.01160965200741E+05
 cg2d: Sum(rhs),rhsMax =  -1.09405572678057E+02  1.21928767207626E+00
(PID.TID 0000.0001)  ploadbar=  1.01162121080958E+05
 cg2d: Sum(rhs),rhsMax =  -1.09731845630148E+02  1.21596262789307E+00
(PID.TID 0000.0001)  ploadbar=  1.01163276961175E+05
 cg2d: Sum(rhs),rhsMax =  -1.10045441868270E+02  1.21281609898650E+00
(PID.TID 0000.0001)  ploadbar=  1.01164432841392E+05
 cg2d: Sum(rhs),rhsMax =  -1.10265074701238E+02  1.21073148453228E+00
(PID.TID 0000.0001)  ploadbar=  1.01164688998058E+05
 cg2d: Sum(rhs),rhsMax =  -1.10475834652732E+02  1.20876536941833E+00
(PID.TID 0000.0001)  ploadbar=  1.01164945154723E+05
 cg2d: Sum(rhs),rhsMax =  -1.10678866511542E+02  1.20690422531729E+00
(PID.TID 0000.0001)  ploadbar=  1.01165201311388E+05
 cg2d: Sum(rhs),rhsMax =  -1.10721079961055E+02  1.20681313469944E+00
(PID.TID 0000.0001)  ploadbar=  1.01165457468054E+05
 cg2d: Sum(rhs),rhsMax =  -1.10910345031586E+02  1.20513554195193E+00
(PID.TID 0000.0001)  ploadbar=  1.01165713624719E+05
 cg2d: Sum(rhs),rhsMax =  -1.11313266678230E+02  1.20116781273096E+00
(PID.TID 0000.0001)  ploadbar=  1.01165969781384E+05
 cg2d: Sum(rhs),rhsMax =  -1.11472363196302E+02  1.19983381325703E+00
(PID.TID 0000.0001)  ploadbar=  1.01166204440021E+05
 cg2d: Sum(rhs),rhsMax =  -1.11627399924216E+02  1.19853150059020E+00
(PID.TID 0000.0001)  ploadbar=  1.01166439098658E+05
 cg2d: Sum(rhs),rhsMax =  -1.11777706285577E+02  1.19726894348455E+00
(PID.TID 0000.0001)  ploadbar=  1.01166673757295E+05
 cg2d: Sum(rhs),rhsMax =  -1.11932976132183E+02  1.19594231848953E+00
(PID.TID 0000.0001)  ploadbar=  1.01166908415932E+05
 cg2d: Sum(rhs),rhsMax =  -1.11203457225374E+02  1.20410917182321E+00
(PID.TID 0000.0001)  ploadbar=  1.01167143074569E+05
 cg2d: Sum(rhs),rhsMax =  -1.09933636661552E+02  1.21832680970632E+00
(PID.TID 0000.0001)  ploadbar=  1.01167377733206E+05
 cg2d: Sum(rhs),rhsMax =  -1.08613052911057E+02  1.23342583493761E+00
(PID.TID 0000.0001)  ploadbar=  1.01167566848220E+05
 cg2d: Sum(rhs),rhsMax =  -1.07264807330501E+02  1.24919080160139E+00
(PID.TID 0000.0001)  ploadbar=  1.01167755963235E+05
 cg2d: Sum(rhs),rhsMax =  -1.05891573019073E+02  1.26562722736646E+00
(PID.TID 0000.0001)  ploadbar=  1.01167945078249E+05
 cg2d: Sum(rhs),rhsMax =  -1.04521387366810E+02  1.28242840568207E+00
(PID.TID 0000.0001)  ploadbar=  1.01168134193263E+05
 cg2d: Sum(rhs),rhsMax =  -1.03197567005459E+02  1.29906226101697E+00
(PID.TID 0000.0001)  ploadbar=  1.01168323308278E+05
 cg2d: Sum(rhs),rhsMax =  -1.02032258295017E+02  1.31405376569232E+00
(PID.TID 0000.0001)  ploadbar=  1.01168512423292E+05
 cg2d: Sum(rhs),rhsMax =  -1.01144310311433E+02  1.32576946596975E+00
(PID.TID 0000.0001)  ploadbar=  1.01169562519473E+05
 cg2d: Sum(rhs),rhsMax =  -1.00677032842490E+02  1.33212472231003E+00
(PID.TID 0000.0001)  ploadbar=  1.01170612615655E+05
 cg2d: Sum(rhs),rhsMax =  -1.00628233957683E+02  1.33299315481389E+00
(PID.TID 0000.0001)  ploadbar=  1.01171662711836E+05
 cg2d: Sum(rhs),rhsMax =  -1.02504031541629E+02  1.30883618120905E+00
(PID.TID 0000.0001)  ploadbar=  1.01172712808018E+05
 cg2d: Sum(rhs),rhsMax =  -1.04804947148723E+02  1.28035157243519E+00
(PID.TID 0000.0001)  ploadbar=  1.01173762904199E+05
 cg2d: Sum(rhs),rhsMax =  -1.07592826435301E+02  1.24743759319405E+00
(PID.TID 0000.0001)  ploadbar=  1.01174813000380E+05
 cg2d: Sum(rhs),rhsMax =  -1.11141785794275E+02  1.20788176291454E+00
(PID.TID 0000.0001)  ploadbar=  1.01175247032545E+05
 cg2d: Sum(rhs),rhsMax =  -1.15152018361009E+02  1.16610500888016E+00
(PID.TID 0000.0001)  ploadbar=  1.01175681064710E+05
 cg2d: Sum(rhs),rhsMax =  -1.15513804728092E+02  1.16276240707161E+00
(PID.TID 0000.0001)  ploadbar=  1.01176115096875E+05
 cg2d: Sum(rhs),rhsMax =  -1.13488309191088E+02  1.18385278270640E+00
(PID.TID 0000.0001)  ploadbar=  1.01176549129041E+05
 cg2d: Sum(rhs),rhsMax =  -1.11243048414613E+02  1.20811425462487E+00
(PID.TID 0000.0001)  ploadbar=  1.01176983161206E+05
 cg2d: Sum(rhs),rhsMax =  -1.09357888599468E+02  1.22933674973447E+00
(PID.TID 0000.0001)  ploadbar=  1.01177417193371E+05
 cg2d: Sum(rhs),rhsMax =  -1.07930209333212E+02  1.24599013324684E+00
(PID.TID 0000.0001)  ploadbar=  1.01177460220631E+05
 cg2d: Sum(rhs),rhsMax =  -1.06719732823584E+02  1.26050911915793E+00
(PID.TID 0000.0001)  ploadbar=  1.01177503247891E+05
 cg2d: Sum(rhs),rhsMax =  -1.05637761324251E+02  1.27380129060166E+00
(PID.TID 0000.0001)  ploadbar=  1.01177546275151E+05
 cg2d: Sum(rhs),rhsMax =  -1.04608478574341E+02  1.28671222383433E+00
(PID.TID 0000.0001)  ploadbar=  1.01177589302411E+05
 cg2d: Sum(rhs),rhsMax =  -1.03646191112767E+02  1.29903332919160E+00
(PID.TID 0000.0001)  ploadbar=  1.01177632329671E+05
 cg2d: Sum(rhs),rhsMax =  -1.02804970184499E+02  1.31003570138401E+00
(PID.TID 0000.0001)  ploadbar=  1.01177675356931E+05
 cg2d: Sum(rhs),rhsMax =  -1.02106758765042E+02  1.31934723459863E+00
(PID.TID 0000.0001)  ploadbar=  1.01177461613671E+05
 cg2d: Sum(rhs),rhsMax =  -1.01539906573547E+02  1.32704388115576E+00
(PID.TID 0000.0001)  ploadbar=  1.01177247870411E+05
 cg2d: Sum(rhs),rhsMax =  -1.01139734295906E+02  1.33260418169553E+00
(PID.TID 0000.0001)  ploadbar=  1.01177034127151E+05
 cg2d: Sum(rhs),rhsMax =  -1.00950219010393E+02  1.33539319137420E+00
(PID.TID 0000.0001)  ploadbar=  1.01176820383891E+05
 cg2d: Sum(rhs),rhsMax =  -1.01009384717801E+02  1.33487617516817E+00
(PID.TID 0000.0001)  ploadbar=  1.01176606640631E+05
 cg2d: Sum(rhs),rhsMax =  -1.01219365716711E+02  1.33234821194100E+00
(PID.TID 0000.0001)  ploadbar=  1.01176392897371E+05
 cg2d: Sum(rhs),rhsMax =  -1.01574600713232E+02  1.32796467583580E+00
(PID.TID 0000.0001)  ploadbar=  1.01176269949370E+05
 cg2d: Sum(rhs),rhsMax =  -1.02054224016201E+02  1.32203248433061E+00
(PID.TID 0000.0001)  ploadbar=  1.01176147001370E+05
 cg2d: Sum(rhs),rhsMax =  -1.02649883132062E+02  1.31470333195342E+00
(PID.TID 0000.0001)  ploadbar=  1.01176024053369E+05
 cg2d: Sum(rhs),rhsMax =  -1.03340320378909E+02  1.30629439424705E+00
(PID.TID 0000.0001)  ploadbar=  1.01175901105368E+05
 cg2d: Sum(rhs),rhsMax =  -1.04102723588865E+02  1.29713577874648E+00
(PID.TID 0000.0001)  ploadbar=  1.01175778157368E+05
 cg2d: Sum(rhs),rhsMax =  -1.04923992673316E+02  1.28742074329058E+00
(PID.TID 0000.0001)  ploadbar=  1.01175655209367E+05
 cg2d: Sum(rhs),rhsMax =  -1.05779019563836E+02  1.27745687596944E+00
(PID.TID 0000.0001)  ploadbar=  1.01175218792331E+05
 cg2d: Sum(rhs),rhsMax =  -1.06679363070529E+02  1.26712165910777E+00
(PID.TID 0000.0001)  ploadbar=  1.01174782375295E+05
 cg2d: Sum(rhs),rhsMax =  -1.07617842252414E+02  1.25652177837690E+00
(PID.TID 0000.0001)  ploadbar=  1.01174345958258E+05
 cg2d: Sum(rhs),rhsMax =  -1.08605498044670E+02  1.24554837109193E+00
(PID.TID 0000.0001)  ploadbar=  1.01173909541222E+05
 cg2d: Sum(rhs),rhsMax =  -1.09648464615599E+02  1.23415779120689E+00
(PID.TID 0000.0001)  ploadbar=  1.01173473124186E+05
 cg2d: Sum(rhs),rhsMax =  -1.10753967599687E+02  1.22229815774402E+00
(PID.TID 0000.0001)  ploadbar=  1.01173036707150E+05
 cg2d: Sum(rhs),rhsMax =  -1.11855409999599E+02  1.21071320324038E+00
(PID.TID 0000.0001)  ploadbar=  1.01172434636312E+05
 cg2d: Sum(rhs),rhsMax =  -1.12970024909299E+02  1.19921033224223E+00
(PID.TID 0000.0001)  ploadbar=  1.01171832565474E+05
 cg2d: Sum(rhs),rhsMax =  -1.12124449740235E+02  1.20869628786421E+00
(PID.TID 0000.0001)  ploadbar=  1.01171230494635E+05
 cg2d: Sum(rhs),rhsMax =  -1.09898853375949E+02  1.23362395276188E+00
(PID.TID 0000.0001)  ploadbar=  1.01170628423797E+05
 cg2d: Sum(rhs),rhsMax =  -1.07513545132804E+02  1.26145131453565E+00
(PID.TID 0000.0001)  ploadbar=  1.01170026352959E+05
 cg2d: Sum(rhs),rhsMax =  -1.04970633984161E+02  1.29247640691899E+00
(PID.TID 0000.0001)  ploadbar=  1.01169424282120E+05
 cg2d: Sum(rhs),rhsMax =  -1.02751781565918E+02  1.32083703243894E+00
(PID.TID 0000.0001)  ploadbar=  1.01168482885296E+05
 cg2d: Sum(rhs),rhsMax =  -1.00736866821045E+02  1.34768950066445E+00
(PID.TID 0000.0001)  ploadbar=  1.01167541488472E+05
 cg2d: Sum(rhs),rhsMax =  -9.89759662284238E+01  1.37208288770418E+00
(PID.TID 0000.0001)  ploadbar=  1.01166600091648E+05
 cg2d: Sum(rhs),rhsMax =  -9.74633153251452E+01  1.39377602707641E+00
(PID.TID 0000.0001)  ploadbar=  1.01165658694824E+05
 cg2d: Sum(rhs),rhsMax =  -9.61625563603679E+01  1.41300782625923E+00
(PID.TID 0000.0001)  ploadbar=  1.01164717298000E+05
 cg2d: Sum(rhs),rhsMax =  -9.50465166444350E+01  1.42995522832428E+00
(PID.TID 0000.0001)  ploadbar=  1.01163775901176E+05
 cg2d: Sum(rhs),rhsMax =  -9.43070466351424E+01  1.44154236122580E+00
(PID.TID 0000.0001)  ploadbar=  1.01162673587232E+05
 cg2d: Sum(rhs),rhsMax =  -9.37164326367208E+01  1.45102132480020E+00
(PID.TID 0000.0001)  ploadbar=  1.01161571273288E+05
 cg2d: Sum(rhs),rhsMax =  -9.32466402992936E+01  1.45874518243017E+00
(PID.TID 0000.0001)  ploadbar=  1.01160468959344E+05
 cg2d: Sum(rhs),rhsMax =  -9.29885383816737E+01  1.46322612900961E+00
(PID.TID 0000.0001)  ploadbar=  1.01159366645400E+05
 cg2d: Sum(rhs),rhsMax =  -9.29692078240659E+01  1.46397977742650E+00
(PID.TID 0000.0001)  ploadbar=  1.01158264331456E+05
 cg2d: Sum(rhs),rhsMax =  -9.32198440611532E+01  1.46050848778273E+00
(PID.TID 0000.0001)  ploadbar=  1.01157162017511E+05
 cg2d: Sum(rhs),rhsMax =  -9.37454489350620E+01  1.45280335957962E+00
(PID.TID 0000.0001)  ploadbar=  1.01155369734777E+05
 cg2d: Sum(rhs),rhsMax =  -9.46547856824429E+01  1.43934379286183E+00
(PID.TID 0000.0001)  ploadbar=  1.01153577452043E+05
 cg2d: Sum(rhs),rhsMax =  -9.55267311966982E+01  1.42671564032662E+00
(PID.TID 0000.0001)  ploadbar=  1.01151785169309E+05
 cg2d: Sum(rhs),rhsMax =  -9.63911446623705E+01  1.41444347741566E+00
(PID.TID 0000.0001)  ploadbar=  1.01149992886575E+05
 cg2d: Sum(rhs),rhsMax =  -9.71874288321550E+01  1.40338953116255E+00
(PID.TID 0000.0001)  ploadbar=  1.01148200603841E+05
 cg2d: Sum(rhs),rhsMax =  -9.78787841030967E+01  1.39402327400909E+00
(PID.TID 0000.0001)  ploadbar=  1.01146408321107E+05
 cg2d: Sum(rhs),rhsMax =  -9.84141952692650E+01  1.38697185252373E+00
(PID.TID 0000.0001)  ploadbar=  1.01145380892520E+05
 cg2d: Sum(rhs),rhsMax =  -9.88056572791227E+01  1.38199722456468E+00
(PID.TID 0000.0001)  ploadbar=  1.01144353463933E+05
 cg2d: Sum(rhs),rhsMax =  -9.90241066509062E+01  1.37945587319445E+00
(PID.TID 0000.0001)  ploadbar=  1.01143326035346E+05
 cg2d: Sum(rhs),rhsMax =  -9.92357751079371E+01  1.37700777131456E+00
(PID.TID 0000.0001)  ploadbar=  1.01142298606760E+05
 cg2d: Sum(rhs),rhsMax =  -9.95972711756780E+01  1.37248897272045E+00
(PID.TID 0000.0001)  ploadbar=  1.01141271178173E+05
 cg2d: Sum(rhs),rhsMax =  -1.00145435181178E+02  1.36544049129524E+00
(PID.TID 0000.0001)  ploadbar=  1.01140243749586E+05
 cg2d: Sum(rhs),rhsMax =  -1.00889076796372E+02  1.35581010363570E+00
(PID.TID 0000.0001)  ploadbar=  1.01139365022062E+05
 cg2d: Sum(rhs),rhsMax =  -1.01891467009017E+02  1.34287576083153E+00
(PID.TID 0000.0001)  ploadbar=  1.01138486294538E+05
 cg2d: Sum(rhs),rhsMax =  -1.03246534791464E+02  1.32562190251759E+00
(PID.TID 0000.0001)  ploadbar=  1.01137607567014E+05
 cg2d: Sum(rhs),rhsMax =  -1.04929748100900E+02  1.30469348997078E+00
(PID.TID 0000.0001)  ploadbar=  1.01136728839490E+05
 cg2d: Sum(rhs),rhsMax =  -1.06946973600058E+02  1.28038699882183E+00
(PID.TID 0000.0001)  ploadbar=  1.01135850111966E+05
 cg2d: Sum(rhs),rhsMax =  -1.09254740941433E+02  1.25360848320449E+00
(PID.TID 0000.0001)  ploadbar=  1.01134971384442E+05
 cg2d: Sum(rhs),rhsMax =  -1.11814842081305E+02  1.22517054717659E+00
(PID.TID 0000.0001)  ploadbar=  1.01134475751698E+05
 cg2d: Sum(rhs),rhsMax =  -1.14752147511192E+02  1.19407356085938E+00
(PID.TID 0000.0001)  ploadbar=  1.01133980118953E+05
 cg2d: Sum(rhs),rhsMax =  -1.18028293472967E+02  1.16118911696459E+00
(PID.TID 0000.0001)  ploadbar=  1.01133484486208E+05
 cg2d: Sum(rhs),rhsMax =  -1.21572156884587E+02  1.12759563625509E+00
(PID.TID 0000.0001)  ploadbar=  1.01132988853464E+05
 cg2d: Sum(rhs),rhsMax =  -1.25376841848381E+02  1.09362849959734E+00
(PID.TID 0000.0001)  ploadbar=  1.01132493220719E+05
 cg2d: Sum(rhs),rhsMax =  -1.29423912013696E+02  1.05967801125678E+00
(PID.TID 0000.0001)  ploadbar=  1.01131997587975E+05
 cg2d: Sum(rhs),rhsMax =  -1.33505837618894E+02  1.02752792476501E+00
(PID.TID 0000.0001)  ploadbar=  1.01132587970718E+05
 cg2d: Sum(rhs),rhsMax =  -1.35958506925256E+02  1.00924353217402E+00
(PID.TID 0000.0001)  ploadbar=  1.01133178353461E+05
 cg2d: Sum(rhs),rhsMax =  -1.36152968724613E+02  1.00806136127681E+00
(PID.TID 0000.0001)  ploadbar=  1.01133768736204E+05
 cg2d: Sum(rhs),rhsMax =  -1.36203448720306E+02  1.00795352416261E+00
(PID.TID 0000.0001)  ploadbar=  1.01134359118947E+05
 cg2d: Sum(rhs),rhsMax =  -1.36119200132474E+02  1.00884874044999E+00
(PID.TID 0000.0001)  ploadbar=  1.01134949501690E+05
 cg2d: Sum(rhs),rhsMax =  -1.35959629562001E+02  1.01030936673011E+00
(PID.TID 0000.0001)  ploadbar=  1.01135539884433E+05
 cg2d: Sum(rhs),rhsMax =  -1.35689333247765E+02  1.01258989283378E+00
(PID.TID 0000.0001)  ploadbar=  1.01135289585549E+05
 cg2d: Sum(rhs),rhsMax =  -1.35399716705206E+02  1.01501561142184E+00
(PID.TID 0000.0001)  ploadbar=  1.01135039286664E+05
 cg2d: Sum(rhs),rhsMax =  -1.35094432884014E+02  1.01755949535370E+00
(PID.TID 0000.0001)  ploadbar=  1.01134788987779E+05
 cg2d: Sum(rhs),rhsMax =  -1.34811726169482E+02  1.01993186976698E+00
(PID.TID 0000.0001)  ploadbar=  1.01134538688895E+05
 cg2d: Sum(rhs),rhsMax =  -1.34571211650840E+02  1.02197915354621E+00
(PID.TID 0000.0001)  ploadbar=  1.01134288390010E+05
 cg2d: Sum(rhs),rhsMax =  -1.34406953069641E+02  1.02343611929839E+00
(PID.TID 0000.0001)  ploadbar=  1.01134038091126E+05
 cg2d: Sum(rhs),rhsMax =  -1.34247329891303E+02  1.02484886926367E+00
(PID.TID 0000.0001)  ploadbar=  1.01133742719410E+05
 cg2d: Sum(rhs),rhsMax =  -1.34228532791106E+02  1.02517420437103E+00
(PID.TID 0000.0001)  ploadbar=  1.01133447347695E+05
 cg2d: Sum(rhs),rhsMax =  -1.34277034337837E+02  1.02497028914804E+00
(PID.TID 0000.0001)  ploadbar=  1.01133151975980E+05
 cg2d: Sum(rhs),rhsMax =  -1.34240596214424E+02  1.02539783133791E+00
(PID.TID 0000.0001)  ploadbar=  1.01132856604265E+05
 cg2d: Sum(rhs),rhsMax =  -1.34137756459550E+02  1.02631445521970E+00
(PID.TID 0000.0001)  ploadbar=  1.01132561232550E+05
 cg2d: Sum(rhs),rhsMax =  -1.34194943902847E+02  1.02598717453685E+00
(PID.TID 0000.0001)  ploadbar=  1.01132265860835E+05
 cg2d: Sum(rhs),rhsMax =  -1.34383706246477E+02  1.02468210298495E+00
(PID.TID 0000.0001)  ploadbar=  1.01132363408163E+05
 cg2d: Sum(rhs),rhsMax =  -1.34684204607060E+02  1.02255619259195E+00
(PID.TID 0000.0001)  ploadbar=  1.01132460955491E+05
 cg2d: Sum(rhs),rhsMax =  -1.35138357517551E+02  1.01930234195903E+00
(PID.TID 0000.0001)  ploadbar=  1.01132558502819E+05
 cg2d: Sum(rhs),rhsMax =  -1.35682173080878E+02  1.01542102852725E+00
(PID.TID 0000.0001)  ploadbar=  1.01132656050146E+05
 cg2d: Sum(rhs),rhsMax =  -1.34481923071493E+02  1.02471051088189E+00
(PID.TID 0000.0001)  ploadbar=  1.01132753597474E+05
 cg2d: Sum(rhs),rhsMax =  -1.33192656998330E+02  1.03487631173813E+00
(PID.TID 0000.0001)  ploadbar=  1.01132851144802E+05
 cg2d: Sum(rhs),rhsMax =  -1.32093455403861E+02  1.04374397893117E+00
(PID.TID 0000.0001)  ploadbar=  1.01132299186599E+05
 cg2d: Sum(rhs),rhsMax =  -1.31036238313802E+02  1.05242904956053E+00
(PID.TID 0000.0001)  ploadbar=  1.01131747228395E+05
 cg2d: Sum(rhs),rhsMax =  -1.30031222665752E+02  1.06083454107171E+00
(PID.TID 0000.0001)  ploadbar=  1.01131195270192E+05
 cg2d: Sum(rhs),rhsMax =  -1.29145463392045E+02  1.06838689210222E+00
(PID.TID 0000.0001)  ploadbar=  1.01130643311989E+05
 cg2d: Sum(rhs),rhsMax =  -1.28445162000364E+02  1.07449234774651E+00
(PID.TID 0000.0001)  ploadbar=  1.01130091353785E+05
 cg2d: Sum(rhs),rhsMax =  -1.28079745283559E+02  1.07784082923859E+00
(PID.TID 0000.0001)  ploadbar=  1.01129539395582E+05
 cg2d: Sum(rhs),rhsMax =  -1.27945631474320E+02  1.07924964815595E+00
(PID.TID 0000.0001)  ploadbar=  1.01129536080050E+05
 cg2d: Sum(rhs),rhsMax =  -1.27961387747231E+02  1.07938992946954E+00
(PID.TID 0000.0001)  ploadbar=  1.01129532764519E+05
 cg2d: Sum(rhs),rhsMax =  -1.28044335066583E+02  1.07895757091467E+00
(PID.TID 0000.0001)  ploadbar=  1.01129529448987E+05
 cg2d: Sum(rhs),rhsMax =  -1.28089201689757E+02  1.07883820751175E+00
(PID.TID 0000.0001)  ploadbar=  1.01129526133456E+05
 cg2d: Sum(rhs),rhsMax =  -1.28094109289322E+02  1.07904699029176E+00
(PID.TID 0000.0001)  ploadbar=  1.01129522817924E+05
 cg2d: Sum(rhs),rhsMax =  -1.28246070112761E+02  1.07800813006895E+00
(PID.TID 0000.0001)  ploadbar=  1.01129519502393E+05
 cg2d: Sum(rhs),rhsMax =  -1.28586702574649E+02  1.07537472356233E+00
(PID.TID 0000.0001)  ploadbar=  1.01129214570220E+05
 cg2d: Sum(rhs),rhsMax =  -1.29117121027511E+02  1.07116233424681E+00
(PID.TID 0000.0001)  ploadbar=  1.01128909638047E+05
 cg2d: Sum(rhs),rhsMax =  -1.28771880138438E+02  1.07422316097654E+00
(PID.TID 0000.0001)  ploadbar=  1.01128604705875E+05
 cg2d: Sum(rhs),rhsMax =  -1.28239352562558E+02  1.07885583342991E+00
(PID.TID 0000.0001)  ploadbar=  1.01128299773702E+05
 cg2d: Sum(rhs),rhsMax =  -1.27082106481325E+02  1.08883524217249E+00
(PID.TID 0000.0001)  ploadbar=  1.01127994841529E+05
 cg2d: Sum(rhs),rhsMax =  -1.25976648608941E+02  1.09852659831076E+00
(PID.TID 0000.0001)  ploadbar=  1.01127689909357E+05
 cg2d: Sum(rhs),rhsMax =  -1.24988127092484E+02  1.10738991995860E+00
(PID.TID 0000.0001)  ploadbar=  1.01127765027032E+05
 cg2d: Sum(rhs),rhsMax =  -1.24286061309684E+02  1.11385619135041E+00
(PID.TID 0000.0001)  ploadbar=  1.01127840144708E+05
 cg2d: Sum(rhs),rhsMax =  -1.23863445296003E+02  1.11790172847568E+00
(PID.TID 0000.0001)  ploadbar=  1.01127915262383E+05
 cg2d: Sum(rhs),rhsMax =  -1.23381053139166E+02  1.12255082039963E+00
(PID.TID 0000.0001)  ploadbar=  1.01127990380058E+05
 cg2d: Sum(rhs),rhsMax =  -1.22568074254718E+02  1.13030621965699E+00
(PID.TID 0000.0001)  ploadbar=  1.01128065497734E+05
 cg2d: Sum(rhs),rhsMax =  -1.21441815960402E+02  1.14112699350971E+00
(PID.TID 0000.0001)  ploadbar=  1.01128140615409E+05
 cg2d: Sum(rhs),rhsMax =  -1.20406271085973E+02  1.15129064348895E+00
(PID.TID 0000.0001)  ploadbar=  1.01128133101405E+05
 cg2d: Sum(rhs),rhsMax =  -1.19504967675624E+02  1.16033347498454E+00
(PID.TID 0000.0001)  ploadbar=  1.01128125587401E+05
 cg2d: Sum(rhs),rhsMax =  -1.18894176986498E+02  1.16666147460811E+00
(PID.TID 0000.0001)  ploadbar=  1.01128118073396E+05
 cg2d: Sum(rhs),rhsMax =  -1.18502273001388E+02  1.17089150026186E+00
(PID.TID 0000.0001)  ploadbar=  1.01128110559392E+05
 cg2d: Sum(rhs),rhsMax =  -1.18149865708695E+02  1.17475779467847E+00
(PID.TID 0000.0001)  ploadbar=  1.01128103045388E+05
 cg2d: Sum(rhs),rhsMax =  -1.17678464991689E+02  1.17983808764750E+00
(PID.TID 0000.0001)  ploadbar=  1.01128095531383E+05
 cg2d: Sum(rhs),rhsMax =  -1.17158072538382E+02  1.18544829208215E+00
(PID.TID 0000.0001)  ploadbar=  1.01128168838529E+05
 cg2d: Sum(rhs),rhsMax =  -1.16637084289475E+02  1.19110890754955E+00
(PID.TID 0000.0001)  ploadbar=  1.01128242145676E+05
 cg2d: Sum(rhs),rhsMax =  -1.16232216776874E+02  1.19561784554080E+00
(PID.TID 0000.0001)  ploadbar=  1.01128315452822E+05
 cg2d: Sum(rhs),rhsMax =  -1.15923888551250E+02  1.19915015578042E+00
(PID.TID 0000.0001)  ploadbar=  1.01128388759968E+05
 cg2d: Sum(rhs),rhsMax =  -1.15693173134865E+02  1.20188378573535E+00
(PID.TID 0000.0001)  ploadbar=  1.01128462067114E+05
 cg2d: Sum(rhs),rhsMax =  -1.15533890075656E+02  1.20387121032185E+00
(PID.TID 0000.0001)  ploadbar=  1.01128535374261E+05
 cg2d: Sum(rhs),rhsMax =  -1.15474667260228E+02  1.20479638194602E+00
(PID.TID 0000.0001)  ploadbar=  1.01128297275685E+05
 cg2d: Sum(rhs),rhsMax =  -1.15487005057058E+02  1.20495238694871E+00
(PID.TID 0000.0001)  ploadbar=  1.01128059177110E+05
 cg2d: Sum(rhs),rhsMax =  -1.15501695556808E+02  1.20505951957314E+00
(PID.TID 0000.0001)  ploadbar=  1.01127821078534E+05
 cg2d: Sum(rhs),rhsMax =  -1.15531598889613E+02  1.20498516269068E+00
(PID.TID 0000.0001)  ploadbar=  1.01127582979958E+05
 cg2d: Sum(rhs),rhsMax =  -1.15590416886244E+02  1.20458616904508E+00
(PID.TID 0000.0001)  ploadbar=  1.01127344881383E+05
 cg2d: Sum(rhs),rhsMax =  -1.15671133823179E+02  1.20393327236919E+00
(PID.TID 0000.0001)  ploadbar=  1.01127106782807E+05
 cg2d: Sum(rhs),rhsMax =  -1.15770625909646E+02  1.20310751689880E+00
(PID.TID 0000.0001)  ploadbar=  1.01126666124598E+05
 cg2d: Sum(rhs),rhsMax =  -1.15920239141430E+02  1.20178338027396E+00
(PID.TID 0000.0001)  ploadbar=  1.01126225466388E+05
 cg2d: Sum(rhs),rhsMax =  -1.16102916362988E+02  1.20014035384959E+00
(PID.TID 0000.0001)  ploadbar=  1.01125784808178E+05
 cg2d: Sum(rhs),rhsMax =  -1.16320750055157E+02  1.19816113880860E+00
(PID.TID 0000.0001)  ploadbar=  1.01125344149969E+05
 cg2d: Sum(rhs),rhsMax =  -1.16562529657679E+02  1.19596370335005E+00
(PID.TID 0000.0001)  ploadbar=  1.01124903491759E+05
 cg2d: Sum(rhs),rhsMax =  -1.16827580688769E+02  1.19355632193787E+00
(PID.TID 0000.0001)  ploadbar=  1.01124462833550E+05
 cg2d: Sum(rhs),rhsMax =  -1.17081096414470E+02  1.19127358438973E+00
(PID.TID 0000.0001)  ploadbar=  1.01123684668826E+05
 cg2d: Sum(rhs),rhsMax =  -1.17346616304293E+02  1.18887290498206E+00
(PID.TID 0000.0001)  ploadbar=  1.01122906504103E+05
 cg2d: Sum(rhs),rhsMax =  -1.17633525318733E+02  1.18626053839261E+00
(PID.TID 0000.0001)  ploadbar=  1.01122128339380E+05
 cg2d: Sum(rhs),rhsMax =  -1.17919728827215E+02  1.18366108178739E+00
(PID.TID 0000.0001)  ploadbar=  1.01121350174657E+05
 cg2d: Sum(rhs),rhsMax =  -1.18196160404457E+02  1.18116482858481E+00
(PID.TID 0000.0001)  ploadbar=  1.01120572009934E+05
 cg2d: Sum(rhs),rhsMax =  -1.18451622140241E+02  1.17888093436696E+00
(PID.TID 0000.0001)  ploadbar=  1.01119793845210E+05
 cg2d: Sum(rhs),rhsMax =  -1.18776042307667E+02  1.17593082988345E+00
(PID.TID 0000.0001)  ploadbar=  1.01119781424811E+05
 cg2d: Sum(rhs),rhsMax =  -1.19113048801990E+02  1.17287772700840E+00
(PID.TID 0000.0001)  ploadbar=  1.01119769004412E+05
 cg2d: Sum(rhs),rhsMax =  -1.19433184903357E+02  1.17001208684798E+00
(PID.TID 0000.0001)  ploadbar=  1.01119756584013E+05
 cg2d: Sum(rhs),rhsMax =  -1.19750411879500E+02  1.16719431632850E+00
(PID.TID 0000.0001)  ploadbar=  1.01119744163613E+05
 cg2d: Sum(rhs),rhsMax =  -1.20070373511536E+02  1.16436891401736E+00
(PID.TID 0000.0001)  ploadbar=  1.01119731743214E+05
 cg2d: Sum(rhs),rhsMax =  -1.20394670845038E+02  1.16152009892330E+00
(PID.TID 0000.0001)  ploadbar=  1.01119719322815E+05
 cg2d: Sum(rhs),rhsMax =  -1.20656710334288E+02  1.15925677271972E+00
(PID.TID 0000.0001)  ploadbar=  1.01118162186424E+05
 cg2d: Sum(rhs),rhsMax =  -1.20949742453784E+02  1.15667852415664E+00
(PID.TID 0000.0001)  ploadbar=  1.01116605050032E+05
 cg2d: Sum(rhs),rhsMax =  -1.21248366904113E+02  1.15403136887881E+00
(PID.TID 0000.0001)  ploadbar=  1.01115047913641E+05
 cg2d: Sum(rhs),rhsMax =  -1.21561529979951E+02  1.15123091140692E+00
(PID.TID 0000.0001)  ploadbar=  1.01113490777249E+05
 cg2d: Sum(rhs),rhsMax =  -1.21905669946858E+02  1.14812450872955E+00
(PID.TID 0000.0001)  ploadbar=  1.01111933640858E+05
 cg2d: Sum(rhs),rhsMax =  -1.22273358491322E+02  1.14478626941502E+00
(PID.TID 0000.0001)  ploadbar=  1.01110376504466E+05
 cg2d: Sum(rhs),rhsMax =  -1.22641744291947E+02  1.14148611110164E+00
(PID.TID 0000.0001)  ploadbar=  1.01109610311183E+05
 cg2d: Sum(rhs),rhsMax =  -1.23047936629032E+02  1.13787924510746E+00
(PID.TID 0000.0001)  ploadbar=  1.01108844117899E+05
 cg2d: Sum(rhs),rhsMax =  -1.23484284804028E+02  1.13404227606661E+00
(PID.TID 0000.0001)  ploadbar=  1.01108077924615E+05
 cg2d: Sum(rhs),rhsMax =  -1.23934128532368E+02  1.13013155218641E+00
(PID.TID 0000.0001)  ploadbar=  1.01107311731331E+05
 cg2d: Sum(rhs),rhsMax =  -1.24405353435240E+02  1.12607847429398E+00
(PID.TID 0000.0001)  ploadbar=  1.01106545538047E+05
 cg2d: Sum(rhs),rhsMax =  -1.24915605708022E+02  1.12172752686155E+00
(PID.TID 0000.0001)  ploadbar=  1.01105779344763E+05
 cg2d: Sum(rhs),rhsMax =  -1.25273566261472E+02  1.11878424111226E+00
(PID.TID 0000.0001)  ploadbar=  1.01105302846080E+05
 cg2d: Sum(rhs),rhsMax =  -1.25653323226884E+02  1.11567657266726E+00
(PID.TID 0000.0001)  ploadbar=  1.01104826347396E+05
 cg2d: Sum(rhs),rhsMax =  -1.26059016854108E+02  1.11236953423955E+00
(PID.TID 0000.0001)  ploadbar=  1.01104349848713E+05
 cg2d: Sum(rhs),rhsMax =  -1.26446674991968E+02  1.10925134119139E+00
(PID.TID 0000.0001)  ploadbar=  1.01103873350030E+05
 cg2d: Sum(rhs),rhsMax =  -1.26800932760736E+02  1.10645244139322E+00
(PID.TID 0000.0001)  ploadbar=  1.01103396851347E+05
 cg2d: Sum(rhs),rhsMax =  -1.27113597059696E+02  1.10403997981111E+00
(PID.TID 0000.0001)  ploadbar=  1.01102920352664E+05
 cg2d: Sum(rhs),rhsMax =  -1.27372250710427E+02  1.10210105812790E+00
(PID.TID 0000.0001)  ploadbar=  1.01102096366065E+05
 cg2d: Sum(rhs),rhsMax =  -1.27538256923510E+02  1.10096405255596E+00
(PID.TID 0000.0001)  ploadbar=  1.01101272379466E+05
 cg2d: Sum(rhs),rhsMax =  -1.27691959940860E+02  1.09993156762820E+00
(PID.TID 0000.0001)  ploadbar=  1.01100448392866E+05
 cg2d: Sum(rhs),rhsMax =  -1.27836866807625E+02  1.09897203359731E+00
(PID.TID 0000.0001)  ploadbar=  1.01099624406267E+05
 cg2d: Sum(rhs),rhsMax =  -1.27976359770451E+02  1.09805485462013E+00
(PID.TID 0000.0001)  ploadbar=  1.01098800419668E+05
 cg2d: Sum(rhs),rhsMax =  -1.28118960564995E+02  1.09710514875672E+00
(PID.TID 0000.0001)  ploadbar=  1.01097976433069E+05
 cg2d: Sum(rhs),rhsMax =  -1.28309630622247E+02  1.09573758966533E+00
(PID.TID 0000.0001)  ploadbar=  1.01097804362096E+05
 cg2d: Sum(rhs),rhsMax =  -1.28458254109725E+02  1.09472315969656E+00
(PID.TID 0000.0001)  ploadbar=  1.01097632291123E+05
 cg2d: Sum(rhs),rhsMax =  -1.28568941443730E+02  1.09402376014859E+00
(PID.TID 0000.0001)  ploadbar=  1.01097460220150E+05
 cg2d: Sum(rhs),rhsMax =  -1.28654797345669E+02  1.09352680551851E+00
(PID.TID 0000.0001)  ploadbar=  1.01097288149177E+05
 cg2d: Sum(rhs),rhsMax =  -1.28708127501012E+02  1.09329629240202E+00
(PID.TID 0000.0001)  ploadbar=  1.01097116078204E+05
 cg2d: Sum(rhs),rhsMax =  -1.28734916865903E+02  1.09328010981942E+00
(PID.TID 0000.0001)  ploadbar=  1.01096944007231E+05
 cg2d: Sum(rhs),rhsMax =  -1.28778083071830E+02  1.09315538977789E+00
(PID.TID 0000.0001)  ploadbar=  1.01098075457411E+05
 cg2d: Sum(rhs),rhsMax =  -1.28818249241016E+02  1.09308467684805E+00
(PID.TID 0000.0001)  ploadbar=  1.01099206907591E+05
 cg2d: Sum(rhs),rhsMax =  -1.28882274000625E+02  1.09283933897486E+00
(PID.TID 0000.0001)  ploadbar=  1.01100338357771E+05
 cg2d: Sum(rhs),rhsMax =  -1.28986456907133E+02  1.09228110800879E+00
(PID.TID 0000.0001)  ploadbar=  1.01101469807951E+05
 cg2d: Sum(rhs),rhsMax =  -1.29125475346096E+02  1.09145579033112E+00
(PID.TID 0000.0001)  ploadbar=  1.01102601258130E+05
 cg2d: Sum(rhs),rhsMax =  -1.29302850302151E+02  1.09033421828192E+00
(PID.TID 0000.0001)  ploadbar=  1.01103732708310E+05
 cg2d: Sum(rhs),rhsMax =  -1.29575528639705E+02  1.08841353985657E+00
(PID.TID 0000.0001)  ploadbar=  1.01104333407014E+05
 cg2d: Sum(rhs),rhsMax =  -1.29836391870604E+02  1.08659713265029E+00
(PID.TID 0000.0001)  ploadbar=  1.01104934105718E+05
 cg2d: Sum(rhs),rhsMax =  -1.30080648677056E+02  1.08492386134685E+00
(PID.TID 0000.0001)  ploadbar=  1.01105534804422E+05
 cg2d: Sum(rhs),rhsMax =  -1.30304312616124E+02  1.08342557235454E+00
(PID.TID 0000.0001)  ploadbar=  1.01106135503125E+05
 cg2d: Sum(rhs),rhsMax =  -1.30508297434483E+02  1.08209213015354E+00
(PID.TID 0000.0001)  ploadbar=  1.01106736201829E+05
 cg2d: Sum(rhs),rhsMax =  -1.30697038633067E+02  1.08088476591577E+00
(PID.TID 0000.0001)  ploadbar=  1.01107336900533E+05
 cg2d: Sum(rhs),rhsMax =  -1.30968550032450E+02  1.07898717817500E+00
(PID.TID 0000.0001)  ploadbar=  1.01107689395959E+05
 cg2d: Sum(rhs),rhsMax =  -1.31254848240799E+02  1.07696442351716E+00
(PID.TID 0000.0001)  ploadbar=  1.01108041891385E+05
 cg2d: Sum(rhs),rhsMax =  -1.31513880608216E+02  1.07516078499264E+00
(PID.TID 0000.0001)  ploadbar=  1.01108394386810E+05
 cg2d: Sum(rhs),rhsMax =  -1.31753073734530E+02  1.07351338856763E+00
(PID.TID 0000.0001)  ploadbar=  1.01108746882236E+05
 cg2d: Sum(rhs),rhsMax =  -1.31998037115955E+02  1.07181180347947E+00
(PID.TID 0000.0001)  ploadbar=  1.01109099377662E+05
 cg2d: Sum(rhs),rhsMax =  -1.32250160961247E+02  1.07004391365433E+00
(PID.TID 0000.0001)  ploadbar=  1.01109451873087E+05
 cg2d: Sum(rhs),rhsMax =  -1.32466132465506E+02  1.06856237439136E+00
(PID.TID 0000.0001)  ploadbar=  1.01110313077524E+05
 cg2d: Sum(rhs),rhsMax =  -1.32718116445506E+02  1.06678326731314E+00
(PID.TID 0000.0001)  ploadbar=  1.01111174281961E+05
 cg2d: Sum(rhs),rhsMax =  -1.32952269923530E+02  1.06514137109667E+00
(PID.TID 0000.0001)  ploadbar=  1.01112035486398E+05
 cg2d: Sum(rhs),rhsMax =  -1.33175885323184E+02  1.06357587081212E+00
(PID.TID 0000.0001)  ploadbar=  1.01112896690835E+05
 cg2d: Sum(rhs),rhsMax =  -1.33411793594138E+02  1.06190220983484E+00
(PID.TID 0000.0001)  ploadbar=  1.01113757895271E+05
 cg2d: Sum(rhs),rhsMax =  -1.33642532180089E+02  1.06025773762986E+00
(PID.TID 0000.0001)  ploadbar=  1.01114619099708E+05
 cg2d: Sum(rhs),rhsMax =  -1.33810150714524E+02  1.05913551052781E+00
(PID.TID 0000.0001)  ploadbar=  1.01114739719212E+05
 cg2d: Sum(rhs),rhsMax =  -1.33998473497205E+02  1.05786960379383E+00
(PID.TID 0000.0001)  ploadbar=  1.01114860338716E+05
 cg2d: Sum(rhs),rhsMax =  -1.34146220250010E+02  1.05694160526820E+00
(PID.TID 0000.0001)  ploadbar=  1.01114980958220E+05
 cg2d: Sum(rhs),rhsMax =  -1.33846744552876E+02  1.05955816664239E+00
(PID.TID 0000.0001)  ploadbar=  1.01115101577724E+05
 cg2d: Sum(rhs),rhsMax =  -1.33705037845727E+02  1.06094614344343E+00
(PID.TID 0000.0001)  ploadbar=  1.01115222197228E+05
 cg2d: Sum(rhs),rhsMax =  -1.33375902816726E+02  1.06384390907209E+00
(PID.TID 0000.0001)  ploadbar=  1.01115342816732E+05
 cg2d: Sum(rhs),rhsMax =  -1.33043232030540E+02  1.06677564556812E+00
(PID.TID 0000.0001)  ploadbar=  1.01116861453399E+05
 cg2d: Sum(rhs),rhsMax =  -1.32700309185537E+02  1.06979371452753E+00
(PID.TID 0000.0001)  ploadbar=  1.01118380090065E+05
 cg2d: Sum(rhs),rhsMax =  -1.32327753233862E+02  1.07305535859549E+00
(PID.TID 0000.0001)  ploadbar=  1.01119898726732E+05
 cg2d: Sum(rhs),rhsMax =  -1.31940545523072E+02  1.07644136746050E+00
(PID.TID 0000.0001)  ploadbar=  1.01121417363398E+05
 cg2d: Sum(rhs),rhsMax =  -1.31560547641936E+02  1.07977171563392E+00
(PID.TID 0000.0001)  ploadbar=  1.01122936000064E+05
 cg2d: Sum(rhs),rhsMax =  -1.31190393836637E+02  1.08302168632898E+00
(PID.TID 0000.0001)  ploadbar=  1.01124454636731E+05
 cg2d: Sum(rhs),rhsMax =  -1.30774415738632E+02  1.08667881775218E+00
(PID.TID 0000.0001)  ploadbar=  1.01124965374833E+05
 cg2d: Sum(rhs),rhsMax =  -1.30326441052930E+02  1.09063222994515E+00
(PID.TID 0000.0001)  ploadbar=  1.01125476112934E+05
 cg2d: Sum(rhs),rhsMax =  -1.29692424615624E+02  1.09618782946750E+00
(PID.TID 0000.0001)  ploadbar=  1.01125986851036E+05
 cg2d: Sum(rhs),rhsMax =  -1.24252233799668E+02  1.14442093882173E+00
(PID.TID 0000.0001)  ploadbar=  1.01126497589138E+05
 cg2d: Sum(rhs),rhsMax =  -1.19040673119882E+02  1.19477590313701E+00
(PID.TID 0000.0001)  ploadbar=  1.01127008327240E+05
 cg2d: Sum(rhs),rhsMax =  -1.13859942715902E+02  1.24940464689389E+00
(PID.TID 0000.0001)  ploadbar=  1.01127519065342E+05
 cg2d: Sum(rhs),rhsMax =  -1.09407263528969E+02  1.30051355501496E+00
(PID.TID 0000.0001)  ploadbar=  1.01128300688594E+05
 cg2d: Sum(rhs),rhsMax =  -1.05767141881546E+02  1.34552352191194E+00
(PID.TID 0000.0001)  ploadbar=  1.01129082311846E+05
 cg2d: Sum(rhs),rhsMax =  -1.02966017752597E+02  1.38236591048000E+00
(PID.TID 0000.0001)  ploadbar=  1.01129863935098E+05
 cg2d: Sum(rhs),rhsMax =  -1.00946471572165E+02  1.41024447620200E+00
(PID.TID 0000.0001)  ploadbar=  1.01130645558349E+05
 cg2d: Sum(rhs),rhsMax =  -9.96058380872001E+01  1.42942802792294E+00
(PID.TID 0000.0001)  ploadbar=  1.01131427181601E+05
 cg2d: Sum(rhs),rhsMax =  -9.88348308015661E+01  1.44075840828007E+00
(PID.TID 0000.0001)  ploadbar=  1.01132208804853E+05
 cg2d: Sum(rhs),rhsMax =  -9.84377274684751E+01  1.44678890126280E+00
(PID.TID 0000.0001)  ploadbar=  1.01132182170362E+05
 cg2d: Sum(rhs),rhsMax =  -9.82086187663812E+01  1.45041953201908E+00
(PID.TID 0000.0001)  ploadbar=  1.01132155535871E+05
 cg2d: Sum(rhs),rhsMax =  -9.80835204800734E+01  1.45255966388954E+00
(PID.TID 0000.0001)  ploadbar=  1.01132128901380E+05
 cg2d: Sum(rhs),rhsMax =  -9.80911352440824E+01  1.45277046166574E+00
(PID.TID 0000.0001)  ploadbar=  1.01132102266889E+05
 cg2d: Sum(rhs),rhsMax =  -9.82708474371083E+01  1.45047109587547E+00
(PID.TID 0000.0001)  ploadbar=  1.01132075632398E+05
 cg2d: Sum(rhs),rhsMax =  -9.86292197631753E+01  1.44559183022582E+00
(PID.TID 0000.0001)  ploadbar=  1.01132048997907E+05
 cg2d: Sum(rhs),rhsMax =  -9.88552135553031E+01  1.44268195136624E+00
(PID.TID 0000.0001)  ploadbar=  1.01131997698612E+05
 cg2d: Sum(rhs),rhsMax =  -9.90165296974513E+01  1.44073117409580E+00
(PID.TID 0000.0001)      cg2d_init_res =   2.65755966758006E-01
(PID.TID 0000.0001)      cg2d_iters(min,last) =      -1     141
(PID.TID 0000.0001)      cg2d_last_res =   9.98292913459199E-08
(PID.TID 0000.0001) // =======================================================
(PID.TID 0000.0001) // Begin MONITOR dynamic field statistics
(PID.TID 0000.0001) // =======================================================
(PID.TID 0000.0001) %MON time_tsnumber                =                  5256
(PID.TID 0000.0001) %MON time_secondsf                =   1.8921600000000E+07
(PID.TID 0000.0001) %MON dynstat_eta_max              =   1.2822639051193E+00
(PID.TID 0000.0001) %MON dynstat_eta_min              =  -5.1013065262099E+00
(PID.TID 0000.0001) %MON dynstat_eta_mean             =   7.2202740064366E-02
(PID.TID 0000.0001) %MON dynstat_eta_sd               =   7.0447475316664E-01
(PID.TID 0000.0001) %MON dynstat_eta_del2             =   2.3218286276416E-04
(PID.TID 0000.0001) %MON dynstat_uvel_max             =   1.1075841113092E+00
(PID.TID 0000.0001) %MON dynstat_uvel_min             =  -6.3813830154666E-01
(PID.TID 0000.0001) %MON dynstat_uvel_mean            =   1.4411278626436E-03
(PID.TID 0000.0001) %MON dynstat_uvel_sd              =   2.0220071158859E-02
(PID.TID 0000.0001) %MON dynstat_uvel_del2            =   9.0824534725480E-06
(PID.TID 0000.0001) %MON dynstat_vvel_max             =   1.0943681361747E+00
(PID.TID 0000.0001) %MON dynstat_vvel_min             =  -1.0664375332943E+00
(PID.TID 0000.0001) %MON dynstat_vvel_mean            =   1.2380432172860E-03
(PID.TID 0000.0001) %MON dynstat_vvel_sd              =   2.2220461863227E-02
(PID.TID 0000.0001) %MON dynstat_vvel_del2            =   9.5843329084612E-06
(PID.TID 0000.0001) %MON dynstat_wvel_max             =   3.6070141369034E-04
(PID.TID 0000.0001) %MON dynstat_wvel_min             =  -8.4290588253802E-04
(PID.TID 0000.0001) %MON dynstat_wvel_mean            =   3.1606011512587E-09
(PID.TID 0000.0001) %MON dynstat_wvel_sd              =   2.2424850890891E-05
(PID.TID 0000.0001) %MON dynstat_wvel_del2            =   1.5664939363261E-08
(PID.TID 0000.0001) %MON dynstat_theta_max            =   3.3562227654075E+01
(PID.TID 0000.0001) %MON dynstat_theta_min            =  -2.1633866020341E+00
(PID.TID 0000.0001) %MON dynstat_theta_mean           =   3.5774349753279E+00
(PID.TID 0000.0001) %MON dynstat_theta_sd             =   4.4206567366162E+00
(PID.TID 0000.0001) %MON dynstat_theta_del2           =   9.5399070727783E-05
(PID.TID 0000.0001) %MON dynstat_salt_max             =   4.0641657103804E+01
(PID.TID 0000.0001) %MON dynstat_salt_min             =   2.0088529930112E+01
(PID.TID 0000.0001) %MON dynstat_salt_mean            =   3.4726983961232E+01
(PID.TID 0000.0001) %MON dynstat_salt_sd              =   3.8002844166770E-01
(PID.TID 0000.0001) %MON dynstat_salt_del2            =   2.0048534687704E-05
(PID.TID 0000.0001) %MON dynstat_sst_max              =   3.3562227654075E+01
(PID.TID 0000.0001) %MON dynstat_sst_min              =  -1.9602475734900E+00
(PID.TID 0000.0001) %MON dynstat_sst_mean             =   1.8153477023715E+01
(PID.TID 0000.0001) %MON dynstat_sst_sd               =   1.0168781055339E+01
(PID.TID 0000.0001) %MON dynstat_sst_del2             =   6.8586658173001E-04
(PID.TID 0000.0001) %MON dynstat_sss_max              =   3.9675935087368E+01
(PID.TID 0000.0001) %MON dynstat_sss_min              =   2.0088529930112E+01
(PID.TID 0000.0001) %MON dynstat_sss_mean             =   3.4693098671444E+01
(PID.TID 0000.0001) %MON dynstat_sss_sd               =   1.3280373252495E+00
(PID.TID 0000.0001) %MON dynstat_sss_del2             =   3.3366769077949E-04
(PID.TID 0000.0001) %MON forcing_qnet_max             =   6.7573486706339E+02
(PID.TID 0000.0001) %MON forcing_qnet_min             =  -5.6922140586918E+02
(PID.TID 0000.0001) %MON forcing_qnet_mean            =   4.4389001860399E+01
(PID.TID 0000.0001) %MON forcing_qnet_sd              =   1.5533316535272E+02
(PID.TID 0000.0001) %MON forcing_qnet_del2            =   9.9835373860730E-02
(PID.TID 0000.0001) %MON forcing_qsw_max              =   4.8571008715674E+01
(PID.TID 0000.0001) %MON forcing_qsw_min              =  -6.7510702867674E+02
(PID.TID 0000.0001) %MON forcing_qsw_mean             =  -1.1979306930495E+02
(PID.TID 0000.0001) %MON forcing_qsw_sd               =   1.4259845596815E+02
(PID.TID 0000.0001) %MON forcing_qsw_del2             =   4.3513415588399E-02
(PID.TID 0000.0001) %MON forcing_empmr_max            =   1.8349727060597E-03
(PID.TID 0000.0001) %MON forcing_empmr_min            =  -1.9621896731465E-03
(PID.TID 0000.0001) %MON forcing_empmr_mean           =  -5.7243685120293E-06
(PID.TID 0000.0001) %MON forcing_empmr_sd             =   1.0440775427908E-04
(PID.TID 0000.0001) %MON forcing_empmr_del2           =   3.0303450872415E-07
(PID.TID 0000.0001) %MON forcing_fu_max               =   1.0505701768996E+00
(PID.TID 0000.0001) %MON forcing_fu_min               =  -1.3289127215816E+00
(PID.TID 0000.0001) %MON forcing_fu_mean              =   1.7631271307644E-02
(PID.TID 0000.0001) %MON forcing_fu_sd                =   1.3915700806938E-01
(PID.TID 0000.0001) %MON forcing_fu_del2              =   7.5769921867082E-05
(PID.TID 0000.0001) %MON forcing_fv_max               =   6.5495472649733E-01
(PID.TID 0000.0001) %MON forcing_fv_min               =  -7.1993692715963E-01
(PID.TID 0000.0001) %MON forcing_fv_mean              =   1.0407614422761E-02
(PID.TID 0000.0001) %MON forcing_fv_sd                =   1.1614680255895E-01
(PID.TID 0000.0001) %MON forcing_fv_del2              =   6.6257107811482E-05
(PID.TID 0000.0001) %MON trAdv_CFL_u_max              =   6.2002122624043E-02
(PID.TID 0000.0001) %MON trAdv_CFL_v_max              =   8.0437513929836E-02
(PID.TID 0000.0001) %MON trAdv_CFL_w_max              =   1.0789290594575E-01
(PID.TID 0000.0001) %MON advcfl_uvel_max              =   5.5230933207048E-02
(PID.TID 0000.0001) %MON advcfl_vvel_max              =   8.5801793095782E-02
(PID.TID 0000.0001) %MON advcfl_wvel_max              =   1.0482387180914E-01
(PID.TID 0000.0001) %MON advcfl_W_hf_max              =   1.0803078811608E-01
(PID.TID 0000.0001) %MON pe_b_mean                    =   2.3642055905894E-03
(PID.TID 0000.0001) %MON ke_max                       =   9.3596917035954E-01
(PID.TID 0000.0001) %MON ke_mean                      =   4.3697292526336E-04
(PID.TID 0000.0001) %MON ke_vol                       =   1.3350237193511E+18
(PID.TID 0000.0001) %MON vort_r_min                   =  -2.9085758633783E-05
(PID.TID 0000.0001) %MON vort_r_max                   =   2.7968980819755E-05
(PID.TID 0000.0001) %MON vort_a_mean                  =  -1.9727864647440E-05
(PID.TID 0000.0001) %MON vort_a_sd                    =   7.4543126193320E-05
(PID.TID 0000.0001) %MON vort_p_mean                  =  -2.1760098441244E-05
(PID.TID 0000.0001) %MON vort_p_sd                    =   9.7243514169555E-05
(PID.TID 0000.0001) %MON surfExpan_theta_mean         =   1.2217502210229E-07
(PID.TID 0000.0001) %MON surfExpan_salt_mean          =   4.6838681919602E-08
(PID.TID 0000.0001) // =======================================================
(PID.TID 0000.0001) // End MONITOR dynamic field statistics
(PID.TID 0000.0001) // =======================================================
(PID.TID 0000.0001)  ploadbar=  1.01131946399317E+05
(PID.TID 0000.0001) %SBO sbo_mass                     =   1.3737590760833E+21
(PID.TID 0000.0001) %SBO sbo_mass_fw                  =   4.6260712798526E+16
(PID.TID 0000.0001) %SBO sbo_zoamc                    =   1.2470479487869E+25
(PID.TID 0000.0001) %SBO sbo_zoamp                    =   2.9276623151562E+30
(PID.TID 0000.0001) // =======================================================
(PID.TID 0000.0001) // Begin MONITOR SEAICE statistics
(PID.TID 0000.0001) // =======================================================
(PID.TID 0000.0001) %MON seaice_tsnumber              =                  5256
(PID.TID 0000.0001) %MON seaice_time_sec              =   1.8921600000000E+07
(PID.TID 0000.0001) %MON seaice_uice_max              =   4.0000000000000E-01
(PID.TID 0000.0001) %MON seaice_uice_min              =  -4.0000000000000E-01
(PID.TID 0000.0001) %MON seaice_uice_mean             =   1.1630326494919E-02
(PID.TID 0000.0001) %MON seaice_uice_sd               =   1.8545922438348E-01
(PID.TID 0000.0001) %MON seaice_uice_del2             =   1.4275914191374E-04
(PID.TID 0000.0001) %MON seaice_vice_max              =   4.0000000000000E-01
(PID.TID 0000.0001) %MON seaice_vice_min              =  -4.0000000000000E-01
(PID.TID 0000.0001) %MON seaice_vice_mean             =   4.2774911235631E-03
(PID.TID 0000.0001) %MON seaice_vice_sd               =   1.8831551015443E-01
(PID.TID 0000.0001) %MON seaice_vice_del2             =   1.4757784195016E-04
(PID.TID 0000.0001) %MON seaice_area_max              =   9.7000000000000E-01
(PID.TID 0000.0001) %MON seaice_area_min              =   0.0000000000000E+00
(PID.TID 0000.0001) %MON seaice_area_mean             =   6.1777978512715E-02
(PID.TID 0000.0001) %MON seaice_area_sd               =   2.2107197279722E-01
(PID.TID 0000.0001) %MON seaice_area_del2             =   1.9390666903402E-04
(PID.TID 0000.0001) %MON seaice_heff_max              =   4.7390562827745E+00
(PID.TID 0000.0001) %MON seaice_heff_min              =   0.0000000000000E+00
(PID.TID 0000.0001) %MON seaice_heff_mean             =   5.7484202346328E-02
(PID.TID 0000.0001) %MON seaice_heff_sd               =   2.6988828083701E-01
(PID.TID 0000.0001) %MON seaice_heff_del2             =   2.4537066039916E-04
(PID.TID 0000.0001) %MON seaice_hsnow_max             =   1.5171610097831E+00
(PID.TID 0000.0001) %MON seaice_hsnow_min             =  -6.4268095840565E-05
(PID.TID 0000.0001) %MON seaice_hsnow_mean            =   7.9018833688142E-03
(PID.TID 0000.0001) %MON seaice_hsnow_sd              =   4.4340129157254E-02
(PID.TID 0000.0001) %MON seaice_hsnow_del2            =   4.7483692941176E-05
(PID.TID 0000.0001) // =======================================================
(PID.TID 0000.0001) // End MONITOR SEAICE statistics
(PID.TID 0000.0001) // =======================================================
(PID.TID 0000.0001) // =======================================================
(PID.TID 0000.0001) // Begin MONITOR EXF statistics
(PID.TID 0000.0001) // =======================================================
(PID.TID 0000.0001) %MON exf_tsnumber                 =                  5256
(PID.TID 0000.0001) %MON exf_time_sec                 =   1.8921600000000E+07
(PID.TID 0000.0001) %MON exf_ustress_max              =   1.0319605171680E+00
(PID.TID 0000.0001) %MON exf_ustress_min              =  -2.7365112886986E+00
(PID.TID 0000.0001) %MON exf_ustress_mean             =   1.6951254638928E-02
(PID.TID 0000.0001) %MON exf_ustress_sd               =   1.4141458613852E-01
(PID.TID 0000.0001) %MON exf_ustress_del2             =   9.5632318855146E-05
(PID.TID 0000.0001) %MON exf_vstress_max              =   9.8055192322097E-01
(PID.TID 0000.0001) %MON exf_vstress_min              =  -7.5642028450966E-01
(PID.TID 0000.0001) %MON exf_vstress_mean             =   1.0716276380661E-02
(PID.TID 0000.0001) %MON exf_vstress_sd               =   1.1676662501779E-01
(PID.TID 0000.0001) %MON exf_vstress_del2             =   8.9841285683955E-05
(PID.TID 0000.0001) %MON exf_hflux_max                =   1.3888874702216E+03
(PID.TID 0000.0001) %MON exf_hflux_min                =  -5.4045871172698E+02
(PID.TID 0000.0001) %MON exf_hflux_mean               =   5.5162401429767E+01
(PID.TID 0000.0001) %MON exf_hflux_sd                 =   1.9173701802763E+02
(PID.TID 0000.0001) %MON exf_hflux_del2               =   3.5880812045726E-01
(PID.TID 0000.0001) %MON exf_sflux_max                =   1.8331901058059E-07
(PID.TID 0000.0001) %MON exf_sflux_min                =  -1.7385806440644E-06
(PID.TID 0000.0001) %MON exf_sflux_mean               =  -1.3744631689926E-09
(PID.TID 0000.0001) %MON exf_sflux_sd                 =   8.4184421547611E-08
(PID.TID 0000.0001) %MON exf_sflux_del2               =   1.9898566417855E-10
(PID.TID 0000.0001) %MON exf_wspeed_max               =   2.5240690231323E+01
(PID.TID 0000.0001) %MON exf_wspeed_min               =   4.1723468899727E-01
(PID.TID 0000.0001) %MON exf_wspeed_mean              =   7.3858445083069E+00
(PID.TID 0000.0001) %MON exf_wspeed_sd                =   3.4528558720404E+00
(PID.TID 0000.0001) %MON exf_wspeed_del2              =   1.2572529229700E-02
(PID.TID 0000.0001) %MON exf_atemp_max                =   3.0868459548950E+02
(PID.TID 0000.0001) %MON exf_atemp_min                =   2.0404054107666E+02
(PID.TID 0000.0001) %MON exf_atemp_mean               =   2.8943417945940E+02
(PID.TID 0000.0001) %MON exf_atemp_sd                 =   1.1800198632299E+01
(PID.TID 0000.0001) %MON exf_atemp_del2               =   2.5398400628941E-02
(PID.TID 0000.0001) %MON exf_aqh_max                  =   2.6844160631299E-02
(PID.TID 0000.0001) %MON exf_aqh_min                  =  -8.8349646830466E-05
(PID.TID 0000.0001) %MON exf_aqh_mean                 =   1.0956839730891E-02
(PID.TID 0000.0001) %MON exf_aqh_sd                   =   5.6255708972185E-03
(PID.TID 0000.0001) %MON exf_aqh_del2                 =   1.4786441454767E-05
(PID.TID 0000.0001) %MON exf_lwflux_max               =   2.6851378150769E+02
(PID.TID 0000.0001) %MON exf_lwflux_min               =  -5.2037305676815E+01
(PID.TID 0000.0001) %MON exf_lwflux_mean              =   4.4600401266397E+01
(PID.TID 0000.0001) %MON exf_lwflux_sd                =   2.6967719568526E+01
(PID.TID 0000.0001) %MON exf_lwflux_del2              =   8.3667127631878E-02
(PID.TID 0000.0001) %MON exf_evap_max                 =   1.9061946928421E-07
(PID.TID 0000.0001) %MON exf_evap_min                 =  -3.7925272111192E-08
(PID.TID 0000.0001) %MON exf_evap_mean                =   4.4079483330959E-08
(PID.TID 0000.0001) %MON exf_evap_sd                  =   2.9102130812897E-08
(PID.TID 0000.0001) %MON exf_evap_del2                =   6.9556966997311E-11
(PID.TID 0000.0001) %MON exf_precip_max               =   1.6365848694022E-06
(PID.TID 0000.0001) %MON exf_precip_min               =  -2.5055840957577E-08
(PID.TID 0000.0001) %MON exf_precip_mean              =   4.1368785095349E-08
(PID.TID 0000.0001) %MON exf_precip_sd                =   7.0131753952796E-08
(PID.TID 0000.0001) %MON exf_precip_del2              =   1.9375629227702E-10
(PID.TID 0000.0001) %MON exf_swflux_max               =   5.0799459075928E+01
(PID.TID 0000.0001) %MON exf_swflux_min               =  -5.8765573282653E+02
(PID.TID 0000.0001) %MON exf_swflux_mean              =  -1.2678102726158E+02
(PID.TID 0000.0001) %MON exf_swflux_sd                =   1.4517331930600E+02
(PID.TID 0000.0001) %MON exf_swflux_del2              =   2.3925147084870E-01
(PID.TID 0000.0001) %MON exf_swdown_max               =   6.3462234497070E+02
(PID.TID 0000.0001) %MON exf_swdown_min               =  -7.2570655822754E+01
(PID.TID 0000.0001) %MON exf_swdown_mean              =   1.3780403391997E+02
(PID.TID 0000.0001) %MON exf_swdown_sd                =   1.5697225883198E+02
(PID.TID 0000.0001) %MON exf_swdown_del2              =   2.6033432150990E-01
(PID.TID 0000.0001) %MON exf_lwdown_max               =   4.9949020385742E+02
(PID.TID 0000.0001) %MON exf_lwdown_min               =   3.0470651626587E+01
(PID.TID 0000.0001) %MON exf_lwdown_mean              =   3.6524669911288E+02
(PID.TID 0000.0001) %MON exf_lwdown_sd                =   6.1816184845257E+01
(PID.TID 0000.0001) %MON exf_lwdown_del2              =   4.9677900040695E-01
(PID.TID 0000.0001) %MON exf_apressure_max            =   1.0336608984375E+05
(PID.TID 0000.0001) %MON exf_apressure_min            =   9.4059789062500E+04
(PID.TID 0000.0001) %MON exf_apressure_mean           =   1.0113189510002E+05
(PID.TID 0000.0001) %MON exf_apressure_sd             =   1.2305024627474E+03
(PID.TID 0000.0001) %MON exf_apressure_del2           =   1.4496114536530E+02
(PID.TID 0000.0001) %MON exf_runoff_max               =   1.7809814879353E-06
(PID.TID 0000.0001) %MON exf_runoff_min               =   0.0000000000000E+00
(PID.TID 0000.0001) %MON exf_runoff_mean              =   4.0851614046022E-09
(PID.TID 0000.0001) %MON exf_runoff_sd                =   2.7591373452955E-08
(PID.TID 0000.0001) %MON exf_runoff_del2              =   3.6407047856592E-11
(PID.TID 0000.0001) // =======================================================
(PID.TID 0000.0001) // End MONITOR EXF statistics
(PID.TID 0000.0001) // =======================================================
 cg2d: Sum(rhs),rhsMax =  -9.91672887546742E+01  1.43894545938746E+00
(PID.TID 0000.0001)  ploadbar=  1.01131895100022E+05
 cg2d: Sum(rhs),rhsMax =  -9.92623499200966E+01  1.43797676537752E+00
(PID.TID 0000.0001)  ploadbar=  1.01131843800727E+05
 cg2d: Sum(rhs),rhsMax =  -9.93025404765920E+01  1.43780627459934E+00
(PID.TID 0000.0001)  ploadbar=  1.01131792501432E+05
 cg2d: Sum(rhs),rhsMax =  -9.92682852062286E+01  1.43871608459012E+00
(PID.TID 0000.0001)  ploadbar=  1.01131741202137E+05
 cg2d: Sum(rhs),rhsMax =  -9.91736146494523E+01  1.44052265285711E+00
(PID.TID 0000.0001)  ploadbar=  1.01130139418654E+05
 cg2d: Sum(rhs),rhsMax =  -9.90472279770833E+01  1.44281234737781E+00
(PID.TID 0000.0001)  ploadbar=  1.01128537635172E+05
 cg2d: Sum(rhs),rhsMax =  -9.88965854806094E+01  1.44548290775055E+00
(PID.TID 0000.0001)  ploadbar=  1.01126935851689E+05
 cg2d: Sum(rhs),rhsMax =  -9.87099959017186E+01  1.44870786542844E+00
(PID.TID 0000.0001)  ploadbar=  1.01125334068207E+05
 cg2d: Sum(rhs),rhsMax =  -9.85797945908020E+01  1.45113200971828E+00
(PID.TID 0000.0001)  ploadbar=  1.01123732284725E+05
 cg2d: Sum(rhs),rhsMax =  -9.84514969605055E+01  1.45355016115562E+00
(PID.TID 0000.0001)  ploadbar=  1.01122130501242E+05
 cg2d: Sum(rhs),rhsMax =  -9.84797094369080E+01  1.45365200247268E+00
(PID.TID 0000.0001)  ploadbar=  1.01121029613314E+05
 cg2d: Sum(rhs),rhsMax =  -9.85704342377474E+01  1.45282265975891E+00
(PID.TID 0000.0001)  ploadbar=  1.01119928725386E+05
 cg2d: Sum(rhs),rhsMax =  -9.88234251979264E+01  1.44959977834721E+00
(PID.TID 0000.0001)  ploadbar=  1.01118827837458E+05
 cg2d: Sum(rhs),rhsMax =  -9.93178041431607E+01  1.44286664366419E+00
(PID.TID 0000.0001)  ploadbar=  1.01117726949529E+05
 cg2d: Sum(rhs),rhsMax =  -1.00017397114804E+02  1.43324105065049E+00
(PID.TID 0000.0001)  ploadbar=  1.01116626061601E+05
 cg2d: Sum(rhs),rhsMax =  -1.00972204681973E+02  1.42013979844077E+00
(PID.TID 0000.0001)  ploadbar=  1.01115525173673E+05
 cg2d: Sum(rhs),rhsMax =  -1.02084665260169E+02  1.40514485808802E+00
(PID.TID 0000.0001)  ploadbar=  1.01115631705394E+05
 cg2d: Sum(rhs),rhsMax =  -1.02338916982174E+02  1.40216587899934E+00
(PID.TID 0000.0001)  ploadbar=  1.01115738237116E+05
 cg2d: Sum(rhs),rhsMax =  -1.02595345249266E+02  1.39920184087790E+00
(PID.TID 0000.0001)  ploadbar=  1.01115844768837E+05
 cg2d: Sum(rhs),rhsMax =  -1.02797573756418E+02  1.39701707703057E+00
(PID.TID 0000.0001)  ploadbar=  1.01115951300559E+05
 cg2d: Sum(rhs),rhsMax =  -1.02946296231230E+02  1.39558995174456E+00
(PID.TID 0000.0001)  ploadbar=  1.01116057832280E+05
 cg2d: Sum(rhs),rhsMax =  -1.03012751384507E+02  1.39530695678485E+00
(PID.TID 0000.0001)  ploadbar=  1.01116164364002E+05
 cg2d: Sum(rhs),rhsMax =  -1.00968213787713E+02  1.42416419161198E+00
(PID.TID 0000.0001)  ploadbar=  1.01115389566454E+05
 cg2d: Sum(rhs),rhsMax =  -9.87554137213294E+01  1.45666439685768E+00
(PID.TID 0000.0001)  ploadbar=  1.01114614768906E+05
 cg2d: Sum(rhs),rhsMax =  -9.66067615307785E+01  1.48963709880627E+00
(PID.TID 0000.0001)  ploadbar=  1.01113839971359E+05
 cg2d: Sum(rhs),rhsMax =  -9.45157185457498E+01  1.52315466431688E+00
(PID.TID 0000.0001)  ploadbar=  1.01113065173811E+05
 cg2d: Sum(rhs),rhsMax =  -9.24859301556580E+01  1.55712922193939E+00
(PID.TID 0000.0001)  ploadbar=  1.01112290376263E+05
 cg2d: Sum(rhs),rhsMax =  -9.05330230938974E+01  1.59124630256161E+00
(PID.TID 0000.0001)  ploadbar=  1.01111515578715E+05
 cg2d: Sum(rhs),rhsMax =  -8.88013198588541E+01  1.62279746622397E+00
(PID.TID 0000.0001)  ploadbar=  1.01108974090806E+05
 cg2d: Sum(rhs),rhsMax =  -8.72656142571626E+01  1.65186758840564E+00
(PID.TID 0000.0001)  ploadbar=  1.01106432602897E+05
 cg2d: Sum(rhs),rhsMax =  -8.59732225552747E+01  1.67720038602850E+00
(PID.TID 0000.0001)  ploadbar=  1.01103891114988E+05
 cg2d: Sum(rhs),rhsMax =  -8.49360472960891E+01  1.69816829982919E+00
(PID.TID 0000.0001)  ploadbar=  1.01101349627078E+05
 cg2d: Sum(rhs),rhsMax =  -8.41359606741756E+01  1.71478879864353E+00
(PID.TID 0000.0001)  ploadbar=  1.01098808139169E+05
 cg2d: Sum(rhs),rhsMax =  -8.35483765155130E+01  1.72730482242821E+00
(PID.TID 0000.0001)  ploadbar=  1.01096266651260E+05
 cg2d: Sum(rhs),rhsMax =  -8.31357875906722E+01  1.73631453390963E+00
(PID.TID 0000.0001)  ploadbar=  1.01095620154618E+05
 cg2d: Sum(rhs),rhsMax =  -8.27812300828727E+01  1.74417060907831E+00
(PID.TID 0000.0001)  ploadbar=  1.01094973657977E+05
 cg2d: Sum(rhs),rhsMax =  -8.25859301454954E+01  1.74869387059305E+00
(PID.TID 0000.0001)  ploadbar=  1.01094327161335E+05
 cg2d: Sum(rhs),rhsMax =  -8.28509966149177E+01  1.74347300333624E+00
(PID.TID 0000.0001)  ploadbar=  1.01093680664694E+05
 cg2d: Sum(rhs),rhsMax =  -8.35475464789769E+01  1.72928759523861E+00
(PID.TID 0000.0001)  ploadbar=  1.01093034168053E+05
 cg2d: Sum(rhs),rhsMax =  -8.43795884466328E+01  1.71256098085482E+00
(PID.TID 0000.0001)  ploadbar=  1.01092387671411E+05
 cg2d: Sum(rhs),rhsMax =  -8.51127060180645E+01  1.69816553395769E+00
(PID.TID 0000.0001)  ploadbar=  1.01092094903227E+05
 cg2d: Sum(rhs),rhsMax =  -8.57435259180440E+01  1.68605697134903E+00
(PID.TID 0000.0001)  ploadbar=  1.01091802135042E+05
 cg2d: Sum(rhs),rhsMax =  -8.63571894665468E+01  1.67448737314480E+00
(PID.TID 0000.0001)  ploadbar=  1.01091509366858E+05
 cg2d: Sum(rhs),rhsMax =  -8.69747486754586E+01  1.66303501125973E+00
(PID.TID 0000.0001)  ploadbar=  1.01091216598673E+05
 cg2d: Sum(rhs),rhsMax =  -8.75803529294099E+01  1.65199860765432E+00
(PID.TID 0000.0001)  ploadbar=  1.01090923830489E+05
 cg2d: Sum(rhs),rhsMax =  -8.82374680106875E+01  1.64018592589602E+00
(PID.TID 0000.0001)  ploadbar=  1.01090631062304E+05
 cg2d: Sum(rhs),rhsMax =  -8.88071989961878E+01  1.63015178731053E+00
(PID.TID 0000.0001)  ploadbar=  1.01090944913479E+05
 cg2d: Sum(rhs),rhsMax =  -8.93224631875248E+01  1.62123580691466E+00
(PID.TID 0000.0001)  ploadbar=  1.01091258764654E+05
 cg2d: Sum(rhs),rhsMax =  -8.77326327392748E+01  1.65111459245423E+00
(PID.TID 0000.0001)  ploadbar=  1.01091572615829E+05
 cg2d: Sum(rhs),rhsMax =  -8.30960405905442E+01  1.74377472741817E+00
(PID.TID 0000.0001)  ploadbar=  1.01091886467004E+05
 cg2d: Sum(rhs),rhsMax =  -7.89945598952465E+01  1.83487790361686E+00
(PID.TID 0000.0001)  ploadbar=  1.01092200318179E+05
 cg2d: Sum(rhs),rhsMax =  -7.53470142469131E+01  1.92430139185859E+00
(PID.TID 0000.0001)  ploadbar=  1.01092514169353E+05
 cg2d: Sum(rhs),rhsMax =  -7.21538142156952E+01  2.01006291250043E+00
(PID.TID 0000.0001)  ploadbar=  1.01093438465448E+05
 cg2d: Sum(rhs),rhsMax =  -6.92834931432200E+01  2.09393950819646E+00
(PID.TID 0000.0001)  ploadbar=  1.01094362761542E+05
 cg2d: Sum(rhs),rhsMax =  -6.66821815370329E+01  2.17623223173612E+00
(PID.TID 0000.0001)  ploadbar=  1.01095287057636E+05
 cg2d: Sum(rhs),rhsMax =  -6.43252090314023E+01  2.25658419501334E+00
(PID.TID 0000.0001)  ploadbar=  1.01096211353731E+05
 cg2d: Sum(rhs),rhsMax =  -6.21857153470548E+01  2.33483916320541E+00
(PID.TID 0000.0001)  ploadbar=  1.01097135649825E+05
 cg2d: Sum(rhs),rhsMax =  -6.02393035508503E+01  2.41090645911551E+00
(PID.TID 0000.0001)  ploadbar=  1.01098059945919E+05
 cg2d: Sum(rhs),rhsMax =  -5.84280276159186E+01  2.48625348440350E+00
(PID.TID 0000.0001)  ploadbar=  1.01098351515064E+05
 cg2d: Sum(rhs),rhsMax =  -5.69128155674098E+01  2.55303320036442E+00
(PID.TID 0000.0001)  ploadbar=  1.01098643084209E+05
 cg2d: Sum(rhs),rhsMax =  -5.60796913806789E+01  2.59151754185663E+00
(PID.TID 0000.0001)  ploadbar=  1.01098934653353E+05
 cg2d: Sum(rhs),rhsMax =  -5.53288476843615E+01  2.62721138365773E+00
(PID.TID 0000.0001)  ploadbar=  1.01099226222498E+05
 cg2d: Sum(rhs),rhsMax =  -5.48957936088136E+01  2.64842628208607E+00
(PID.TID 0000.0001)  ploadbar=  1.01099517791643E+05
 cg2d: Sum(rhs),rhsMax =  -5.44144763828270E+01  2.67230508427211E+00
(PID.TID 0000.0001)  ploadbar=  1.01099809360788E+05
 cg2d: Sum(rhs),rhsMax =  -5.46647890770203E+01  2.66055008208206E+00
(PID.TID 0000.0001)  ploadbar=  1.01101259925560E+05
 cg2d: Sum(rhs),rhsMax =  -5.57517721385969E+01  2.60918094484779E+00
(PID.TID 0000.0001)  ploadbar=  1.01102710490332E+05
 cg2d: Sum(rhs),rhsMax =  -5.71311694828042E+01  2.54670293034069E+00
(PID.TID 0000.0001)  ploadbar=  1.01104161055104E+05
 cg2d: Sum(rhs),rhsMax =  -5.84363418616894E+01  2.49035942298401E+00
(PID.TID 0000.0001)  ploadbar=  1.01105611619876E+05
 cg2d: Sum(rhs),rhsMax =  -5.95996002810362E+01  2.44230948256655E+00
(PID.TID 0000.0001)  ploadbar=  1.01107062184648E+05
 cg2d: Sum(rhs),rhsMax =  -6.05688081716149E+01  2.40380619491936E+00
(PID.TID 0000.0001)  ploadbar=  1.01108512749420E+05
 cg2d: Sum(rhs),rhsMax =  -6.14850923737039E+01  2.36855109478088E+00
(PID.TID 0000.0001)  ploadbar=  1.01109768735207E+05
 cg2d: Sum(rhs),rhsMax =  -6.22997014937984E+01  2.33814209502815E+00
(PID.TID 0000.0001)  ploadbar=  1.01111024720993E+05
 cg2d: Sum(rhs),rhsMax =  -6.30940381980876E+01  2.30926101830352E+00
(PID.TID 0000.0001)  ploadbar=  1.01112280706780E+05
 cg2d: Sum(rhs),rhsMax =  -6.38895353575248E+01  2.28105691089114E+00
(PID.TID 0000.0001)  ploadbar=  1.01113536692567E+05
 cg2d: Sum(rhs),rhsMax =  -6.46933516024050E+01  2.25325557976125E+00
(PID.TID 0000.0001)  ploadbar=  1.01114792678353E+05
 cg2d: Sum(rhs),rhsMax =  -6.54985542076347E+01  2.22608896758281E+00
(PID.TID 0000.0001)  ploadbar=  1.01116048664140E+05
 cg2d: Sum(rhs),rhsMax =  -6.62389276272520E+01  2.20170342800242E+00
(PID.TID 0000.0001)  ploadbar=  1.01116859153577E+05
 cg2d: Sum(rhs),rhsMax =  -6.70160840288527E+01  2.17663114117701E+00
(PID.TID 0000.0001)  ploadbar=  1.01117669643015E+05
 cg2d: Sum(rhs),rhsMax =  -6.78404876520662E+01  2.15060649676394E+00
(PID.TID 0000.0001)  ploadbar=  1.01118480132452E+05
 cg2d: Sum(rhs),rhsMax =  -6.86968027946264E+01  2.12419250941846E+00
(PID.TID 0000.0001)  ploadbar=  1.01119290621889E+05
 cg2d: Sum(rhs),rhsMax =  -6.95958840213672E+01  2.09711218197113E+00
(PID.TID 0000.0001)  ploadbar=  1.01120101111327E+05
 cg2d: Sum(rhs),rhsMax =  -7.05573322236346E+01  2.06886531278684E+00
(PID.TID 0000.0001)  ploadbar=  1.01120911600764E+05
 cg2d: Sum(rhs),rhsMax =  -7.15764249095164E+01  2.03971718194324E+00
(PID.TID 0000.0001)  ploadbar=  1.01120763087388E+05
 cg2d: Sum(rhs),rhsMax =  -7.26126590230638E+01  2.01089505709437E+00
(PID.TID 0000.0001)  ploadbar=  1.01120614574012E+05
 cg2d: Sum(rhs),rhsMax =  -7.36643979195587E+01  1.98244979675528E+00
(PID.TID 0000.0001)  ploadbar=  1.01120466060635E+05
 cg2d: Sum(rhs),rhsMax =  -7.47346792565540E+01  1.95430444041852E+00
(PID.TID 0000.0001)  ploadbar=  1.01120317547259E+05
 cg2d: Sum(rhs),rhsMax =  -7.58339180014034E+01  1.92620362276470E+00
(PID.TID 0000.0001)  ploadbar=  1.01120169033883E+05
 cg2d: Sum(rhs),rhsMax =  -7.69611051837928E+01  1.89820280154472E+00
(PID.TID 0000.0001)  ploadbar=  1.01120020520507E+05
 cg2d: Sum(rhs),rhsMax =  -7.80867392880551E+01  1.87107794876437E+00
(PID.TID 0000.0001)  ploadbar=  1.01119273452753E+05
 cg2d: Sum(rhs),rhsMax =  -7.91565699614592E+01  1.84605364421932E+00
(PID.TID 0000.0001)  ploadbar=  1.01118526384999E+05
 cg2d: Sum(rhs),rhsMax =  -8.01793456377231E+01  1.82279383757677E+00
(PID.TID 0000.0001)  ploadbar=  1.01117779317245E+05
 cg2d: Sum(rhs),rhsMax =  -8.11438955694556E+01  1.80144042353852E+00
(PID.TID 0000.0001)  ploadbar=  1.01117032249491E+05
 cg2d: Sum(rhs),rhsMax =  -8.20604104417573E+01  1.78166055351044E+00
(PID.TID 0000.0001)  ploadbar=  1.01116285181738E+05
 cg2d: Sum(rhs),rhsMax =  -8.30147356817859E+01  1.76154242581073E+00
(PID.TID 0000.0001)  ploadbar=  1.01115538113984E+05
 cg2d: Sum(rhs),rhsMax =  -8.40394330433632E+01  1.74041678792580E+00
(PID.TID 0000.0001)  ploadbar=  1.01114754430325E+05
 cg2d: Sum(rhs),rhsMax =  -8.51958874884151E+01  1.71713412144346E+00
(PID.TID 0000.0001)  ploadbar=  1.01113970746667E+05
 cg2d: Sum(rhs),rhsMax =  -8.64902431876986E+01  1.69176680749784E+00
(PID.TID 0000.0001)  ploadbar=  1.01113187063008E+05
 cg2d: Sum(rhs),rhsMax =  -8.79736527537976E+01  1.66355775427977E+00
(PID.TID 0000.0001)  ploadbar=  1.01112403379349E+05
 cg2d: Sum(rhs),rhsMax =  -8.96563652395075E+01  1.63263909490864E+00
(PID.TID 0000.0001)  ploadbar=  1.01111619695691E+05
 cg2d: Sum(rhs),rhsMax =  -9.15408583454517E+01  1.59931850320501E+00
(PID.TID 0000.0001)  ploadbar=  1.01110836012032E+05
 cg2d: Sum(rhs),rhsMax =  -9.06631572924201E+01  1.61509013671787E+00
(PID.TID 0000.0001)  ploadbar=  1.01110563258609E+05
 cg2d: Sum(rhs),rhsMax =  -8.93843062966218E+01  1.63848397336526E+00
(PID.TID 0000.0001)  ploadbar=  1.01110290505186E+05
 cg2d: Sum(rhs),rhsMax =  -8.76865844248178E+01  1.67049079859163E+00
(PID.TID 0000.0001)  ploadbar=  1.01110017751763E+05
 cg2d: Sum(rhs),rhsMax =  -8.60152553207260E+01  1.70322997111799E+00
(PID.TID 0000.0001)  ploadbar=  1.01109744998340E+05
 cg2d: Sum(rhs),rhsMax =  -8.46262567559246E+01  1.73146269240467E+00
(PID.TID 0000.0001)  ploadbar=  1.01109472244918E+05
 cg2d: Sum(rhs),rhsMax =  -8.34631384494388E+01  1.75586343960319E+00
(PID.TID 0000.0001)  ploadbar=  1.01109199491495E+05
 cg2d: Sum(rhs),rhsMax =  -8.27156899967499E+01  1.77197751628263E+00
(PID.TID 0000.0001)  ploadbar=  1.01108824908469E+05
 cg2d: Sum(rhs),rhsMax =  -8.22447530540479E+01  1.78234620462175E+00
(PID.TID 0000.0001)  ploadbar=  1.01108450325444E+05
 cg2d: Sum(rhs),rhsMax =  -8.20178679979291E+01  1.78747224696199E+00
(PID.TID 0000.0001)  ploadbar=  1.01108075742418E+05
 cg2d: Sum(rhs),rhsMax =  -8.20360519922507E+01  1.78724479090831E+00
(PID.TID 0000.0001)  ploadbar=  1.01107701159393E+05
 cg2d: Sum(rhs),rhsMax =  -8.24509354259785E+01  1.77839320211500E+00
(PID.TID 0000.0001)  ploadbar=  1.01107326576367E+05
 cg2d: Sum(rhs),rhsMax =  -8.30704442710478E+01  1.76524408945562E+00
(PID.TID 0000.0001)  ploadbar=  1.01106951993342E+05
 cg2d: Sum(rhs),rhsMax =  -8.36738632369965E+01  1.75266952892422E+00
(PID.TID 0000.0001)  ploadbar=  1.01106225207313E+05
 cg2d: Sum(rhs),rhsMax =  -8.42113174772030E+01  1.74167817323283E+00
(PID.TID 0000.0001)  ploadbar=  1.01105498421284E+05
 cg2d: Sum(rhs),rhsMax =  -8.46537569114489E+01  1.73280569182449E+00
(PID.TID 0000.0001)  ploadbar=  1.01104771635255E+05
 cg2d: Sum(rhs),rhsMax =  -8.50088214601010E+01  1.72583518084356E+00
(PID.TID 0000.0001)  ploadbar=  1.01104044849226E+05
 cg2d: Sum(rhs),rhsMax =  -8.53080888233916E+01  1.72008328615170E+00
(PID.TID 0000.0001)  ploadbar=  1.01103318063197E+05
 cg2d: Sum(rhs),rhsMax =  -8.55824435586128E+01  1.71490592218833E+00
(PID.TID 0000.0001)  ploadbar=  1.01102591277167E+05
 cg2d: Sum(rhs),rhsMax =  -8.57315563035010E+01  1.71227834054380E+00
(PID.TID 0000.0001)  ploadbar=  1.01101547041665E+05
 cg2d: Sum(rhs),rhsMax =  -8.58703767056667E+01  1.70988345870064E+00
(PID.TID 0000.0001)  ploadbar=  1.01100502806164E+05
 cg2d: Sum(rhs),rhsMax =  -8.60115084052190E+01  1.70746883835543E+00
(PID.TID 0000.0001)  ploadbar=  1.01099458570662E+05
 cg2d: Sum(rhs),rhsMax =  -8.61536366737673E+01  1.70506003181329E+00
(PID.TID 0000.0001)  ploadbar=  1.01098414335160E+05
 cg2d: Sum(rhs),rhsMax =  -8.62989475201681E+01  1.70261216771844E+00
(PID.TID 0000.0001)  ploadbar=  1.01097370099658E+05
 cg2d: Sum(rhs),rhsMax =  -8.64441261287570E+01  1.70018914250228E+00
(PID.TID 0000.0001)  ploadbar=  1.01096325864156E+05
 cg2d: Sum(rhs),rhsMax =  -8.65218810999090E+01  1.69909655115884E+00
(PID.TID 0000.0001)  ploadbar=  1.01095046381119E+05
 cg2d: Sum(rhs),rhsMax =  -8.65919465704647E+01  1.69815349323419E+00
(PID.TID 0000.0001)  ploadbar=  1.01093766898082E+05
 cg2d: Sum(rhs),rhsMax =  -8.66603768080526E+01  1.69724039650544E+00
(PID.TID 0000.0001)  ploadbar=  1.01092487415045E+05
 cg2d: Sum(rhs),rhsMax =  -8.67333537464682E+01  1.69623514940861E+00
(PID.TID 0000.0001)  ploadbar=  1.01091207932008E+05
 cg2d: Sum(rhs),rhsMax =  -8.68092996393527E+01  1.69516782986326E+00
(PID.TID 0000.0001)  ploadbar=  1.01089928448971E+05
 cg2d: Sum(rhs),rhsMax =  -8.68900288627655E+01  1.69400121259281E+00
(PID.TID 0000.0001)  ploadbar=  1.01088648965934E+05
 cg2d: Sum(rhs),rhsMax =  -8.69991842813310E+01  1.69226233862740E+00
(PID.TID 0000.0001)  ploadbar=  1.01088571149636E+05
 cg2d: Sum(rhs),rhsMax =  -8.71160828675771E+01  1.69035592122956E+00
(PID.TID 0000.0001)  ploadbar=  1.01088493333338E+05
 cg2d: Sum(rhs),rhsMax =  -8.72358152032092E+01  1.68837807668256E+00
(PID.TID 0000.0001)  ploadbar=  1.01088415517039E+05
 cg2d: Sum(rhs),rhsMax =  -8.73690895070567E+01  1.68612086290147E+00
(PID.TID 0000.0001)  ploadbar=  1.01088337700741E+05
 cg2d: Sum(rhs),rhsMax =  -8.75126735977016E+01  1.68364844207975E+00
(PID.TID 0000.0001)  ploadbar=  1.01088259884443E+05
 cg2d: Sum(rhs),rhsMax =  -8.76621173812484E+01  1.68104670708898E+00
(PID.TID 0000.0001)  ploadbar=  1.01088182068144E+05
 cg2d: Sum(rhs),rhsMax =  -8.78155888226382E+01  1.67840779646001E+00
(PID.TID 0000.0001)  ploadbar=  1.01088241489251E+05
 cg2d: Sum(rhs),rhsMax =  -8.79703972989400E+01  1.67578177781435E+00
(PID.TID 0000.0001)  ploadbar=  1.01088300910357E+05
 cg2d: Sum(rhs),rhsMax =  -8.81162205047905E+01  1.67336335345460E+00
(PID.TID 0000.0001)  ploadbar=  1.01088360331464E+05
 cg2d: Sum(rhs),rhsMax =  -8.82585203718931E+01  1.67104733473923E+00
(PID.TID 0000.0001)  ploadbar=  1.01088419752571E+05
 cg2d: Sum(rhs),rhsMax =  -8.84001160822498E+01  1.66877900112330E+00
(PID.TID 0000.0001)  ploadbar=  1.01088479173677E+05
 cg2d: Sum(rhs),rhsMax =  -8.85384428617801E+01  1.66660384889364E+00
(PID.TID 0000.0001)  ploadbar=  1.01088538594784E+05
 cg2d: Sum(rhs),rhsMax =  -8.87531547404130E+01  1.66300204231321E+00
(PID.TID 0000.0001)  ploadbar=  1.01089080724852E+05
 cg2d: Sum(rhs),rhsMax =  -8.89755948887199E+01  1.65927082143418E+00
(PID.TID 0000.0001)  ploadbar=  1.01089622854921E+05
 cg2d: Sum(rhs),rhsMax =  -8.86345619465245E+01  1.66608084198267E+00
(PID.TID 0000.0001)  ploadbar=  1.01090164984989E+05
 cg2d: Sum(rhs),rhsMax =  -8.79247410727271E+01  1.67995785533856E+00
(PID.TID 0000.0001)  ploadbar=  1.01090707115058E+05
 cg2d: Sum(rhs),rhsMax =  -8.71006604740785E+01  1.69627899831256E+00
(PID.TID 0000.0001)  ploadbar=  1.01091249245126E+05
 cg2d: Sum(rhs),rhsMax =  -8.62122962115315E+01  1.71418368292439E+00
(PID.TID 0000.0001)  ploadbar=  1.01091791375195E+05
 cg2d: Sum(rhs),rhsMax =  -8.52912720376913E+01  1.73312529363087E+00
(PID.TID 0000.0001)  ploadbar=  1.01091781302136E+05
 cg2d: Sum(rhs),rhsMax =  -8.43999076761061E+01  1.75186368983312E+00
(PID.TID 0000.0001)  ploadbar=  1.01091771229076E+05
 cg2d: Sum(rhs),rhsMax =  -8.35913846299256E+01  1.76924469801140E+00
(PID.TID 0000.0001)  ploadbar=  1.01091761156017E+05
 cg2d: Sum(rhs),rhsMax =  -8.28729284369874E+01  1.78502063481317E+00
(PID.TID 0000.0001)  ploadbar=  1.01091751082958E+05
 cg2d: Sum(rhs),rhsMax =  -8.22525332079768E+01  1.79892235854900E+00
(PID.TID 0000.0001)  ploadbar=  1.01091741009899E+05
 cg2d: Sum(rhs),rhsMax =  -8.17361472437208E+01  1.81072515648270E+00
(PID.TID 0000.0001)  ploadbar=  1.01091730936839E+05
 cg2d: Sum(rhs),rhsMax =  -8.13108445971638E+01  1.82060784519967E+00
(PID.TID 0000.0001)  ploadbar=  1.01092689713016E+05
 cg2d: Sum(rhs),rhsMax =  -8.09558071661987E+01  1.82897501410844E+00
(PID.TID 0000.0001)  ploadbar=  1.01093648489192E+05
 cg2d: Sum(rhs),rhsMax =  -8.06862029208195E+01  1.83543907732333E+00
(PID.TID 0000.0001)  ploadbar=  1.01094607265368E+05
 cg2d: Sum(rhs),rhsMax =  -8.04935510645384E+01  1.84015423988022E+00
(PID.TID 0000.0001)  ploadbar=  1.01095566041544E+05
 cg2d: Sum(rhs),rhsMax =  -8.03835776109663E+01  1.84296252624573E+00
(PID.TID 0000.0001)  ploadbar=  1.01096524817720E+05
 cg2d: Sum(rhs),rhsMax =  -8.03671696798826E+01  1.84359555512886E+00
(PID.TID 0000.0001)  ploadbar=  1.01097483593896E+05
 cg2d: Sum(rhs),rhsMax =  -8.04701242279080E+01  1.84153409979762E+00
(PID.TID 0000.0001)  ploadbar=  1.01098727031442E+05
 cg2d: Sum(rhs),rhsMax =  -8.06171365411348E+01  1.83851284090236E+00
(PID.TID 0000.0001)  ploadbar=  1.01099970468988E+05
 cg2d: Sum(rhs),rhsMax =  -8.07719277474790E+01  1.83536440107062E+00
(PID.TID 0000.0001)  ploadbar=  1.01101213906534E+05
 cg2d: Sum(rhs),rhsMax =  -8.09168059769285E+01  1.83248969788484E+00
(PID.TID 0000.0001)  ploadbar=  1.01102457344080E+05
 cg2d: Sum(rhs),rhsMax =  -8.10322396423673E+01  1.83032627353563E+00
(PID.TID 0000.0001)  ploadbar=  1.01103700781625E+05
 cg2d: Sum(rhs),rhsMax =  -8.11079399244625E+01  1.82909795900030E+00
(PID.TID 0000.0001)  ploadbar=  1.01104944219171E+05
 cg2d: Sum(rhs),rhsMax =  -8.11912296418082E+01  1.82767020907978E+00
(PID.TID 0000.0001)  ploadbar=  1.01106371992370E+05
 cg2d: Sum(rhs),rhsMax =  -8.12480892832879E+01  1.82680809113819E+00
(PID.TID 0000.0001)  ploadbar=  1.01107799765568E+05
 cg2d: Sum(rhs),rhsMax =  -8.12450266277172E+01  1.82726215926143E+00
(PID.TID 0000.0001)  ploadbar=  1.01109227538767E+05
 cg2d: Sum(rhs),rhsMax =  -8.12176468477702E+01  1.82823158106089E+00
(PID.TID 0000.0001)  ploadbar=  1.01110655311966E+05
 cg2d: Sum(rhs),rhsMax =  -8.12224917614752E+01  1.82844402613390E+00
(PID.TID 0000.0001)  ploadbar=  1.01112083085164E+05
 cg2d: Sum(rhs),rhsMax =  -8.12977903850213E+01  1.82703968819910E+00
(PID.TID 0000.0001)  ploadbar=  1.01113510858363E+05
 cg2d: Sum(rhs),rhsMax =  -8.14143800076637E+01  1.82469798159161E+00
(PID.TID 0000.0001)  ploadbar=  1.01113500372485E+05
 cg2d: Sum(rhs),rhsMax =  -8.15933570411139E+01  1.82095416687217E+00
(PID.TID 0000.0001)  ploadbar=  1.01113489886606E+05
 cg2d: Sum(rhs),rhsMax =  -8.17874380110074E+01  1.81687487930873E+00
(PID.TID 0000.0001)  ploadbar=  1.01113479400728E+05
 cg2d: Sum(rhs),rhsMax =  -8.20004239570385E+01  1.81238024139170E+00
(PID.TID 0000.0001)  ploadbar=  1.01113468914850E+05
 cg2d: Sum(rhs),rhsMax =  -8.22427294369917E+01  1.80724799165395E+00
(PID.TID 0000.0001)  ploadbar=  1.01113458428971E+05
 cg2d: Sum(rhs),rhsMax =  -8.25185770459992E+01  1.80139774476334E+00
(PID.TID 0000.0001)  ploadbar=  1.01113447943093E+05
 cg2d: Sum(rhs),rhsMax =  -8.27839344761582E+01  1.79577147867791E+00
(PID.TID 0000.0001)  ploadbar=  1.01114071051591E+05
 cg2d: Sum(rhs),rhsMax =  -8.30648244440258E+01  1.78980155865229E+00
(PID.TID 0000.0001)  ploadbar=  1.01114694160089E+05
 cg2d: Sum(rhs),rhsMax =  -8.33300388362701E+01  1.78416157435725E+00
(PID.TID 0000.0001)  ploadbar=  1.01115317268587E+05
 cg2d: Sum(rhs),rhsMax =  -8.35598834643806E+01  1.77926405766327E+00
(PID.TID 0000.0001)  ploadbar=  1.01115940377085E+05
 cg2d: Sum(rhs),rhsMax =  -8.37572563358437E+01  1.77503489585435E+00
(PID.TID 0000.0001)  ploadbar=  1.01116563485582E+05
 cg2d: Sum(rhs),rhsMax =  -8.39262668033733E+01  1.77137650535705E+00
(PID.TID 0000.0001)  ploadbar=  1.01117186594080E+05
 cg2d: Sum(rhs),rhsMax =  -8.40096450494850E+01  1.76957909089831E+00
(PID.TID 0000.0001)  ploadbar=  1.01117215551341E+05
 cg2d: Sum(rhs),rhsMax =  -8.40712373596024E+01  1.76828874686518E+00
(PID.TID 0000.0001)  ploadbar=  1.01117244508601E+05
 cg2d: Sum(rhs),rhsMax =  -8.41234238568151E+01  1.76724093864387E+00
(PID.TID 0000.0001)  ploadbar=  1.01117273465861E+05
 cg2d: Sum(rhs),rhsMax =  -8.41585226900996E+01  1.76659569922523E+00
(PID.TID 0000.0001)  ploadbar=  1.01117302423121E+05
 cg2d: Sum(rhs),rhsMax =  -8.41938037952070E+01  1.76598909102773E+00
(PID.TID 0000.0001)  ploadbar=  1.01117331380381E+05
 cg2d: Sum(rhs),rhsMax =  -8.42363543534568E+01  1.76527089766695E+00
(PID.TID 0000.0001)  ploadbar=  1.01117360337642E+05
 cg2d: Sum(rhs),rhsMax =  -8.42861089151241E+01  1.76441083506154E+00
(PID.TID 0000.0001)  ploadbar=  1.01117235124061E+05
 cg2d: Sum(rhs),rhsMax =  -8.43435404699091E+01  1.76339794693247E+00
(PID.TID 0000.0001)  ploadbar=  1.01117109910481E+05
 cg2d: Sum(rhs),rhsMax =  -8.44377779295116E+01  1.76162594014470E+00
(PID.TID 0000.0001)  ploadbar=  1.01116984696900E+05
 cg2d: Sum(rhs),rhsMax =  -8.45683299202326E+01  1.75910972192030E+00
(PID.TID 0000.0001)  ploadbar=  1.01116859483320E+05
 cg2d: Sum(rhs),rhsMax =  -8.47270063789130E+01  1.75602524130196E+00
(PID.TID 0000.0001)  ploadbar=  1.01116734269740E+05
 cg2d: Sum(rhs),rhsMax =  -8.49051015920835E+01  1.75255894344017E+00
(PID.TID 0000.0001)  ploadbar=  1.01116609056159E+05
 cg2d: Sum(rhs),rhsMax =  -8.51077111803677E+01  1.74858246433333E+00
(PID.TID 0000.0001)  ploadbar=  1.01117238484868E+05
 cg2d: Sum(rhs),rhsMax =  -8.53159454015305E+01  1.74448784068854E+00
(PID.TID 0000.0001)  ploadbar=  1.01117867913577E+05
 cg2d: Sum(rhs),rhsMax =  -8.55246402888134E+01  1.74038090503328E+00
(PID.TID 0000.0001)  ploadbar=  1.01118497342285E+05
 cg2d: Sum(rhs),rhsMax =  -8.57362092707874E+01  1.73621205678002E+00
(PID.TID 0000.0001)  ploadbar=  1.01119126770994E+05
 cg2d: Sum(rhs),rhsMax =  -8.59478016133661E+01  1.73203921334666E+00
(PID.TID 0000.0001)  ploadbar=  1.01119756199703E+05
 cg2d: Sum(rhs),rhsMax =  -8.61616545788977E+01  1.72781682020430E+00
(PID.TID 0000.0001)  ploadbar=  1.01120385628411E+05
 cg2d: Sum(rhs),rhsMax =  -8.64305619220713E+01  1.72247886837356E+00
(PID.TID 0000.0001)  ploadbar=  1.01120580682073E+05
 cg2d: Sum(rhs),rhsMax =  -8.67335541729283E+01  1.71645984067805E+00
(PID.TID 0000.0001)  ploadbar=  1.01120775735735E+05
 cg2d: Sum(rhs),rhsMax =  -8.70569724622294E+01  1.71004161168397E+00
(PID.TID 0000.0001)  ploadbar=  1.01120970789396E+05
 cg2d: Sum(rhs),rhsMax =  -8.73877745728847E+01  1.70348496516207E+00
(PID.TID 0000.0001)  ploadbar=  1.01121165843058E+05
 cg2d: Sum(rhs),rhsMax =  -8.76561647777362E+01  1.69814482604584E+00
(PID.TID 0000.0001)  ploadbar=  1.01121360896719E+05
 cg2d: Sum(rhs),rhsMax =  -8.79535458782138E+01  1.69223868426735E+00
(PID.TID 0000.0001)  ploadbar=  1.01121555950381E+05
 cg2d: Sum(rhs),rhsMax =  -8.82711812329394E+01  1.68604171886660E+00
(PID.TID 0000.0001)  ploadbar=  1.01122426002277E+05
 cg2d: Sum(rhs),rhsMax =  -8.86237704285164E+01  1.67928060896175E+00
(PID.TID 0000.0001)  ploadbar=  1.01123296054173E+05
 cg2d: Sum(rhs),rhsMax =  -8.92349112030917E+01  1.66777841653604E+00
(PID.TID 0000.0001)  ploadbar=  1.01124166106069E+05
 cg2d: Sum(rhs),rhsMax =  -9.00997666250368E+01  1.65181642899097E+00
(PID.TID 0000.0001)  ploadbar=  1.01125036157965E+05
 cg2d: Sum(rhs),rhsMax =  -9.10427146144652E+01  1.63480117020448E+00
(PID.TID 0000.0001)  ploadbar=  1.01125906209861E+05
 cg2d: Sum(rhs),rhsMax =  -9.09925239675479E+01  1.63584003003657E+00
(PID.TID 0000.0001)  ploadbar=  1.01126776261757E+05
 cg2d: Sum(rhs),rhsMax =  -9.04065180064388E+01  1.64658195134139E+00
(PID.TID 0000.0001)  ploadbar=  1.01127016550739E+05
 cg2d: Sum(rhs),rhsMax =  -8.95016244146532E+01  1.66336793335877E+00
(PID.TID 0000.0001)  ploadbar=  1.01127256839722E+05
 cg2d: Sum(rhs),rhsMax =  -8.85088414580070E+01  1.68216050274983E+00
(PID.TID 0000.0001)  ploadbar=  1.01127497128705E+05
 cg2d: Sum(rhs),rhsMax =  -8.79304343790616E+01  1.69335628131609E+00
(PID.TID 0000.0001)  ploadbar=  1.01127737417687E+05
 cg2d: Sum(rhs),rhsMax =  -8.74758243283160E+01  1.70228045625342E+00
(PID.TID 0000.0001)  ploadbar=  1.01127977706670E+05
 cg2d: Sum(rhs),rhsMax =  -8.69040212374038E+01  1.71359482284006E+00
(PID.TID 0000.0001)  ploadbar=  1.01128217995653E+05
 cg2d: Sum(rhs),rhsMax =  -8.62682672870019E+01  1.72633329143596E+00
(PID.TID 0000.0001)  ploadbar=  1.01129111338904E+05
 cg2d: Sum(rhs),rhsMax =  -8.55258111606210E+01  1.74142132512833E+00
(PID.TID 0000.0001)  ploadbar=  1.01130004682154E+05
 cg2d: Sum(rhs),rhsMax =  -8.47480328828498E+01  1.75749436101895E+00
(PID.TID 0000.0001)  ploadbar=  1.01130898025405E+05
 cg2d: Sum(rhs),rhsMax =  -8.39093153927547E+01  1.77513899983891E+00
(PID.TID 0000.0001)  ploadbar=  1.01131791368656E+05
 cg2d: Sum(rhs),rhsMax =  -8.29999038169846E+01  1.79465087738624E+00
(PID.TID 0000.0001)  ploadbar=  1.01132684711906E+05
 cg2d: Sum(rhs),rhsMax =  -8.20221174755578E+01  1.81608746945888E+00
(PID.TID 0000.0001)  ploadbar=  1.01133578055157E+05
 cg2d: Sum(rhs),rhsMax =  -8.10097996703925E+01  1.83881293479688E+00
(PID.TID 0000.0001)  ploadbar=  1.01133917683186E+05
 cg2d: Sum(rhs),rhsMax =  -7.99695177936713E+01  1.86275136525598E+00
(PID.TID 0000.0001)  ploadbar=  1.01134257311215E+05
 cg2d: Sum(rhs),rhsMax =  -7.89371429302908E+01  1.88711799909555E+00
(PID.TID 0000.0001)  ploadbar=  1.01134596939244E+05
 cg2d: Sum(rhs),rhsMax =  -7.79259835569479E+01  1.91159408217145E+00
(PID.TID 0000.0001)  ploadbar=  1.01134936567273E+05
 cg2d: Sum(rhs),rhsMax =  -7.69413714136864E+01  1.93602770083122E+00
(PID.TID 0000.0001)  ploadbar=  1.01135276195303E+05
 cg2d: Sum(rhs),rhsMax =  -7.59863575039479E+01  1.96031059175787E+00
(PID.TID 0000.0001)  ploadbar=  1.01135615823332E+05
 cg2d: Sum(rhs),rhsMax =  -7.51129574050728E+01  1.98311289912978E+00
(PID.TID 0000.0001)  ploadbar=  1.01135670021773E+05
 cg2d: Sum(rhs),rhsMax =  -7.42808332112009E+01  2.00539511553482E+00
(PID.TID 0000.0001)  ploadbar=  1.01135724220214E+05
 cg2d: Sum(rhs),rhsMax =  -7.34902577972167E+01  2.02709001298794E+00
(PID.TID 0000.0001)  ploadbar=  1.01135778418655E+05
 cg2d: Sum(rhs),rhsMax =  -7.27390958199149E+01  2.04820026245079E+00
(PID.TID 0000.0001)  ploadbar=  1.01135832617097E+05
 cg2d: Sum(rhs),rhsMax =  -7.20249666163994E+01  2.06873604079287E+00
(PID.TID 0000.0001)  ploadbar=  1.01135886815538E+05
 cg2d: Sum(rhs),rhsMax =  -7.13437808930004E+01  2.08876081172300E+00
(PID.TID 0000.0001)  ploadbar=  1.01135941013979E+05
 cg2d: Sum(rhs),rhsMax =  -7.07025059571511E+01  2.10799111731570E+00
(PID.TID 0000.0001)  ploadbar=  1.01136390705072E+05
 cg2d: Sum(rhs),rhsMax =  -7.01079143061244E+01  2.12617085414262E+00
(PID.TID 0000.0001)  ploadbar=  1.01136840396164E+05
 cg2d: Sum(rhs),rhsMax =  -6.95561259347062E+01  2.14335369797195E+00
(PID.TID 0000.0001)  ploadbar=  1.01137290087257E+05
 cg2d: Sum(rhs),rhsMax =  -6.90496105305521E+01  2.15940469892378E+00
(PID.TID 0000.0001)  ploadbar=  1.01137739778350E+05
 cg2d: Sum(rhs),rhsMax =  -6.85915949818963E+01  2.17416064694946E+00
(PID.TID 0000.0001)  ploadbar=  1.01138189469442E+05
 cg2d: Sum(rhs),rhsMax =  -6.81775996867589E+01  2.18770459782518E+00
(PID.TID 0000.0001)  ploadbar=  1.01138639160535E+05
 cg2d: Sum(rhs),rhsMax =  -6.78130851413536E+01  2.19982804493563E+00
(PID.TID 0000.0001)  ploadbar=  1.01139397625948E+05
 cg2d: Sum(rhs),rhsMax =  -6.74902954339837E+01  2.21073119763098E+00
(PID.TID 0000.0001)  ploadbar=  1.01140156091360E+05
 cg2d: Sum(rhs),rhsMax =  -6.72085894071895E+01  2.22039381898750E+00
(PID.TID 0000.0001)  ploadbar=  1.01140914556773E+05
 cg2d: Sum(rhs),rhsMax =  -6.69683945233142E+01  2.22876399464917E+00
(PID.TID 0000.0001)  ploadbar=  1.01141673022186E+05
 cg2d: Sum(rhs),rhsMax =  -6.67813271655345E+01  2.23541978282002E+00
(PID.TID 0000.0001)  ploadbar=  1.01142431487599E+05
 cg2d: Sum(rhs),rhsMax =  -6.66570666056731E+01  2.24000529090970E+00
(PID.TID 0000.0001)  ploadbar=  1.01143189953012E+05
 cg2d: Sum(rhs),rhsMax =  -6.66065471189071E+01  2.24208958112946E+00
(PID.TID 0000.0001)  ploadbar=  1.01143993198870E+05
 cg2d: Sum(rhs),rhsMax =  -6.66447530432014E+01  2.24115447638466E+00
(PID.TID 0000.0001)  ploadbar=  1.01144796444728E+05
 cg2d: Sum(rhs),rhsMax =  -6.67254007498270E+01  2.23876013301733E+00
(PID.TID 0000.0001)  ploadbar=  1.01145599690587E+05
 cg2d: Sum(rhs),rhsMax =  -6.70225427250635E+01  2.22911061898307E+00
(PID.TID 0000.0001)  ploadbar=  1.01146402936445E+05
 cg2d: Sum(rhs),rhsMax =  -6.73334865465345E+01  2.21905229451946E+00
(PID.TID 0000.0001)  ploadbar=  1.01147206182303E+05
 cg2d: Sum(rhs),rhsMax =  -6.76685348754364E+01  2.20825873836790E+00
(PID.TID 0000.0001)  ploadbar=  1.01148009428162E+05
 cg2d: Sum(rhs),rhsMax =  -6.80615372703987E+01  2.19576931562036E+00
(PID.TID 0000.0001)  ploadbar=  1.01148513389695E+05
 cg2d: Sum(rhs),rhsMax =  -6.84747366956920E+01  2.18284642965060E+00
(PID.TID 0000.0001)  ploadbar=  1.01149017351229E+05
 cg2d: Sum(rhs),rhsMax =  -6.88746011978162E+01  2.17056434559105E+00
(PID.TID 0000.0001)  ploadbar=  1.01149521312763E+05
 cg2d: Sum(rhs),rhsMax =  -6.92524213434164E+01  2.15917339801227E+00
(PID.TID 0000.0001)  ploadbar=  1.01150025274296E+05
 cg2d: Sum(rhs),rhsMax =  -6.95916114515663E+01  2.14915721944862E+00
(PID.TID 0000.0001)  ploadbar=  1.01150529235830E+05
 cg2d: Sum(rhs),rhsMax =  -6.98740277195379E+01  2.14102727627908E+00
(PID.TID 0000.0001)  ploadbar=  1.01151033197364E+05
 cg2d: Sum(rhs),rhsMax =  -7.01161512575128E+01  2.13415883216808E+00
(PID.TID 0000.0001)  ploadbar=  1.01151484518588E+05
 cg2d: Sum(rhs),rhsMax =  -7.03227229074155E+01  2.12838476245893E+00
(PID.TID 0000.0001)  ploadbar=  1.01151935839811E+05
 cg2d: Sum(rhs),rhsMax =  -7.04931969241132E+01  2.12370243056010E+00
(PID.TID 0000.0001)  ploadbar=  1.01152387161035E+05
 cg2d: Sum(rhs),rhsMax =  -7.06365987109508E+01  2.11982251577087E+00
(PID.TID 0000.0001)  ploadbar=  1.01152838482259E+05
 cg2d: Sum(rhs),rhsMax =  -7.07632400287649E+01  2.11642718499109E+00
(PID.TID 0000.0001)  ploadbar=  1.01153289803483E+05
 cg2d: Sum(rhs),rhsMax =  -7.09116025991156E+01  2.11236034585263E+00
(PID.TID 0000.0001)  ploadbar=  1.01153741124707E+05
 cg2d: Sum(rhs),rhsMax =  -7.10658241157456E+01  2.10813972814282E+00
(PID.TID 0000.0001)  ploadbar=  1.01153199309754E+05
 cg2d: Sum(rhs),rhsMax =  -7.12556150951021E+01  2.10288059590810E+00
(PID.TID 0000.0001)  ploadbar=  1.01152657494800E+05
 cg2d: Sum(rhs),rhsMax =  -7.14544911309773E+01  2.09737177196202E+00
(PID.TID 0000.0001)  ploadbar=  1.01152115679847E+05
 cg2d: Sum(rhs),rhsMax =  -7.16627544261595E+01  2.09160772197512E+00
(PID.TID 0000.0001)  ploadbar=  1.01151573864894E+05
 cg2d: Sum(rhs),rhsMax =  -7.18851693870747E+01  2.08545593867031E+00
(PID.TID 0000.0001)  ploadbar=  1.01151032049941E+05
 cg2d: Sum(rhs),rhsMax =  -7.21184222927734E+01  2.07901750676705E+00
(PID.TID 0000.0001)  ploadbar=  1.01150490234988E+05
 cg2d: Sum(rhs),rhsMax =  -7.22991050787746E+01  2.07410113859917E+00
(PID.TID 0000.0001)  ploadbar=  1.01149999913864E+05
 cg2d: Sum(rhs),rhsMax =  -7.24778266653085E+01  2.06924116635639E+00
(PID.TID 0000.0001)  ploadbar=  1.01149509592741E+05
 cg2d: Sum(rhs),rhsMax =  -7.26405855441959E+01  2.06483263027863E+00
(PID.TID 0000.0001)  ploadbar=  1.01149019271618E+05
 cg2d: Sum(rhs),rhsMax =  -7.27869953319022E+01  2.06088166956058E+00
(PID.TID 0000.0001)  ploadbar=  1.01148528950494E+05
 cg2d: Sum(rhs),rhsMax =  -7.29213905102796E+01  2.05726077684430E+00
(PID.TID 0000.0001)  ploadbar=  1.01148038629371E+05
 cg2d: Sum(rhs),rhsMax =  -7.30413896941553E+01  2.05403119767526E+00
(PID.TID 0000.0001)  ploadbar=  1.01147548308247E+05
 cg2d: Sum(rhs),rhsMax =  -7.31545081880018E+01  2.05105858464949E+00
(PID.TID 0000.0001)  ploadbar=  1.01145919657923E+05
 cg2d: Sum(rhs),rhsMax =  -7.32558610784048E+01  2.04847808742668E+00
(PID.TID 0000.0001)  ploadbar=  1.01144291007599E+05
 cg2d: Sum(rhs),rhsMax =  -7.33462255509433E+01  2.04626426445696E+00
(PID.TID 0000.0001)  ploadbar=  1.01142662357274E+05
 cg2d: Sum(rhs),rhsMax =  -7.34146587983332E+01  2.04471618025292E+00
(PID.TID 0000.0001)  ploadbar=  1.01141033706950E+05
 cg2d: Sum(rhs),rhsMax =  -7.34537219911235E+01  2.04403563335678E+00
(PID.TID 0000.0001)  ploadbar=  1.01139405056626E+05
 cg2d: Sum(rhs),rhsMax =  -7.34543561351999E+01  2.04446949666577E+00
(PID.TID 0000.0001)  ploadbar=  1.01137776406302E+05
 cg2d: Sum(rhs),rhsMax =  -7.33550326702667E+01  2.04769503367159E+00
(PID.TID 0000.0001)  ploadbar=  1.01137418553499E+05
 cg2d: Sum(rhs),rhsMax =  -7.31909584558354E+01  2.05274547141338E+00
(PID.TID 0000.0001)  ploadbar=  1.01137060700696E+05
 cg2d: Sum(rhs),rhsMax =  -7.30184337849593E+01  2.05805189281148E+00
(PID.TID 0000.0001)  ploadbar=  1.01136702847893E+05
 cg2d: Sum(rhs),rhsMax =  -7.29120264358976E+01  2.06150568728070E+00
(PID.TID 0000.0001)  ploadbar=  1.01136344995090E+05
 cg2d: Sum(rhs),rhsMax =  -7.29288785483659E+01  2.06147015215623E+00
(PID.TID 0000.0001)  ploadbar=  1.01135987142287E+05
 cg2d: Sum(rhs),rhsMax =  -7.31222743396771E+01  2.05644511399584E+00
(PID.TID 0000.0001)  ploadbar=  1.01135629289485E+05
 cg2d: Sum(rhs),rhsMax =  -7.35361840726068E+01  2.04529524544784E+00
(PID.TID 0000.0001)  ploadbar=  1.01135994913539E+05
 cg2d: Sum(rhs),rhsMax =  -7.41865788368008E+01  2.02777909746353E+00
(PID.TID 0000.0001)  ploadbar=  1.01136360537594E+05
 cg2d: Sum(rhs),rhsMax =  -7.52095157523049E+01  2.00059863008447E+00
(PID.TID 0000.0001)  ploadbar=  1.01136726161649E+05
 cg2d: Sum(rhs),rhsMax =  -7.66052772094466E+01  1.96452768391361E+00
(PID.TID 0000.0001)  ploadbar=  1.01137091785704E+05
 cg2d: Sum(rhs),rhsMax =  -7.79560252561604E+01  1.93084982457137E+00
(PID.TID 0000.0001)  ploadbar=  1.01137457409758E+05
 cg2d: Sum(rhs),rhsMax =  -7.82537591309392E+01  1.92384742052307E+00
(PID.TID 0000.0001)  ploadbar=  1.01137823033813E+05
 cg2d: Sum(rhs),rhsMax =  -7.79629162429716E+01  1.93133441561294E+00
(PID.TID 0000.0001)  ploadbar=  1.01137450092094E+05
 cg2d: Sum(rhs),rhsMax =  -7.79490509866609E+01  1.93195153903264E+00
(PID.TID 0000.0001)  ploadbar=  1.01137077150376E+05
 cg2d: Sum(rhs),rhsMax =  -7.80379097439777E+01  1.92998631969676E+00
(PID.TID 0000.0001)  ploadbar=  1.01136704208657E+05
 cg2d: Sum(rhs),rhsMax =  -7.80822265468407E+01  1.92908581645184E+00
(PID.TID 0000.0001)  ploadbar=  1.01136331266938E+05
 cg2d: Sum(rhs),rhsMax =  -7.79671582339184E+01  1.93208583725075E+00
(PID.TID 0000.0001)  ploadbar=  1.01135958325220E+05
 cg2d: Sum(rhs),rhsMax =  -7.76725617948316E+01  1.93952273560701E+00
(PID.TID 0000.0001)  ploadbar=  1.01135585383501E+05
 cg2d: Sum(rhs),rhsMax =  -7.73156657089587E+01  1.94863682446659E+00
(PID.TID 0000.0001)  ploadbar=  1.01136728475578E+05
 cg2d: Sum(rhs),rhsMax =  -7.68993036458684E+01  1.95940007386950E+00
(PID.TID 0000.0001)  ploadbar=  1.01137871567656E+05
 cg2d: Sum(rhs),rhsMax =  -7.64146474133230E+01  1.97208889158937E+00
(PID.TID 0000.0001)  ploadbar=  1.01139014659733E+05
 cg2d: Sum(rhs),rhsMax =  -7.58560326565180E+01  1.98691874835525E+00
(PID.TID 0000.0001)  ploadbar=  1.01140157751810E+05
 cg2d: Sum(rhs),rhsMax =  -7.52160690776226E+01  2.00417317763719E+00
(PID.TID 0000.0001)  ploadbar=  1.01141300843887E+05
 cg2d: Sum(rhs),rhsMax =  -7.44926335196275E+01  2.02402280881921E+00
(PID.TID 0000.0001)  ploadbar=  1.01142443935965E+05
 cg2d: Sum(rhs),rhsMax =  -7.37944008415024E+01  2.04356009409684E+00
(PID.TID 0000.0001)  ploadbar=  1.01143023462397E+05
 cg2d: Sum(rhs),rhsMax =  -7.31124085659434E+01  2.06300411127352E+00
(PID.TID 0000.0001)  ploadbar=  1.01143602988829E+05
 cg2d: Sum(rhs),rhsMax =  -7.24753393279352E+01  2.08151305976117E+00
(PID.TID 0000.0001)  ploadbar=  1.01144182515260E+05
 cg2d: Sum(rhs),rhsMax =  -7.19180151770518E+01  2.09801059491618E+00
(PID.TID 0000.0001)  ploadbar=  1.01144762041692E+05
 cg2d: Sum(rhs),rhsMax =  -7.14583239015227E+01  2.11186327696602E+00
(PID.TID 0000.0001)  ploadbar=  1.01145341568124E+05
 cg2d: Sum(rhs),rhsMax =  -7.10992144966959E+01  2.12287146082635E+00
(PID.TID 0000.0001)  ploadbar=  1.01145921094556E+05
 cg2d: Sum(rhs),rhsMax =  -7.08890629658231E+01  2.12951144556365E+00
(PID.TID 0000.0001)  ploadbar=  1.01145889334464E+05
 cg2d: Sum(rhs),rhsMax =  -7.07759079781965E+01  2.13326419027424E+00
(PID.TID 0000.0001)  ploadbar=  1.01145857574372E+05
 cg2d: Sum(rhs),rhsMax =  -7.07408434398070E+01  2.13466755860984E+00
(PID.TID 0000.0001)  ploadbar=  1.01145825814281E+05
 cg2d: Sum(rhs),rhsMax =  -7.07934872829482E+01  2.13342266636098E+00
(PID.TID 0000.0001)  ploadbar=  1.01145794054189E+05
 cg2d: Sum(rhs),rhsMax =  -7.09399201375915E+01  2.12935683894689E+00
(PID.TID 0000.0001)  ploadbar=  1.01145762294097E+05
 cg2d: Sum(rhs),rhsMax =  -7.11805900620426E+01  2.12248993650483E+00
(PID.TID 0000.0001)  ploadbar=  1.01145730534005E+05
 cg2d: Sum(rhs),rhsMax =  -7.14816077269709E+01  2.11385084329161E+00
(PID.TID 0000.0001)  ploadbar=  1.01145561120909E+05
 cg2d: Sum(rhs),rhsMax =  -7.18637276800481E+01  2.10287287289850E+00
(PID.TID 0000.0001)  ploadbar=  1.01145391707813E+05
 cg2d: Sum(rhs),rhsMax =  -7.23857105237961E+01  2.08793247275999E+00
(PID.TID 0000.0001)  ploadbar=  1.01145222294717E+05
 cg2d: Sum(rhs),rhsMax =  -7.29986537368145E+01  2.07058565471030E+00
(PID.TID 0000.0001)  ploadbar=  1.01145052881621E+05
 cg2d: Sum(rhs),rhsMax =  -7.35979142160884E+01  2.05387211065227E+00
(PID.TID 0000.0001)  ploadbar=  1.01144883468525E+05
 cg2d: Sum(rhs),rhsMax =  -7.42177158742233E+01  2.03682683560640E+00
(PID.TID 0000.0001)  ploadbar=  1.01144714055429E+05
 cg2d: Sum(rhs),rhsMax =  -7.48377295365169E+01  2.02009396616808E+00
(PID.TID 0000.0001)  ploadbar=  1.01144665561879E+05
 cg2d: Sum(rhs),rhsMax =  -7.54522768773973E+01  2.00381578482980E+00
(PID.TID 0000.0001)  ploadbar=  1.01144617068329E+05
 cg2d: Sum(rhs),rhsMax =  -7.60405153247989E+01  1.98852085770037E+00
(PID.TID 0000.0001)  ploadbar=  1.01144568574779E+05
 cg2d: Sum(rhs),rhsMax =  -7.66040291765129E+01  1.97412912456514E+00
(PID.TID 0000.0001)  ploadbar=  1.01144520081229E+05
 cg2d: Sum(rhs),rhsMax =  -7.71394810129320E+01  1.96068863753915E+00
(PID.TID 0000.0001)  ploadbar=  1.01144471587679E+05
 cg2d: Sum(rhs),rhsMax =  -7.76422043351302E+01  1.94827894256101E+00
(PID.TID 0000.0001)  ploadbar=  1.01144423094129E+05
 cg2d: Sum(rhs),rhsMax =  -7.80959098915112E+01  1.93723963942816E+00
(PID.TID 0000.0001)  ploadbar=  1.01145121478031E+05
 cg2d: Sum(rhs),rhsMax =  -7.85256720460479E+01  1.92691239930936E+00
(PID.TID 0000.0001)  ploadbar=  1.01145819861933E+05
 cg2d: Sum(rhs),rhsMax =  -7.89383898365778E+01  1.91710857281105E+00
(PID.TID 0000.0001)  ploadbar=  1.01146518245834E+05
 cg2d: Sum(rhs),rhsMax =  -7.93367022907198E+01  1.90774900630704E+00
(PID.TID 0000.0001)  ploadbar=  1.01147216629736E+05
 cg2d: Sum(rhs),rhsMax =  -7.97247832221915E+01  1.89872058959109E+00
(PID.TID 0000.0001)  ploadbar=  1.01147915013638E+05
 cg2d: Sum(rhs),rhsMax =  -8.01045537549166E+01  1.88996692087786E+00
(PID.TID 0000.0001)  ploadbar=  1.01148613397540E+05
 cg2d: Sum(rhs),rhsMax =  -8.04457759299365E+01  1.88219170404225E+00
(PID.TID 0000.0001)  ploadbar=  1.01148922860656E+05
 cg2d: Sum(rhs),rhsMax =  -8.07643512023955E+01  1.87500030933578E+00
(PID.TID 0000.0001)  ploadbar=  1.01149232323773E+05
 cg2d: Sum(rhs),rhsMax =  -8.10638563401475E+01  1.86829661078556E+00
(PID.TID 0000.0001)  ploadbar=  1.01149541786890E+05
 cg2d: Sum(rhs),rhsMax =  -8.13353184406823E+01  1.86227375749482E+00
(PID.TID 0000.0001)  ploadbar=  1.01149851250006E+05
 cg2d: Sum(rhs),rhsMax =  -8.15751550993330E+01  1.85699833230382E+00
(PID.TID 0000.0001)  ploadbar=  1.01150160713123E+05
 cg2d: Sum(rhs),rhsMax =  -8.17823721599776E+01  1.85247881569651E+00
(PID.TID 0000.0001)  ploadbar=  1.01150470176239E+05
 cg2d: Sum(rhs),rhsMax =  -8.19775578111015E+01  1.84823226854071E+00
(PID.TID 0000.0001)  ploadbar=  1.01150490389784E+05
 cg2d: Sum(rhs),rhsMax =  -8.21491314305661E+01  1.84451306548990E+00
(PID.TID 0000.0001)  ploadbar=  1.01150510603329E+05
 cg2d: Sum(rhs),rhsMax =  -8.23084274341917E+01  1.84105936795614E+00
(PID.TID 0000.0001)  ploadbar=  1.01150530816874E+05
 cg2d: Sum(rhs),rhsMax =  -8.24630227788446E+01  1.83769803250573E+00
(PID.TID 0000.0001)  ploadbar=  1.01150551030418E+05
 cg2d: Sum(rhs),rhsMax =  -8.26116561885626E+01  1.83445467197174E+00
(PID.TID 0000.0001)  ploadbar=  1.01150571243963E+05
 cg2d: Sum(rhs),rhsMax =  -8.27548475383737E+01  1.83131571971958E+00
(PID.TID 0000.0001)  ploadbar=  1.01150591457508E+05
 cg2d: Sum(rhs),rhsMax =  -8.28915356376637E+01  1.82838617516537E+00
(PID.TID 0000.0001)  ploadbar=  1.01149268762012E+05
 cg2d: Sum(rhs),rhsMax =  -8.30123724079030E+01  1.82586883419381E+00
(PID.TID 0000.0001)  ploadbar=  1.01147946066516E+05
 cg2d: Sum(rhs),rhsMax =  -8.31424997850041E+01  1.82320566595102E+00
(PID.TID 0000.0001)  ploadbar=  1.01146623371021E+05
 cg2d: Sum(rhs),rhsMax =  -8.32983906366665E+01  1.82003791077952E+00
(PID.TID 0000.0001)  ploadbar=  1.01145300675525E+05
 cg2d: Sum(rhs),rhsMax =  -8.34928677508258E+01  1.81609106976038E+00
(PID.TID 0000.0001)  ploadbar=  1.01143977980029E+05
 cg2d: Sum(rhs),rhsMax =  -8.37352974537818E+01  1.81117012067269E+00
(PID.TID 0000.0001)  ploadbar=  1.01142655284533E+05
 cg2d: Sum(rhs),rhsMax =  -8.40081615562984E+01  1.80559888195325E+00
(PID.TID 0000.0001)  ploadbar=  1.01142442587971E+05
 cg2d: Sum(rhs),rhsMax =  -8.43148887659580E+01  1.79931243755964E+00
(PID.TID 0000.0001)  ploadbar=  1.01142229891410E+05
 cg2d: Sum(rhs),rhsMax =  -8.46448032503496E+01  1.79255329318790E+00
(PID.TID 0000.0001)  ploadbar=  1.01142017194849E+05
 cg2d: Sum(rhs),rhsMax =  -8.49884512658341E+01  1.78553094430254E+00
(PID.TID 0000.0001)  ploadbar=  1.01141804498287E+05
 cg2d: Sum(rhs),rhsMax =  -8.53444818187253E+01  1.77827965606676E+00
(PID.TID 0000.0001)  ploadbar=  1.01141591801726E+05
 cg2d: Sum(rhs),rhsMax =  -8.57143808522115E+01  1.77077307458528E+00
(PID.TID 0000.0001)  ploadbar=  1.01141379105164E+05
 cg2d: Sum(rhs),rhsMax =  -8.61129894980742E+01  1.76274829353110E+00
(PID.TID 0000.0001)  ploadbar=  1.01141591447631E+05
 cg2d: Sum(rhs),rhsMax =  -8.65454569433802E+01  1.75411657435056E+00
(PID.TID 0000.0001)  ploadbar=  1.01141803790098E+05
 cg2d: Sum(rhs),rhsMax =  -8.70117176387491E+01  1.74489953555557E+00
(PID.TID 0000.0001)  ploadbar=  1.01142016132565E+05
 cg2d: Sum(rhs),rhsMax =  -8.75149228008644E+01  1.73505444874325E+00
(PID.TID 0000.0001)  ploadbar=  1.01142228475032E+05
 cg2d: Sum(rhs),rhsMax =  -8.80568829895427E+01  1.72456665257973E+00
(PID.TID 0000.0001)  ploadbar=  1.01142440817499E+05
 cg2d: Sum(rhs),rhsMax =  -8.86401193319212E+01  1.71341232081077E+00
(PID.TID 0000.0001)  ploadbar=  1.01142653159966E+05
 cg2d: Sum(rhs),rhsMax =  -8.93007664483122E+01  1.70091004199452E+00
(PID.TID 0000.0001)  ploadbar=  1.01141987421076E+05
 cg2d: Sum(rhs),rhsMax =  -9.00180600008665E+01  1.68750921569421E+00
(PID.TID 0000.0001)  ploadbar=  1.01141321682186E+05
 cg2d: Sum(rhs),rhsMax =  -9.07761376050564E+01  1.67354517999997E+00
(PID.TID 0000.0001)  ploadbar=  1.01140655943296E+05
 cg2d: Sum(rhs),rhsMax =  -9.15860718603599E+01  1.65885000871495E+00
(PID.TID 0000.0001)  ploadbar=  1.01139990204406E+05
 cg2d: Sum(rhs),rhsMax =  -9.24585877722724E+01  1.64327652196651E+00
(PID.TID 0000.0001)  ploadbar=  1.01139324465516E+05
 cg2d: Sum(rhs),rhsMax =  -9.33981167110159E+01  1.62680267164526E+00
(PID.TID 0000.0001)  ploadbar=  1.01138658726626E+05
 cg2d: Sum(rhs),rhsMax =  -9.45203061580384E+01  1.60760587948043E+00
(PID.TID 0000.0001)  ploadbar=  1.01138459479690E+05
 cg2d: Sum(rhs),rhsMax =  -9.59961991749899E+01  1.58306297483017E+00
(PID.TID 0000.0001)  ploadbar=  1.01138260232754E+05
 cg2d: Sum(rhs),rhsMax =  -9.79084748682551E+01  1.55236895428161E+00
(PID.TID 0000.0001)  ploadbar=  1.01138060985819E+05
 cg2d: Sum(rhs),rhsMax =  -1.00283001594833E+02  1.51588382831196E+00
(PID.TID 0000.0001)  ploadbar=  1.01137861738883E+05
 cg2d: Sum(rhs),rhsMax =  -1.03128525959325E+02  1.47436752117766E+00
(PID.TID 0000.0001)  ploadbar=  1.01137662491947E+05
 cg2d: Sum(rhs),rhsMax =  -1.06413762309609E+02  1.42919213037983E+00
(PID.TID 0000.0001)  ploadbar=  1.01137463245011E+05
 cg2d: Sum(rhs),rhsMax =  -1.08875628263505E+02  1.39719724426351E+00
(PID.TID 0000.0001)  ploadbar=  1.01136119218212E+05
 cg2d: Sum(rhs),rhsMax =  -1.08279621217093E+02  1.40519561809713E+00
(PID.TID 0000.0001)  ploadbar=  1.01134775191413E+05
 cg2d: Sum(rhs),rhsMax =  -1.07735119249719E+02  1.41259017687652E+00
(PID.TID 0000.0001)  ploadbar=  1.01133431164614E+05
 cg2d: Sum(rhs),rhsMax =  -1.07259184904773E+02  1.41913428833375E+00
(PID.TID 0000.0001)  ploadbar=  1.01132087137815E+05
 cg2d: Sum(rhs),rhsMax =  -1.06854699732367E+02  1.42476331688452E+00
(PID.TID 0000.0001)  ploadbar=  1.01130743111016E+05
 cg2d: Sum(rhs),rhsMax =  -1.06501056436688E+02  1.42973169093818E+00
(PID.TID 0000.0001)  ploadbar=  1.01129399084216E+05
 cg2d: Sum(rhs),rhsMax =  -1.06153914321729E+02  1.43463480870286E+00
(PID.TID 0000.0001)  ploadbar=  1.01128819848227E+05
 cg2d: Sum(rhs),rhsMax =  -1.05746839602356E+02  1.44037455622271E+00
(PID.TID 0000.0001)  ploadbar=  1.01128240612238E+05
 cg2d: Sum(rhs),rhsMax =  -1.05258220283267E+02  1.44726715034481E+00
(PID.TID 0000.0001)  ploadbar=  1.01127661376249E+05
 cg2d: Sum(rhs),rhsMax =  -1.04705198904868E+02  1.45510587020127E+00
(PID.TID 0000.0001)  ploadbar=  1.01127082140260E+05
 cg2d: Sum(rhs),rhsMax =  -1.04105552429452E+02  1.46366895309219E+00
(PID.TID 0000.0001)  ploadbar=  1.01126502904271E+05
 cg2d: Sum(rhs),rhsMax =  -1.03494817930319E+02  1.47247331018380E+00
(PID.TID 0000.0001)  ploadbar=  1.01125923668282E+05
 cg2d: Sum(rhs),rhsMax =  -1.02879412230606E+02  1.48143876072036E+00
(PID.TID 0000.0001)  ploadbar=  1.01125500023168E+05
 cg2d: Sum(rhs),rhsMax =  -1.02305966732722E+02  1.48988823731360E+00
(PID.TID 0000.0001)  ploadbar=  1.01125076378054E+05
 cg2d: Sum(rhs),rhsMax =  -1.01766099987429E+02  1.49792452658434E+00
(PID.TID 0000.0001)  ploadbar=  1.01124652732940E+05
 cg2d: Sum(rhs),rhsMax =  -1.01248157702651E+02  1.50570417852985E+00
(PID.TID 0000.0001)  ploadbar=  1.01124229087826E+05
 cg2d: Sum(rhs),rhsMax =  -1.00744964739706E+02  1.51332503775643E+00
(PID.TID 0000.0001)  ploadbar=  1.01123805442712E+05
 cg2d: Sum(rhs),rhsMax =  -1.00261552978178E+02  1.52070299835047E+00
(PID.TID 0000.0001)  ploadbar=  1.01123381797597E+05
 cg2d: Sum(rhs),rhsMax =  -9.97481814600173E+01  1.52864980678310E+00
(PID.TID 0000.0001)  ploadbar=  1.01122370209204E+05
 cg2d: Sum(rhs),rhsMax =  -9.92069175494921E+01  1.53714779387317E+00
(PID.TID 0000.0001)  ploadbar=  1.01121358620812E+05
 cg2d: Sum(rhs),rhsMax =  -9.86102717100930E+01  1.54664299012470E+00
(PID.TID 0000.0001)  ploadbar=  1.01120347032419E+05
 cg2d: Sum(rhs),rhsMax =  -9.79529673758329E+01  1.55725294646785E+00
(PID.TID 0000.0001)  ploadbar=  1.01119335444026E+05
 cg2d: Sum(rhs),rhsMax =  -9.72834426078356E+01  1.56823802121407E+00
(PID.TID 0000.0001)  ploadbar=  1.01118323855633E+05
 cg2d: Sum(rhs),rhsMax =  -9.66296279597217E+01  1.57914780358442E+00
(PID.TID 0000.0001)  ploadbar=  1.01117312267240E+05
 cg2d: Sum(rhs),rhsMax =  -9.60579733626909E+01  1.58885900049877E+00
(PID.TID 0000.0001)  ploadbar=  1.01116867832439E+05
 cg2d: Sum(rhs),rhsMax =  -9.55511747942588E+01  1.59761297317532E+00
(PID.TID 0000.0001)  ploadbar=  1.01116423397639E+05
 cg2d: Sum(rhs),rhsMax =  -9.51188724440715E+01  1.60521026623083E+00
(PID.TID 0000.0001)  ploadbar=  1.01115978962839E+05
 cg2d: Sum(rhs),rhsMax =  -9.47876147850643E+01  1.61116501263390E+00
(PID.TID 0000.0001)  ploadbar=  1.01115534528038E+05
 cg2d: Sum(rhs),rhsMax =  -9.45640443701485E+01  1.61532533760390E+00
(PID.TID 0000.0001)  ploadbar=  1.01115090093238E+05
 cg2d: Sum(rhs),rhsMax =  -9.44477091520920E+01  1.61767040123183E+00
(PID.TID 0000.0001)  ploadbar=  1.01114645658438E+05
 cg2d: Sum(rhs),rhsMax =  -9.44199941781729E+01  1.61850002173449E+00
(PID.TID 0000.0001)  ploadbar=  1.01115252584199E+05
 cg2d: Sum(rhs),rhsMax =  -9.44682763689400E+01  1.61802320882200E+00
(PID.TID 0000.0001)  ploadbar=  1.01115859509961E+05
 cg2d: Sum(rhs),rhsMax =  -9.45659144168850E+01  1.61669655408218E+00
(PID.TID 0000.0001)  ploadbar=  1.01116466435722E+05
 cg2d: Sum(rhs),rhsMax =  -9.46753165180682E+01  1.61516521136470E+00
(PID.TID 0000.0001)  ploadbar=  1.01117073361483E+05
 cg2d: Sum(rhs),rhsMax =  -9.47708540301355E+01  1.61386433151214E+00
(PID.TID 0000.0001)  ploadbar=  1.01117680287245E+05
 cg2d: Sum(rhs),rhsMax =  -9.48421671253008E+01  1.61296571810238E+00
(PID.TID 0000.0001)  ploadbar=  1.01118287213006E+05
 cg2d: Sum(rhs),rhsMax =  -9.48738254074890E+01  1.61271791759241E+00
(PID.TID 0000.0001)  ploadbar=  1.01119102772382E+05
 cg2d: Sum(rhs),rhsMax =  -9.48765622944454E+01  1.61293591322463E+00
(PID.TID 0000.0001)  ploadbar=  1.01119918331758E+05
 cg2d: Sum(rhs),rhsMax =  -9.48806384684257E+01  1.61310370275947E+00
(PID.TID 0000.0001)  ploadbar=  1.01120733891133E+05
 cg2d: Sum(rhs),rhsMax =  -9.49118455149877E+01  1.61278063778859E+00
(PID.TID 0000.0001)  ploadbar=  1.01121549450509E+05
 cg2d: Sum(rhs),rhsMax =  -9.49963468523025E+01  1.61152089321287E+00
(PID.TID 0000.0001)  ploadbar=  1.01122365009885E+05
 cg2d: Sum(rhs),rhsMax =  -9.51476751637611E+01  1.60909880739194E+00
(PID.TID 0000.0001)  ploadbar=  1.01123180569261E+05
 cg2d: Sum(rhs),rhsMax =  -9.53799605990687E+01  1.60535612840223E+00
(PID.TID 0000.0001)  ploadbar=  1.01122285011461E+05
 cg2d: Sum(rhs),rhsMax =  -9.56668549697712E+01  1.60075277515471E+00
(PID.TID 0000.0001)  ploadbar=  1.01121389453661E+05
 cg2d: Sum(rhs),rhsMax =  -9.59876983161276E+01  1.59564652776663E+00
(PID.TID 0000.0001)  ploadbar=  1.01120493895861E+05
 cg2d: Sum(rhs),rhsMax =  -9.62948983718866E+01  1.59083075472210E+00
(PID.TID 0000.0001)  ploadbar=  1.01119598338061E+05
 cg2d: Sum(rhs),rhsMax =  -9.65877021513514E+01  1.58631135060456E+00
(PID.TID 0000.0001)  ploadbar=  1.01118702780261E+05
 cg2d: Sum(rhs),rhsMax =  -9.68857250280649E+01  1.58176045432852E+00
(PID.TID 0000.0001)  ploadbar=  1.01117807222461E+05
 cg2d: Sum(rhs),rhsMax =  -9.71509594055320E+01  1.57776805118898E+00
(PID.TID 0000.0001)  ploadbar=  1.01118474142604E+05
 cg2d: Sum(rhs),rhsMax =  -9.73565201956985E+01  1.57475616815630E+00
(PID.TID 0000.0001)  ploadbar=  1.01119141062747E+05
 cg2d: Sum(rhs),rhsMax =  -9.74992219440582E+01  1.57276312576721E+00
(PID.TID 0000.0001)  ploadbar=  1.01119807982889E+05
 cg2d: Sum(rhs),rhsMax =  -9.75926707200642E+01  1.57155997021170E+00
(PID.TID 0000.0001)  ploadbar=  1.01120474903032E+05
 cg2d: Sum(rhs),rhsMax =  -9.76454242510583E+01  1.57100333897096E+00
(PID.TID 0000.0001)  ploadbar=  1.01121141823175E+05
 cg2d: Sum(rhs),rhsMax =  -9.76665170831114E+01  1.57094295094787E+00
(PID.TID 0000.0001)  ploadbar=  1.01121808743317E+05
 cg2d: Sum(rhs),rhsMax =  -9.76539526020669E+01  1.57143984819130E+00
(PID.TID 0000.0001)  ploadbar=  1.01122512149178E+05
 cg2d: Sum(rhs),rhsMax =  -9.76010667782619E+01  1.57259993320632E+00
(PID.TID 0000.0001)  ploadbar=  1.01123215555039E+05
 cg2d: Sum(rhs),rhsMax =  -9.75072202565489E+01  1.57443394108740E+00
(PID.TID 0000.0001)  ploadbar=  1.01123918960900E+05
 cg2d: Sum(rhs),rhsMax =  -9.73637136877869E+01  1.57708552993773E+00
(PID.TID 0000.0001)  ploadbar=  1.01124622366761E+05
 cg2d: Sum(rhs),rhsMax =  -9.71720870117510E+01  1.58053507116231E+00
(PID.TID 0000.0001)  ploadbar=  1.01125325772622E+05
 cg2d: Sum(rhs),rhsMax =  -9.69520007704197E+01  1.58446759597821E+00
(PID.TID 0000.0001)  ploadbar=  1.01126029178483E+05
 cg2d: Sum(rhs),rhsMax =  -9.67151644984263E+01  1.58868017879983E+00
(PID.TID 0000.0001)  ploadbar=  1.01126524636223E+05
 cg2d: Sum(rhs),rhsMax =  -9.64864241974365E+01  1.59276604338062E+00
(PID.TID 0000.0001)  ploadbar=  1.01127020093964E+05
 cg2d: Sum(rhs),rhsMax =  -9.62675927268813E+01  1.59669173800819E+00
(PID.TID 0000.0001)  ploadbar=  1.01127515551705E+05
 cg2d: Sum(rhs),rhsMax =  -9.60621106509411E+01  1.60039565795331E+00
(PID.TID 0000.0001)  ploadbar=  1.01128011009446E+05
 cg2d: Sum(rhs),rhsMax =  -9.58690586515800E+01  1.60388692024299E+00
(PID.TID 0000.0001)  ploadbar=  1.01128506467186E+05
 cg2d: Sum(rhs),rhsMax =  -9.56813772235696E+01  1.60727999938106E+00
(PID.TID 0000.0001)  ploadbar=  1.01129001924927E+05
 cg2d: Sum(rhs),rhsMax =  -9.55127276287682E+01  1.61040632109238E+00
(PID.TID 0000.0001)  ploadbar=  1.01129573714285E+05
 cg2d: Sum(rhs),rhsMax =  -9.53565154022735E+01  1.61337299452880E+00
(PID.TID 0000.0001)  ploadbar=  1.01130145503643E+05
 cg2d: Sum(rhs),rhsMax =  -9.52281401907034E+01  1.61591240185339E+00
(PID.TID 0000.0001)  ploadbar=  1.01130717293001E+05
 cg2d: Sum(rhs),rhsMax =  -9.51406720658482E+01  1.61779744596611E+00
(PID.TID 0000.0001)  ploadbar=  1.01131289082359E+05
 cg2d: Sum(rhs),rhsMax =  -9.51101556658472E+01  1.61874891626860E+00
(PID.TID 0000.0001)  ploadbar=  1.01131860871717E+05
 cg2d: Sum(rhs),rhsMax =  -9.51481007442583E+01  1.61856685163318E+00
(PID.TID 0000.0001)  ploadbar=  1.01132432661075E+05
 cg2d: Sum(rhs),rhsMax =  -9.52352080244642E+01  1.61754459645536E+00
(PID.TID 0000.0001)  ploadbar=  1.01133333122255E+05
 cg2d: Sum(rhs),rhsMax =  -9.54220117388178E+01  1.61483067139561E+00
(PID.TID 0000.0001)  ploadbar=  1.01134233583435E+05
 cg2d: Sum(rhs),rhsMax =  -9.56620849255420E+01  1.61122524413719E+00
(PID.TID 0000.0001)  ploadbar=  1.01135134044615E+05
 cg2d: Sum(rhs),rhsMax =  -9.58961867772464E+01  1.60773322055362E+00
(PID.TID 0000.0001)  ploadbar=  1.01136034505795E+05
 cg2d: Sum(rhs),rhsMax =  -9.61963595137655E+01  1.60315037006201E+00
(PID.TID 0000.0001)  ploadbar=  1.01136934966975E+05
 cg2d: Sum(rhs),rhsMax =  -9.66302644551577E+01  1.59637529785145E+00
(PID.TID 0000.0001)  ploadbar=  1.01137835428155E+05
 cg2d: Sum(rhs),rhsMax =  -9.71063598044689E+01  1.58898883659381E+00
(PID.TID 0000.0001)  ploadbar=  1.01139364066157E+05
 cg2d: Sum(rhs),rhsMax =  -9.75053222966880E+01  1.58294336086971E+00
(PID.TID 0000.0001)  ploadbar=  1.01140892704160E+05
 cg2d: Sum(rhs),rhsMax =  -9.77683159993023E+01  1.57915535687123E+00
(PID.TID 0000.0001)  ploadbar=  1.01142421342162E+05
 cg2d: Sum(rhs),rhsMax =  -9.79450149869292E+01  1.57678947828954E+00
(PID.TID 0000.0001)  ploadbar=  1.01143949980165E+05
 cg2d: Sum(rhs),rhsMax =  -9.81052482498379E+01  1.57470668455547E+00
(PID.TID 0000.0001)  ploadbar=  1.01145478618167E+05
 cg2d: Sum(rhs),rhsMax =  -9.82422353749594E+01  1.57301256565492E+00
(PID.TID 0000.0001)  ploadbar=  1.01147007256170E+05
 cg2d: Sum(rhs),rhsMax =  -9.85166127425267E+01  1.56909091185690E+00
(PID.TID 0000.0001)  ploadbar=  1.01148400083483E+05
 cg2d: Sum(rhs),rhsMax =  -9.88952213119262E+01  1.56350289859153E+00
(PID.TID 0000.0001)  ploadbar=  1.01149792910796E+05
 cg2d: Sum(rhs),rhsMax =  -9.94006676034446E+01  1.55592936853860E+00
(PID.TID 0000.0001)  ploadbar=  1.01151185738108E+05
 cg2d: Sum(rhs),rhsMax =  -1.00198864089015E+02  1.54386870726478E+00
(PID.TID 0000.0001)  ploadbar=  1.01152578565421E+05
 cg2d: Sum(rhs),rhsMax =  -1.01412634037600E+02  1.52568171763126E+00
(PID.TID 0000.0001)  ploadbar=  1.01153971392734E+05
 cg2d: Sum(rhs),rhsMax =  -1.03049010301234E+02  1.50170207597773E+00
(PID.TID 0000.0001)  ploadbar=  1.01155364220047E+05
 cg2d: Sum(rhs),rhsMax =  -1.04995374245077E+02  1.47411300429784E+00
(PID.TID 0000.0001)  ploadbar=  1.01157482078909E+05
 cg2d: Sum(rhs),rhsMax =  -1.07143955714553E+02  1.44480468969725E+00
(PID.TID 0000.0001)  ploadbar=  1.01159599937771E+05
 cg2d: Sum(rhs),rhsMax =  -1.09308950091197E+02  1.41644361491902E+00
(PID.TID 0000.0001)  ploadbar=  1.01161717796633E+05
 cg2d: Sum(rhs),rhsMax =  -1.11268577713179E+02  1.39175372716185E+00
(PID.TID 0000.0001)  ploadbar=  1.01163835655494E+05
 cg2d: Sum(rhs),rhsMax =  -1.13059468824179E+02  1.36996018348118E+00
(PID.TID 0000.0001)  ploadbar=  1.01165953514356E+05
 cg2d: Sum(rhs),rhsMax =  -1.14844242933284E+02  1.34891431844565E+00
(PID.TID 0000.0001)  ploadbar=  1.01168071373218E+05
 cg2d: Sum(rhs),rhsMax =  -1.16498809548552E+02  1.33000008974721E+00
(PID.TID 0000.0001)  ploadbar=  1.01168555805609E+05
 cg2d: Sum(rhs),rhsMax =  -1.18232304486810E+02  1.31074154292956E+00
(PID.TID 0000.0001)  ploadbar=  1.01169040237999E+05
 cg2d: Sum(rhs),rhsMax =  -1.20084654003083E+02  1.29076017782243E+00
(PID.TID 0000.0001)  ploadbar=  1.01169524670390E+05
 cg2d: Sum(rhs),rhsMax =  -1.22034213487049E+02  1.27036902439359E+00
(PID.TID 0000.0001)  ploadbar=  1.01170009102780E+05
 cg2d: Sum(rhs),rhsMax =  -1.24015328456314E+02  1.25029274523106E+00
(PID.TID 0000.0001)  ploadbar=  1.01170493535171E+05
 cg2d: Sum(rhs),rhsMax =  -1.25908912392926E+02  1.23169116665832E+00
(PID.TID 0000.0001)  ploadbar=  1.01170977967561E+05
 cg2d: Sum(rhs),rhsMax =  -1.27710868852902E+02  1.21451372719867E+00
(PID.TID 0000.0001)  ploadbar=  1.01170232264069E+05
 cg2d: Sum(rhs),rhsMax =  -1.29109745241876E+02  1.20155184446727E+00
(PID.TID 0000.0001)  ploadbar=  1.01169486560577E+05
 cg2d: Sum(rhs),rhsMax =  -1.30201248889259E+02  1.19166738508040E+00
(PID.TID 0000.0001)  ploadbar=  1.01168740857086E+05
 cg2d: Sum(rhs),rhsMax =  -1.31441658524057E+02  1.18059867607030E+00
(PID.TID 0000.0001)  ploadbar=  1.01167995153594E+05
 cg2d: Sum(rhs),rhsMax =  -1.32793946164292E+02  1.16873915837748E+00
(PID.TID 0000.0001)  ploadbar=  1.01167249450102E+05
 cg2d: Sum(rhs),rhsMax =  -1.34157212053700E+02  1.15700977671497E+00
(PID.TID 0000.0001)  ploadbar=  1.01166503746610E+05
 cg2d: Sum(rhs),rhsMax =  -1.35454974444184E+02  1.14604854999425E+00
(PID.TID 0000.0001)  ploadbar=  1.01165742249217E+05
 cg2d: Sum(rhs),rhsMax =  -1.32736561814261E+02  1.16962103623226E+00
(PID.TID 0000.0001)  ploadbar=  1.01164980751824E+05
 cg2d: Sum(rhs),rhsMax =  -1.27646759976759E+02  1.21633669137782E+00
(PID.TID 0000.0001)  ploadbar=  1.01164219254431E+05
 cg2d: Sum(rhs),rhsMax =  -1.23359606201552E+02  1.25865949777387E+00
(PID.TID 0000.0001)  ploadbar=  1.01163457757038E+05
 cg2d: Sum(rhs),rhsMax =  -1.19803151528599E+02  1.29604528817276E+00
(PID.TID 0000.0001)  ploadbar=  1.01162696259645E+05
 cg2d: Sum(rhs),rhsMax =  -1.16831401858848E+02  1.32900033397056E+00
(PID.TID 0000.0001)  ploadbar=  1.01161934762253E+05
 cg2d: Sum(rhs),rhsMax =  -1.14271792141713E+02  1.35879117303522E+00
(PID.TID 0000.0001)  ploadbar=  1.01162567495822E+05
 cg2d: Sum(rhs),rhsMax =  -1.12005210842353E+02  1.38634325060986E+00
(PID.TID 0000.0001)  ploadbar=  1.01163200229392E+05
 cg2d: Sum(rhs),rhsMax =  -1.09950282163419E+02  1.41233879511891E+00
(PID.TID 0000.0001)  ploadbar=  1.01163832962962E+05
 cg2d: Sum(rhs),rhsMax =  -1.08071767609594E+02  1.43700181517593E+00
(PID.TID 0000.0001)  ploadbar=  1.01164465696531E+05
 cg2d: Sum(rhs),rhsMax =  -1.06384871712285E+02  1.45992563045593E+00
(PID.TID 0000.0001)  ploadbar=  1.01165098430101E+05
 cg2d: Sum(rhs),rhsMax =  -1.04945374880826E+02  1.48010914403271E+00
(PID.TID 0000.0001)  ploadbar=  1.01165731163671E+05
 cg2d: Sum(rhs),rhsMax =  -1.03863853070229E+02  1.49568017076540E+00
(PID.TID 0000.0001)  ploadbar=  1.01165676707698E+05
 cg2d: Sum(rhs),rhsMax =  -1.03173368568562E+02  1.50584603307147E+00
(PID.TID 0000.0001)  ploadbar=  1.01165622251725E+05
 cg2d: Sum(rhs),rhsMax =  -1.02802454631653E+02  1.51142993145319E+00
(PID.TID 0000.0001)  ploadbar=  1.01165567795751E+05
 cg2d: Sum(rhs),rhsMax =  -1.02587692846295E+02  1.51473445067892E+00
(PID.TID 0000.0001)  ploadbar=  1.01165513339778E+05
 cg2d: Sum(rhs),rhsMax =  -1.02390174782686E+02  1.51778231258751E+00
(PID.TID 0000.0001)  ploadbar=  1.01165458883805E+05
 cg2d: Sum(rhs),rhsMax =  -1.02157614446588E+02  1.52134376690537E+00
(PID.TID 0000.0001)  ploadbar=  1.01165404427832E+05
 cg2d: Sum(rhs),rhsMax =  -1.01835473761419E+02  1.52623980032210E+00
(PID.TID 0000.0001)  ploadbar=  1.01165800804172E+05
 cg2d: Sum(rhs),rhsMax =  -1.01473866059111E+02  1.53173586386664E+00
(PID.TID 0000.0001)  ploadbar=  1.01166197180513E+05
 cg2d: Sum(rhs),rhsMax =  -1.01152211620388E+02  1.53663402644782E+00
(PID.TID 0000.0001)  ploadbar=  1.01166593556854E+05
 cg2d: Sum(rhs),rhsMax =  -1.00931337316074E+02  1.53999095412994E+00
(PID.TID 0000.0001)  ploadbar=  1.01166989933194E+05
 cg2d: Sum(rhs),rhsMax =  -1.00840158834080E+02  1.54133993041477E+00
(PID.TID 0000.0001)  ploadbar=  1.01167386309535E+05
 cg2d: Sum(rhs),rhsMax =  -1.00892682384045E+02  1.54045380717198E+00
(PID.TID 0000.0001)  ploadbar=  1.01167782685876E+05
 cg2d: Sum(rhs),rhsMax =  -1.01062138532726E+02  1.53775331580671E+00
(PID.TID 0000.0001)  ploadbar=  1.01168027412818E+05
 cg2d: Sum(rhs),rhsMax =  -1.01331051979163E+02  1.53351870666295E+00
(PID.TID 0000.0001)  ploadbar=  1.01168272139760E+05
 cg2d: Sum(rhs),rhsMax =  -1.01621566139330E+02  1.52894330647170E+00
(PID.TID 0000.0001)  ploadbar=  1.01168516866702E+05
 cg2d: Sum(rhs),rhsMax =  -1.00547371025711E+02  1.54504360778878E+00
(PID.TID 0000.0001)  ploadbar=  1.01168761593644E+05
 cg2d: Sum(rhs),rhsMax =  -9.93217314596049E+01  1.56382936126909E+00
(PID.TID 0000.0001)  ploadbar=  1.01169006320586E+05
 cg2d: Sum(rhs),rhsMax =  -9.81726855917403E+01  1.58180401648771E+00
(PID.TID 0000.0001)  ploadbar=  1.01169251047528E+05
 cg2d: Sum(rhs),rhsMax =  -9.69548497228141E+01  1.60138424015761E+00
(PID.TID 0000.0001)  ploadbar=  1.01168905842618E+05
 cg2d: Sum(rhs),rhsMax =  -9.55855901514211E+01  1.62407337908926E+00
(PID.TID 0000.0001)  ploadbar=  1.01168560637708E+05
 cg2d: Sum(rhs),rhsMax =  -9.40492558931668E+01  1.65038855076097E+00
(PID.TID 0000.0001)  ploadbar=  1.01168215432798E+05
 cg2d: Sum(rhs),rhsMax =  -9.24029222932735E+01  1.67961248908883E+00
(PID.TID 0000.0001)  ploadbar=  1.01167870227888E+05
 cg2d: Sum(rhs),rhsMax =  -9.06995808417710E+01  1.71100354126373E+00
(PID.TID 0000.0001)  ploadbar=  1.01167525022978E+05
 cg2d: Sum(rhs),rhsMax =  -8.89931865335505E+01  1.74368283693010E+00
(PID.TID 0000.0001)  ploadbar=  1.01167179818068E+05
 cg2d: Sum(rhs),rhsMax =  -8.74042366009000E+01  1.77526568621104E+00
(PID.TID 0000.0001)  ploadbar=  1.01168518806873E+05
 cg2d: Sum(rhs),rhsMax =  -8.59949884598750E+01  1.80425226403406E+00
(PID.TID 0000.0001)  ploadbar=  1.01169857795678E+05
 cg2d: Sum(rhs),rhsMax =  -8.47709706994944E+01  1.83020285549291E+00
(PID.TID 0000.0001)  ploadbar=  1.01171196784484E+05
 cg2d: Sum(rhs),rhsMax =  -8.36882092850487E+01  1.85378024059831E+00
(PID.TID 0000.0001)  ploadbar=  1.01172535773289E+05
 cg2d: Sum(rhs),rhsMax =  -8.26841035996897E+01  1.87618475495273E+00
(PID.TID 0000.0001)  ploadbar=  1.01173874762094E+05
 cg2d: Sum(rhs),rhsMax =  -8.17177812059151E+01  1.89825156426149E+00
(PID.TID 0000.0001)  ploadbar=  1.01175213750899E+05
 cg2d: Sum(rhs),rhsMax =  -8.08141076318663E+01  1.91938666285184E+00
(PID.TID 0000.0001)  ploadbar=  1.01176143335039E+05
 cg2d: Sum(rhs),rhsMax =  -8.00118454766100E+01  1.93856391715288E+00
(PID.TID 0000.0001)  ploadbar=  1.01177072919179E+05
 cg2d: Sum(rhs),rhsMax =  -7.93571884731565E+01  1.95450469595394E+00
(PID.TID 0000.0001)  ploadbar=  1.01178002503319E+05
 cg2d: Sum(rhs),rhsMax =  -7.88514922459525E+01  1.96699754233760E+00
(PID.TID 0000.0001)  ploadbar=  1.01178932087458E+05
 cg2d: Sum(rhs),rhsMax =  -7.84808179975020E+01  1.97624922251708E+00
(PID.TID 0000.0001)  ploadbar=  1.01179861671598E+05
 cg2d: Sum(rhs),rhsMax =  -7.82488805841233E+01  1.98206301149535E+00
(PID.TID 0000.0001)  ploadbar=  1.01180791255738E+05
 cg2d: Sum(rhs),rhsMax =  -7.81737761457948E+01  1.98390380552871E+00
(PID.TID 0000.0001)  ploadbar=  1.01181729305013E+05
 cg2d: Sum(rhs),rhsMax =  -7.82706189048547E+01  1.98136247705300E+00
(PID.TID 0000.0001)  ploadbar=  1.01182667354287E+05
 cg2d: Sum(rhs),rhsMax =  -7.84960383633911E+01  1.97555966685863E+00
(PID.TID 0000.0001)  ploadbar=  1.01183605403562E+05
 cg2d: Sum(rhs),rhsMax =  -7.86132151450098E+01  1.97247137869892E+00
(PID.TID 0000.0001)  ploadbar=  1.01184543452837E+05
 cg2d: Sum(rhs),rhsMax =  -7.87556541022233E+01  1.96872370523874E+00
(PID.TID 0000.0001)  ploadbar=  1.01185481502111E+05
 cg2d: Sum(rhs),rhsMax =  -7.89931343785190E+01  1.96258415413735E+00
(PID.TID 0000.0001)  ploadbar=  1.01186419551386E+05
 cg2d: Sum(rhs),rhsMax =  -7.92413653349268E+01  1.95627207950339E+00
(PID.TID 0000.0001)  ploadbar=  1.01186481377537E+05
 cg2d: Sum(rhs),rhsMax =  -7.94630025084436E+01  1.95070551211641E+00
(PID.TID 0000.0001)  ploadbar=  1.01186543203688E+05
 cg2d: Sum(rhs),rhsMax =  -7.96517328859343E+01  1.94602138334222E+00
(PID.TID 0000.0001)  ploadbar=  1.01186605029839E+05
 cg2d: Sum(rhs),rhsMax =  -7.98214149151008E+01  1.94186528615459E+00
(PID.TID 0000.0001)  ploadbar=  1.01186666855990E+05
 cg2d: Sum(rhs),rhsMax =  -7.99889371866667E+01  1.93781461537329E+00
(PID.TID 0000.0001)  ploadbar=  1.01186728682141E+05
 cg2d: Sum(rhs),rhsMax =  -8.01701037748871E+01  1.93348123039125E+00
(PID.TID 0000.0001)  ploadbar=  1.01186790508292E+05
 cg2d: Sum(rhs),rhsMax =  -8.03869030336497E+01  1.92828141417936E+00
(PID.TID 0000.0001)  ploadbar=  1.01187572484857E+05
 cg2d: Sum(rhs),rhsMax =  -8.06495641674998E+01  1.92198492568188E+00
(PID.TID 0000.0001)  ploadbar=  1.01188354461421E+05
 cg2d: Sum(rhs),rhsMax =  -8.09555710103217E+01  1.91466722154466E+00
(PID.TID 0000.0001)  ploadbar=  1.01189136437985E+05
 cg2d: Sum(rhs),rhsMax =  -8.12916507588788E+01  1.90665889166409E+00
(PID.TID 0000.0001)  ploadbar=  1.01189918414549E+05
 cg2d: Sum(rhs),rhsMax =  -8.16331904175452E+01  1.89854458664069E+00
(PID.TID 0000.0001)  ploadbar=  1.01190700391114E+05
 cg2d: Sum(rhs),rhsMax =  -8.19812719318516E+01  1.89029693222772E+00
(PID.TID 0000.0001)  ploadbar=  1.01191482367678E+05
 cg2d: Sum(rhs),rhsMax =  -8.23426493441177E+01  1.88181930041075E+00
(PID.TID 0000.0001)  ploadbar=  1.01191512919352E+05
 cg2d: Sum(rhs),rhsMax =  -8.27211467359231E+01  1.87303072043385E+00
(PID.TID 0000.0001)  ploadbar=  1.01191543471026E+05
 cg2d: Sum(rhs),rhsMax =  -8.31229355151478E+01  1.86379966770288E+00
(PID.TID 0000.0001)  ploadbar=  1.01191574022700E+05
 cg2d: Sum(rhs),rhsMax =  -8.35539239164303E+01  1.85400560900978E+00
(PID.TID 0000.0001)  ploadbar=  1.01191604574374E+05
 cg2d: Sum(rhs),rhsMax =  -8.40168496712233E+01  1.84360257942259E+00
(PID.TID 0000.0001)  ploadbar=  1.01191635126048E+05
 cg2d: Sum(rhs),rhsMax =  -8.45118142160799E+01  1.83260578399426E+00
(PID.TID 0000.0001)  ploadbar=  1.01191665677722E+05
 cg2d: Sum(rhs),rhsMax =  -8.50653005837549E+01  1.82047878082527E+00
(PID.TID 0000.0001)  ploadbar=  1.01192301557463E+05
 cg2d: Sum(rhs),rhsMax =  -8.56479363323085E+01  1.80788707714706E+00
(PID.TID 0000.0001)  ploadbar=  1.01192937437204E+05
 cg2d: Sum(rhs),rhsMax =  -8.62487823498748E+01  1.79507752302350E+00
(PID.TID 0000.0001)  ploadbar=  1.01193573316945E+05
 cg2d: Sum(rhs),rhsMax =  -8.68556552844608E+01  1.78230997581795E+00
(PID.TID 0000.0001)  ploadbar=  1.01194209196686E+05
 cg2d: Sum(rhs),rhsMax =  -8.74521790298408E+01  1.76991619017628E+00
(PID.TID 0000.0001)  ploadbar=  1.01194845076427E+05
 cg2d: Sum(rhs),rhsMax =  -8.80257042595111E+01  1.75813357531639E+00
(PID.TID 0000.0001)  ploadbar=  1.01195480956168E+05
 cg2d: Sum(rhs),rhsMax =  -8.85740819980314E+01  1.74704719034859E+00
(PID.TID 0000.0001)  ploadbar=  1.01196952637147E+05
 cg2d: Sum(rhs),rhsMax =  -8.90651581383393E+01  1.73725981463071E+00
(PID.TID 0000.0001)  ploadbar=  1.01198424318126E+05
 cg2d: Sum(rhs),rhsMax =  -8.95024206905144E+01  1.72866005668564E+00
(PID.TID 0000.0001)  ploadbar=  1.01199895999105E+05
 cg2d: Sum(rhs),rhsMax =  -8.98931161619828E+01  1.72107261341437E+00
(PID.TID 0000.0001)  ploadbar=  1.01201367680084E+05
 cg2d: Sum(rhs),rhsMax =  -8.93907520548539E+01  1.73070509158544E+00
(PID.TID 0000.0001)  ploadbar=  1.01202839361063E+05
 cg2d: Sum(rhs),rhsMax =  -8.87365220950737E+01  1.74345576473001E+00
(PID.TID 0000.0001)  ploadbar=  1.01204311042042E+05
 cg2d: Sum(rhs),rhsMax =  -8.83747482816094E+01  1.75057709485432E+00
(PID.TID 0000.0001)  ploadbar=  1.01204238641180E+05
 cg2d: Sum(rhs),rhsMax =  -8.82457600853130E+01  1.75311233364221E+00
(PID.TID 0000.0001)  ploadbar=  1.01204166240319E+05
 cg2d: Sum(rhs),rhsMax =  -8.82617210354368E+01  1.75276063770559E+00
(PID.TID 0000.0001)  ploadbar=  1.01204093839457E+05
 cg2d: Sum(rhs),rhsMax =  -8.83473769899230E+01  1.75101241136772E+00
(PID.TID 0000.0001)  ploadbar=  1.01204021438595E+05
 cg2d: Sum(rhs),rhsMax =  -8.84485784566988E+01  1.74894222231595E+00
(PID.TID 0000.0001)  ploadbar=  1.01203949037734E+05
 cg2d: Sum(rhs),rhsMax =  -8.85377460189848E+01  1.74709172249383E+00
(PID.TID 0000.0001)  ploadbar=  1.01203876636872E+05
 cg2d: Sum(rhs),rhsMax =  -8.85913338217647E+01  1.74595449366102E+00
(PID.TID 0000.0001)  ploadbar=  1.01204406680635E+05
 cg2d: Sum(rhs),rhsMax =  -8.86362591939864E+01  1.74499615520549E+00
(PID.TID 0000.0001)  ploadbar=  1.01204936724397E+05
 cg2d: Sum(rhs),rhsMax =  -8.87184671184143E+01  1.74331038046256E+00
(PID.TID 0000.0001)  ploadbar=  1.01205466768160E+05
 cg2d: Sum(rhs),rhsMax =  -8.88717997286443E+01  1.74023721312561E+00
(PID.TID 0000.0001)  ploadbar=  1.01205996811922E+05
 cg2d: Sum(rhs),rhsMax =  -8.91196410990763E+01  1.73533128596310E+00
(PID.TID 0000.0001)  ploadbar=  1.01206526855685E+05
 cg2d: Sum(rhs),rhsMax =  -8.94641533257449E+01  1.72857614107926E+00
(PID.TID 0000.0001)  ploadbar=  1.01207056899447E+05
 cg2d: Sum(rhs),rhsMax =  -8.98900055040952E+01  1.72027884995408E+00
(PID.TID 0000.0001)  ploadbar=  1.01206941238241E+05
 cg2d: Sum(rhs),rhsMax =  -9.03783914009724E+01  1.71083749910366E+00
(PID.TID 0000.0001)  ploadbar=  1.01206825577034E+05
 cg2d: Sum(rhs),rhsMax =  -9.06336866983213E+01  1.70583426546515E+00
(PID.TID 0000.0001)  ploadbar=  1.01206709915828E+05
 cg2d: Sum(rhs),rhsMax =  -9.11137522675235E+01  1.69662436476508E+00
(PID.TID 0000.0001)  ploadbar=  1.01206594254621E+05
 cg2d: Sum(rhs),rhsMax =  -9.18943636469192E+01  1.68195303644445E+00
(PID.TID 0000.0001)  ploadbar=  1.01206478593415E+05
 cg2d: Sum(rhs),rhsMax =  -9.28711027826438E+01  1.66396659810218E+00
(PID.TID 0000.0001)  ploadbar=  1.01206362932209E+05
 cg2d: Sum(rhs),rhsMax =  -9.37931070193810E+01  1.64737904938037E+00
(PID.TID 0000.0001)  ploadbar=  1.01206233291942E+05
 cg2d: Sum(rhs),rhsMax =  -9.44252371563584E+01  1.63618231663622E+00
(PID.TID 0000.0001)  ploadbar=  1.01206103651676E+05
 cg2d: Sum(rhs),rhsMax =  -9.49414468512573E+01  1.62717367550325E+00
(PID.TID 0000.0001)  ploadbar=  1.01205974011410E+05
 cg2d: Sum(rhs),rhsMax =  -9.53358497177875E+01  1.62038339337163E+00
(PID.TID 0000.0001)  ploadbar=  1.01205844371143E+05
 cg2d: Sum(rhs),rhsMax =  -9.56174348122755E+01  1.61560098398069E+00
(PID.TID 0000.0001)  ploadbar=  1.01205714730877E+05
 cg2d: Sum(rhs),rhsMax =  -9.58010607767965E+01  1.61253751031024E+00
(PID.TID 0000.0001)  ploadbar=  1.01205585090611E+05
 cg2d: Sum(rhs),rhsMax =  -9.58776021113903E+01  1.61126502249898E+00
(PID.TID 0000.0001)  ploadbar=  1.01205013698394E+05
 cg2d: Sum(rhs),rhsMax =  -9.58620494520709E+01  1.61152115168190E+00
(PID.TID 0000.0001)  ploadbar=  1.01204442306178E+05
 cg2d: Sum(rhs),rhsMax =  -9.57826997593723E+01  1.61282823288280E+00
(PID.TID 0000.0001)  ploadbar=  1.01203870913962E+05
 cg2d: Sum(rhs),rhsMax =  -9.56759440889141E+01  1.61457681541421E+00
(PID.TID 0000.0001)  ploadbar=  1.01203299521745E+05
 cg2d: Sum(rhs),rhsMax =  -9.55772893875846E+01  1.61616681202741E+00
(PID.TID 0000.0001)  ploadbar=  1.01202728129529E+05
 cg2d: Sum(rhs),rhsMax =  -9.55264792317229E+01  1.61691955858506E+00
(PID.TID 0000.0001)  ploadbar=  1.01202156737312E+05
 cg2d: Sum(rhs),rhsMax =  -9.55370426103986E+01  1.61663678214386E+00
(PID.TID 0000.0001)  ploadbar=  1.01200652132872E+05
 cg2d: Sum(rhs),rhsMax =  -9.56067816365492E+01  1.61535304326041E+00
(PID.TID 0000.0001)  ploadbar=  1.01199147528431E+05
 cg2d: Sum(rhs),rhsMax =  -9.57385250074841E+01  1.61302200337317E+00
(PID.TID 0000.0001)  ploadbar=  1.01197642923991E+05
 cg2d: Sum(rhs),rhsMax =  -9.59339765335067E+01  1.60961956902004E+00
(PID.TID 0000.0001)  ploadbar=  1.01196138319550E+05
 cg2d: Sum(rhs),rhsMax =  -9.61942267449374E+01  1.60513858109319E+00
(PID.TID 0000.0001)  ploadbar=  1.01194633715109E+05
 cg2d: Sum(rhs),rhsMax =  -9.65113050209014E+01  1.59972288955752E+00
(PID.TID 0000.0001)  ploadbar=  1.01193129110669E+05
 cg2d: Sum(rhs),rhsMax =  -9.68634031924242E+01  1.59377225799361E+00
(PID.TID 0000.0001)  ploadbar=  1.01191482327677E+05
 cg2d: Sum(rhs),rhsMax =  -9.72241507820976E+01  1.58772682408029E+00
(PID.TID 0000.0001)  ploadbar=  1.01189835544685E+05
 cg2d: Sum(rhs),rhsMax =  -9.75854433873887E+01  1.58172164172087E+00
(PID.TID 0000.0001)  ploadbar=  1.01188188761693E+05
 cg2d: Sum(rhs),rhsMax =  -9.79587729012797E+01  1.57557187352256E+00
(PID.TID 0000.0001)  ploadbar=  1.01186541978701E+05
 cg2d: Sum(rhs),rhsMax =  -9.82313619106715E+01  1.57108261885115E+00
(PID.TID 0000.0001)  ploadbar=  1.01184895195710E+05
 cg2d: Sum(rhs),rhsMax =  -9.83858993547042E+01  1.56850082565956E+00
(PID.TID 0000.0001)  ploadbar=  1.01183248412718E+05
 cg2d: Sum(rhs),rhsMax =  -9.84629715094635E+01  1.56720974423995E+00
(PID.TID 0000.0001)  ploadbar=  1.01182072498622E+05
 cg2d: Sum(rhs),rhsMax =  -9.77637622503089E+01  1.57840307529158E+00
(PID.TID 0000.0001)  ploadbar=  1.01180896584526E+05
 cg2d: Sum(rhs),rhsMax =  -9.59954853210478E+01  1.60751100426112E+00
(PID.TID 0000.0001)  ploadbar=  1.01179720670430E+05
 cg2d: Sum(rhs),rhsMax =  -9.42619344670860E+01  1.63715426043843E+00
(PID.TID 0000.0001)  ploadbar=  1.01178544756335E+05
 cg2d: Sum(rhs),rhsMax =  -9.26396451745743E+01  1.66594829395442E+00
(PID.TID 0000.0001)  ploadbar=  1.01177368842239E+05
 cg2d: Sum(rhs),rhsMax =  -9.11840848816719E+01  1.69270808363057E+00
(PID.TID 0000.0001)  ploadbar=  1.01176192928143E+05
 cg2d: Sum(rhs),rhsMax =  -8.99280095675697E+01  1.71653103038243E+00
(PID.TID 0000.0001)  ploadbar=  1.01175351630069E+05
 cg2d: Sum(rhs),rhsMax =  -8.88847147972656E+01  1.73687040687950E+00
(PID.TID 0000.0001)  ploadbar=  1.01174510331994E+05
 cg2d: Sum(rhs),rhsMax =  -8.79927857478506E+01  1.75467683256189E+00
(PID.TID 0000.0001)  ploadbar=  1.01173669033920E+05
 cg2d: Sum(rhs),rhsMax =  -8.71877871965696E+01  1.77108753767438E+00
(PID.TID 0000.0001)  ploadbar=  1.01172827735845E+05
 cg2d: Sum(rhs),rhsMax =  -8.64220353689353E+01  1.78699913978920E+00
(PID.TID 0000.0001)  ploadbar=  1.01171986437771E+05
 cg2d: Sum(rhs),rhsMax =  -8.56484823696848E+01  1.80336467846307E+00
(PID.TID 0000.0001)  ploadbar=  1.01171145139696E+05
 cg2d: Sum(rhs),rhsMax =  -8.48737541742910E+01  1.82004504599275E+00
(PID.TID 0000.0001)  ploadbar=  1.01169549095544E+05
 cg2d: Sum(rhs),rhsMax =  -8.41264588831471E+01  1.83642336114874E+00
(PID.TID 0000.0001)  ploadbar=  1.01167953051392E+05
 cg2d: Sum(rhs),rhsMax =  -8.34116852841972E+01  1.85236048979544E+00
(PID.TID 0000.0001)  ploadbar=  1.01166357007240E+05
 cg2d: Sum(rhs),rhsMax =  -8.27411902324168E+01  1.86755733040650E+00
(PID.TID 0000.0001)  ploadbar=  1.01164760963088E+05
 cg2d: Sum(rhs),rhsMax =  -8.21272318370340E+01  1.88168728081577E+00
(PID.TID 0000.0001)  ploadbar=  1.01163164918936E+05
 cg2d: Sum(rhs),rhsMax =  -8.15835951108861E+01  1.89437335074545E+00
(PID.TID 0000.0001)  ploadbar=  1.01161568874784E+05
 cg2d: Sum(rhs),rhsMax =  -8.11169826310708E+01  1.90540648595315E+00
(PID.TID 0000.0001)  ploadbar=  1.01161575649684E+05
 cg2d: Sum(rhs),rhsMax =  -8.07237093283740E+01  1.91481348862284E+00
(PID.TID 0000.0001)  ploadbar=  1.01161582424583E+05
 cg2d: Sum(rhs),rhsMax =  -8.03844576054862E+01  1.92300473297827E+00
(PID.TID 0000.0001)  ploadbar=  1.01161589199483E+05
 cg2d: Sum(rhs),rhsMax =  -8.00814424080284E+01  1.93037627530953E+00
(PID.TID 0000.0001)  ploadbar=  1.01161595974383E+05
 cg2d: Sum(rhs),rhsMax =  -7.97948995524579E+01  1.93738615100352E+00
(PID.TID 0000.0001)  ploadbar=  1.01161602749283E+05
 cg2d: Sum(rhs),rhsMax =  -7.95110479873426E+01  1.94435839556668E+00
(PID.TID 0000.0001)  ploadbar=  1.01161609524183E+05
 cg2d: Sum(rhs),rhsMax =  -7.91519978844956E+01  1.95327568879095E+00
(PID.TID 0000.0001)  ploadbar=  1.01163097249859E+05
 cg2d: Sum(rhs),rhsMax =  -7.87377109169419E+01  1.96369133904299E+00
(PID.TID 0000.0001)  ploadbar=  1.01164584975535E+05
 cg2d: Sum(rhs),rhsMax =  -7.82755616477184E+01  1.97546446709006E+00
(PID.TID 0000.0001)  ploadbar=  1.01166072701211E+05
 cg2d: Sum(rhs),rhsMax =  -7.77843037809445E+01  1.98815625109965E+00
(PID.TID 0000.0001)  ploadbar=  1.01167560426888E+05
 cg2d: Sum(rhs),rhsMax =  -7.72988490765117E+01  2.00089146724901E+00
(PID.TID 0000.0001)  ploadbar=  1.01169048152564E+05
 cg2d: Sum(rhs),rhsMax =  -7.68431702320224E+01  2.01303625263088E+00
(PID.TID 0000.0001)  ploadbar=  1.01170535878240E+05
 cg2d: Sum(rhs),rhsMax =  -7.64368480193755E+01  2.02400197041623E+00
(PID.TID 0000.0001)  ploadbar=  1.01169720993552E+05
 cg2d: Sum(rhs),rhsMax =  -7.60373576856187E+01  2.03488536584879E+00
(PID.TID 0000.0001)  ploadbar=  1.01168906108865E+05
 cg2d: Sum(rhs),rhsMax =  -7.56465068316782E+01  2.04562916178626E+00
(PID.TID 0000.0001)  ploadbar=  1.01168091224178E+05
 cg2d: Sum(rhs),rhsMax =  -7.52617823203588E+01  2.05629400194151E+00
(PID.TID 0000.0001)  ploadbar=  1.01167276339491E+05
 cg2d: Sum(rhs),rhsMax =  -7.48767089442471E+01  2.06705344213860E+00
(PID.TID 0000.0001)  ploadbar=  1.01166461454803E+05
 cg2d: Sum(rhs),rhsMax =  -7.44786251356842E+01  2.07826007781073E+00
(PID.TID 0000.0001)  ploadbar=  1.01165646570116E+05
 cg2d: Sum(rhs),rhsMax =  -7.40702260331530E+01  2.08986574456279E+00
(PID.TID 0000.0001)  ploadbar=  1.01164563160885E+05
 cg2d: Sum(rhs),rhsMax =  -7.36338274993758E+01  2.10238312540158E+00
(PID.TID 0000.0001)  ploadbar=  1.01163479751654E+05
 cg2d: Sum(rhs),rhsMax =  -7.31557680851748E+01  2.11623404908190E+00
(PID.TID 0000.0001)  ploadbar=  1.01162396342423E+05
 cg2d: Sum(rhs),rhsMax =  -7.26433643450095E+01  2.13124831367621E+00
(PID.TID 0000.0001)  ploadbar=  1.01161312933191E+05
 cg2d: Sum(rhs),rhsMax =  -7.21183855152246E+01  2.14681599739258E+00
(PID.TID 0000.0001)  ploadbar=  1.01160229523960E+05
 cg2d: Sum(rhs),rhsMax =  -7.16083506358194E+01  2.16212232402836E+00
(PID.TID 0000.0001)  ploadbar=  1.01159146114729E+05
 cg2d: Sum(rhs),rhsMax =  -7.10932721573412E+01  2.17781211333788E+00
(PID.TID 0000.0001)  ploadbar=  1.01159041163316E+05
 cg2d: Sum(rhs),rhsMax =  -7.06046953855717E+01  2.19291397479362E+00
(PID.TID 0000.0001)  ploadbar=  1.01158936211902E+05
 cg2d: Sum(rhs),rhsMax =  -7.01350718442772E+01  2.20763021405961E+00
(PID.TID 0000.0001)  ploadbar=  1.01158831260489E+05
 cg2d: Sum(rhs),rhsMax =  -6.96805341791236E+01  2.22205968438134E+00
(PID.TID 0000.0001)  ploadbar=  1.01158726309076E+05
 cg2d: Sum(rhs),rhsMax =  -6.92443079069303E+01  2.23607716404988E+00
(PID.TID 0000.0001)  ploadbar=  1.01158621357662E+05
 cg2d: Sum(rhs),rhsMax =  -6.88380372700299E+01  2.24927881780554E+00
(PID.TID 0000.0001)  ploadbar=  1.01158516406249E+05
 cg2d: Sum(rhs),rhsMax =  -6.85892198309293E+01  2.25751464794501E+00
(PID.TID 0000.0001)  ploadbar=  1.01158855513615E+05
 cg2d: Sum(rhs),rhsMax =  -6.84755788837205E+01  2.26140513166438E+00
(PID.TID 0000.0001)  ploadbar=  1.01159194620980E+05
 cg2d: Sum(rhs),rhsMax =  -6.84864485580384E+01  2.26125233813255E+00
(PID.TID 0000.0001)  ploadbar=  1.01159533728346E+05
 cg2d: Sum(rhs),rhsMax =  -6.85946327255385E+01  2.25794781921613E+00
(PID.TID 0000.0001)  ploadbar=  1.01159872835712E+05
 cg2d: Sum(rhs),rhsMax =  -6.87743791947844E+01  2.25235466843519E+00
(PID.TID 0000.0001)  ploadbar=  1.01160211943077E+05
 cg2d: Sum(rhs),rhsMax =  -6.90021168957455E+01  2.24526813788381E+00
(PID.TID 0000.0001)  ploadbar=  1.01160551050443E+05
 cg2d: Sum(rhs),rhsMax =  -6.91213033871972E+01  2.24173311996442E+00
(PID.TID 0000.0001)  ploadbar=  1.01160401096401E+05
 cg2d: Sum(rhs),rhsMax =  -6.91911166843041E+01  2.23979143418799E+00
(PID.TID 0000.0001)  ploadbar=  1.01160251142360E+05
 cg2d: Sum(rhs),rhsMax =  -6.92059749968334E+01  2.23961352689662E+00
(PID.TID 0000.0001)  ploadbar=  1.01160101188318E+05
 cg2d: Sum(rhs),rhsMax =  -6.91756917194465E+01  2.24087806133009E+00
(PID.TID 0000.0001)  ploadbar=  1.01159951234277E+05
 cg2d: Sum(rhs),rhsMax =  -6.91259105113869E+01  2.24275622928498E+00
(PID.TID 0000.0001)  ploadbar=  1.01159801280235E+05
 cg2d: Sum(rhs),rhsMax =  -6.90843423604633E+01  2.24434425777956E+00
(PID.TID 0000.0001)  ploadbar=  1.01159651326194E+05
 cg2d: Sum(rhs),rhsMax =  -6.90683789649188E+01  2.24509686325091E+00
(PID.TID 0000.0001)  ploadbar=  1.01157930106130E+05
 cg2d: Sum(rhs),rhsMax =  -6.90315335348699E+01  2.24651940958253E+00
(PID.TID 0000.0001)  ploadbar=  1.01156208886067E+05
 cg2d: Sum(rhs),rhsMax =  -6.89960833230954E+01  2.24788346679025E+00
(PID.TID 0000.0001)  ploadbar=  1.01154487666004E+05
 cg2d: Sum(rhs),rhsMax =  -6.90252289196459E+01  2.24712605236752E+00
(PID.TID 0000.0001)  ploadbar=  1.01152766445940E+05
 cg2d: Sum(rhs),rhsMax =  -6.91414901168007E+01  2.24351829971427E+00
(PID.TID 0000.0001)  ploadbar=  1.01151045225877E+05
 cg2d: Sum(rhs),rhsMax =  -6.93778319617187E+01  2.23601936320941E+00
(PID.TID 0000.0001)  ploadbar=  1.01149324005813E+05
 cg2d: Sum(rhs),rhsMax =  -6.97989257689974E+01  2.22267355595820E+00
(PID.TID 0000.0001)  ploadbar=  1.01147875815637E+05
 cg2d: Sum(rhs),rhsMax =  -7.03472450745560E+01  2.20548898609866E+00
(PID.TID 0000.0001)  ploadbar=  1.01146427625460E+05
 cg2d: Sum(rhs),rhsMax =  -7.09762091741243E+01  2.18607908841835E+00
(PID.TID 0000.0001)  ploadbar=  1.01144979435284E+05
 cg2d: Sum(rhs),rhsMax =  -7.16415586563376E+01  2.16590016123022E+00
(PID.TID 0000.0001)  ploadbar=  1.01143531245107E+05
 cg2d: Sum(rhs),rhsMax =  -7.23122464515334E+01  2.14592053223371E+00
(PID.TID 0000.0001)  ploadbar=  1.01142083054930E+05
 cg2d: Sum(rhs),rhsMax =  -7.30010091258189E+01  2.12576421554577E+00
(PID.TID 0000.0001)  ploadbar=  1.01140634864754E+05
 cg2d: Sum(rhs),rhsMax =  -7.37185416438842E+01  2.10520174316513E+00
(PID.TID 0000.0001)  ploadbar=  1.01139900387208E+05
 cg2d: Sum(rhs),rhsMax =  -7.45133534018990E+01  2.08290569933045E+00
(PID.TID 0000.0001)  ploadbar=  1.01139165909663E+05
 cg2d: Sum(rhs),rhsMax =  -7.54077001749649E+01  2.05838865668953E+00
(PID.TID 0000.0001)  ploadbar=  1.01138431432118E+05
 cg2d: Sum(rhs),rhsMax =  -7.64289537113276E+01  2.03109281930310E+00
(PID.TID 0000.0001)  ploadbar=  1.01137696954573E+05
 cg2d: Sum(rhs),rhsMax =  -7.75806511507372E+01  2.00116678797561E+00
(PID.TID 0000.0001)  ploadbar=  1.01136962477028E+05
 cg2d: Sum(rhs),rhsMax =  -7.88495184883237E+01  1.96919912991929E+00
(PID.TID 0000.0001)  ploadbar=  1.01136227999483E+05
 cg2d: Sum(rhs),rhsMax =  -8.02074990245066E+01  1.93609350804736E+00
(PID.TID 0000.0001)  ploadbar=  1.01136213456646E+05
 cg2d: Sum(rhs),rhsMax =  -8.15957583762799E+01  1.90338289559461E+00
(PID.TID 0000.0001)  ploadbar=  1.01136198913809E+05
 cg2d: Sum(rhs),rhsMax =  -8.29458317970444E+01  1.87262259471388E+00
(PID.TID 0000.0001)  ploadbar=  1.01136184370972E+05
 cg2d: Sum(rhs),rhsMax =  -8.42836244362145E+01  1.84310542986825E+00
(PID.TID 0000.0001)  ploadbar=  1.01136169828136E+05
 cg2d: Sum(rhs),rhsMax =  -8.55613729879323E+01  1.81576968325853E+00
(PID.TID 0000.0001)  ploadbar=  1.01136155285299E+05
 cg2d: Sum(rhs),rhsMax =  -8.68314907212711E+01  1.78938111616354E+00
(PID.TID 0000.0001)  ploadbar=  1.01136140742462E+05
 cg2d: Sum(rhs),rhsMax =  -8.80390582409724E+01  1.76498942215568E+00
(PID.TID 0000.0001)  ploadbar=  1.01133373279269E+05
 cg2d: Sum(rhs),rhsMax =  -8.92531700281287E+01  1.74110423931553E+00
(PID.TID 0000.0001)  ploadbar=  1.01130605816076E+05
 cg2d: Sum(rhs),rhsMax =  -9.04492647385707E+01  1.71817120187981E+00
(PID.TID 0000.0001)  ploadbar=  1.01127838352883E+05
 cg2d: Sum(rhs),rhsMax =  -9.16014699648058E+01  1.69661357547082E+00
(PID.TID 0000.0001)  ploadbar=  1.01125070889690E+05
 cg2d: Sum(rhs),rhsMax =  -9.26732843474382E+01  1.67700397996077E+00
(PID.TID 0000.0001)  ploadbar=  1.01122303426497E+05
 cg2d: Sum(rhs),rhsMax =  -9.36321586507780E+01  1.65979824112950E+00
(PID.TID 0000.0001)  ploadbar=  1.01119535963304E+05
 cg2d: Sum(rhs),rhsMax =  -9.44943978629539E+01  1.64461213845048E+00
(PID.TID 0000.0001)  ploadbar=  1.01119047836168E+05
 cg2d: Sum(rhs),rhsMax =  -9.52984984584674E+01  1.63068414060418E+00
(PID.TID 0000.0001)  ploadbar=  1.01118559709032E+05
 cg2d: Sum(rhs),rhsMax =  -9.61162481689974E+01  1.61674469857459E+00
(PID.TID 0000.0001)  ploadbar=  1.01118071581896E+05
 cg2d: Sum(rhs),rhsMax =  -9.70215064693732E+01  1.60157151671263E+00
(PID.TID 0000.0001)  ploadbar=  1.01117583454761E+05
 cg2d: Sum(rhs),rhsMax =  -9.81012290121552E+01  1.58382564897372E+00
(PID.TID 0000.0001)  ploadbar=  1.01117095327625E+05
 cg2d: Sum(rhs),rhsMax =  -9.94301459517060E+01  1.56250618131911E+00
(PID.TID 0000.0001)  ploadbar=  1.01116607200489E+05
 cg2d: Sum(rhs),rhsMax =  -1.01047529795561E+02  1.53736819656280E+00
(PID.TID 0000.0001)  ploadbar=  1.01116563310833E+05
 cg2d: Sum(rhs),rhsMax =  -1.02795460902492E+02  1.51111974447033E+00
(PID.TID 0000.0001)  ploadbar=  1.01116519421178E+05
 cg2d: Sum(rhs),rhsMax =  -1.03394858815434E+02  1.50226894360249E+00
(PID.TID 0000.0001)  ploadbar=  1.01116475531522E+05
 cg2d: Sum(rhs),rhsMax =  -1.02266010401474E+02  1.51877253463233E+00
(PID.TID 0000.0001)  ploadbar=  1.01116431641866E+05
 cg2d: Sum(rhs),rhsMax =  -1.01097098254972E+02  1.53626084266502E+00
(PID.TID 0000.0001)  ploadbar=  1.01116387752210E+05
 cg2d: Sum(rhs),rhsMax =  -9.98582093826665E+01  1.55525078938683E+00
(PID.TID 0000.0001)  ploadbar=  1.01116343862555E+05
 cg2d: Sum(rhs),rhsMax =  -9.87289277323402E+01  1.57298158421311E+00
(PID.TID 0000.0001)  ploadbar=  1.01115528977040E+05
 cg2d: Sum(rhs),rhsMax =  -9.78921852712991E+01  1.58637733474510E+00
(PID.TID 0000.0001)  ploadbar=  1.01114714091525E+05
 cg2d: Sum(rhs),rhsMax =  -9.73176564603964E+01  1.59569852785367E+00
(PID.TID 0000.0001)  ploadbar=  1.01113899206010E+05
 cg2d: Sum(rhs),rhsMax =  -9.69253677881332E+01  1.60211434925174E+00
(PID.TID 0000.0001)  ploadbar=  1.01113084320495E+05
 cg2d: Sum(rhs),rhsMax =  -9.66269137469825E+01  1.60701705850708E+00
(PID.TID 0000.0001)  ploadbar=  1.01112269434980E+05
 cg2d: Sum(rhs),rhsMax =  -9.63549874426099E+01  1.61150053262772E+00
(PID.TID 0000.0001)  ploadbar=  1.01111454549465E+05
 cg2d: Sum(rhs),rhsMax =  -9.60634847698426E+01  1.61633955064501E+00
(PID.TID 0000.0001)  ploadbar=  1.01109355735158E+05
 cg2d: Sum(rhs),rhsMax =  -9.58098270543263E+01  1.62056621641591E+00
(PID.TID 0000.0001)  ploadbar=  1.01107256920851E+05
 cg2d: Sum(rhs),rhsMax =  -9.56838009410226E+01  1.62264483028405E+00
(PID.TID 0000.0001)  ploadbar=  1.01105158106545E+05
 cg2d: Sum(rhs),rhsMax =  -9.57615249814468E+01  1.62126277369539E+00
(PID.TID 0000.0001)  ploadbar=  1.01103059292238E+05
 cg2d: Sum(rhs),rhsMax =  -9.60482204736285E+01  1.61634394598001E+00
(PID.TID 0000.0001)  ploadbar=  1.01100960477932E+05
 cg2d: Sum(rhs),rhsMax =  -9.64955819208566E+01  1.60875104093128E+00
(PID.TID 0000.0001)  ploadbar=  1.01098861663625E+05
 cg2d: Sum(rhs),rhsMax =  -9.69864478774161E+01  1.60049272393788E+00
(PID.TID 0000.0001)  ploadbar=  1.01097105164350E+05
 cg2d: Sum(rhs),rhsMax =  -9.74826428322844E+01  1.59221078496394E+00
(PID.TID 0000.0001)  ploadbar=  1.01095348665074E+05
 cg2d: Sum(rhs),rhsMax =  -9.79656476086475E+01  1.58420401282850E+00
(PID.TID 0000.0001)  ploadbar=  1.01093592165798E+05
 cg2d: Sum(rhs),rhsMax =  -9.84564689254350E+01  1.57612852106722E+00
(PID.TID 0000.0001)  ploadbar=  1.01091835666523E+05
 cg2d: Sum(rhs),rhsMax =  -9.90114963602966E+01  1.56709026691696E+00
(PID.TID 0000.0001)  ploadbar=  1.01090079167247E+05
 cg2d: Sum(rhs),rhsMax =  -9.96232287531400E+01  1.55723646775234E+00
(PID.TID 0000.0001)  ploadbar=  1.01088322667972E+05
 cg2d: Sum(rhs),rhsMax =  -1.00281350695580E+02  1.54680925829899E+00
(PID.TID 0000.0001)  ploadbar=  1.01086709248592E+05
 cg2d: Sum(rhs),rhsMax =  -1.01008566295817E+02  1.53548771160333E+00
(PID.TID 0000.0001)  ploadbar=  1.01085095829212E+05
 cg2d: Sum(rhs),rhsMax =  -1.01797358592891E+02  1.52342490091841E+00
(PID.TID 0000.0001)  ploadbar=  1.01083482409832E+05
 cg2d: Sum(rhs),rhsMax =  -1.02633213955982E+02  1.51086853578606E+00
(PID.TID 0000.0001)  ploadbar=  1.01081868990452E+05
 cg2d: Sum(rhs),rhsMax =  -1.03505374371334E+02  1.49799850168014E+00
(PID.TID 0000.0001)  ploadbar=  1.01080255571072E+05
 cg2d: Sum(rhs),rhsMax =  -1.04389287330612E+02  1.48518293547834E+00
(PID.TID 0000.0001)  ploadbar=  1.01078642151692E+05
 cg2d: Sum(rhs),rhsMax =  -1.05270204615568E+02  1.47263343425559E+00
(PID.TID 0000.0001)  ploadbar=  1.01078170061840E+05
 cg2d: Sum(rhs),rhsMax =  -1.06118268799381E+02  1.46074945769357E+00
(PID.TID 0000.0001)  ploadbar=  1.01077697971988E+05
 cg2d: Sum(rhs),rhsMax =  -1.06995258108152E+02  1.44866291691484E+00
(PID.TID 0000.0001)  ploadbar=  1.01077225882135E+05
 cg2d: Sum(rhs),rhsMax =  -1.07986300103837E+02  1.43525319142273E+00
(PID.TID 0000.0001)  ploadbar=  1.01076753792283E+05
 cg2d: Sum(rhs),rhsMax =  -1.09155566579779E+02  1.41975815718446E+00
(PID.TID 0000.0001)  ploadbar=  1.01076281702431E+05
 cg2d: Sum(rhs),rhsMax =  -1.10515226128200E+02  1.40215981081883E+00
(PID.TID 0000.0001)  ploadbar=  1.01075809612579E+05
 cg2d: Sum(rhs),rhsMax =  -1.12053353062696E+02  1.38279895776394E+00
(PID.TID 0000.0001)  ploadbar=  1.01075149106478E+05
 cg2d: Sum(rhs),rhsMax =  -1.11455631834620E+02  1.39011304946533E+00
(PID.TID 0000.0001)  ploadbar=  1.01074488600378E+05
 cg2d: Sum(rhs),rhsMax =  -1.09857393752233E+02  1.41024299236044E+00
(PID.TID 0000.0001)  ploadbar=  1.01073828094277E+05
 cg2d: Sum(rhs),rhsMax =  -1.08596764295290E+02  1.42652457556666E+00
(PID.TID 0000.0001)  ploadbar=  1.01073167588176E+05
 cg2d: Sum(rhs),rhsMax =  -1.07739056702889E+02  1.43779457205770E+00
(PID.TID 0000.0001)  ploadbar=  1.01072507082075E+05
 cg2d: Sum(rhs),rhsMax =  -1.07402413985193E+02  1.44221376250076E+00
(PID.TID 0000.0001)  ploadbar=  1.01071846575975E+05
 cg2d: Sum(rhs),rhsMax =  -1.07648858584106E+02  1.43880203194981E+00
(PID.TID 0000.0001)  ploadbar=  1.01072390244075E+05
 cg2d: Sum(rhs),rhsMax =  -1.07904925417557E+02  1.43525522789591E+00
(PID.TID 0000.0001)  ploadbar=  1.01072933912175E+05
 cg2d: Sum(rhs),rhsMax =  -1.08173756972116E+02  1.43153494359567E+00
(PID.TID 0000.0001)  ploadbar=  1.01073477580275E+05
 cg2d: Sum(rhs),rhsMax =  -1.08442288463418E+02  1.42781359356198E+00
(PID.TID 0000.0001)  ploadbar=  1.01074021248376E+05
 cg2d: Sum(rhs),rhsMax =  -1.08704022026907E+02  1.42417313668491E+00
(PID.TID 0000.0001)  ploadbar=  1.01074564916476E+05
 cg2d: Sum(rhs),rhsMax =  -1.08950850226116E+02  1.42071612474053E+00
(PID.TID 0000.0001)  ploadbar=  1.01075108584576E+05
 cg2d: Sum(rhs),rhsMax =  -1.09118159187952E+02  1.41834335081377E+00
(PID.TID 0000.0001)  ploadbar=  1.01075899665053E+05
 cg2d: Sum(rhs),rhsMax =  -1.09265554173837E+02  1.41626920222565E+00
(PID.TID 0000.0001)  ploadbar=  1.01076690745529E+05
 cg2d: Sum(rhs),rhsMax =  -1.09400948483790E+02  1.41438686992478E+00
(PID.TID 0000.0001)  ploadbar=  1.01077481826005E+05
 cg2d: Sum(rhs),rhsMax =  -1.09537332762234E+02  1.41252479364513E+00
(PID.TID 0000.0001)  ploadbar=  1.01078272906482E+05
 cg2d: Sum(rhs),rhsMax =  -1.09691823056004E+02  1.41046184398631E+00
(PID.TID 0000.0001)  ploadbar=  1.01079063986958E+05
 cg2d: Sum(rhs),rhsMax =  -1.09883897582746E+02  1.40794623859419E+00
(PID.TID 0000.0001)  ploadbar=  1.01079855067435E+05
 cg2d: Sum(rhs),rhsMax =  -1.10064461556179E+02  1.40557987119544E+00
(PID.TID 0000.0001)  ploadbar=  1.01081114073955E+05
 cg2d: Sum(rhs),rhsMax =  -1.10276738512941E+02  1.40281242830060E+00
(PID.TID 0000.0001)  ploadbar=  1.01082373080476E+05
 cg2d: Sum(rhs),rhsMax =  -1.10526621173362E+02  1.39957186723080E+00
(PID.TID 0000.0001)  ploadbar=  1.01083632086997E+05
 cg2d: Sum(rhs),rhsMax =  -1.10785862557342E+02  1.39621871392114E+00
(PID.TID 0000.0001)  ploadbar=  1.01084891093517E+05
 cg2d: Sum(rhs),rhsMax =  -1.09368153064533E+02  1.41422697491270E+00
(PID.TID 0000.0001)  ploadbar=  1.01086150100038E+05
 cg2d: Sum(rhs),rhsMax =  -1.07456981887107E+02  1.43927406896189E+00
(PID.TID 0000.0001)  ploadbar=  1.01087409106559E+05
 cg2d: Sum(rhs),rhsMax =  -1.04727432514969E+02  1.47668227956112E+00
(PID.TID 0000.0001)  ploadbar=  1.01088909182810E+05
 cg2d: Sum(rhs),rhsMax =  -1.01454260386995E+02  1.52421788528175E+00
(PID.TID 0000.0001)  ploadbar=  1.01090409259061E+05
 cg2d: Sum(rhs),rhsMax =  -9.83660943670637E+01  1.57195910737995E+00
(PID.TID 0000.0001)  ploadbar=  1.01091909335312E+05
 cg2d: Sum(rhs),rhsMax =  -9.56973643391290E+01  1.61567852767221E+00
(PID.TID 0000.0001)  ploadbar=  1.01093409411563E+05
 cg2d: Sum(rhs),rhsMax =  -9.36397790334805E+01  1.65105105591284E+00
(PID.TID 0000.0001)  ploadbar=  1.01094909487814E+05
 cg2d: Sum(rhs),rhsMax =  -9.22069065462978E+01  1.67656416750973E+00
(PID.TID 0000.0001)  ploadbar=  1.01096409564065E+05
 cg2d: Sum(rhs),rhsMax =  -9.14383849598425E+01  1.69051217435270E+00
(PID.TID 0000.0001)  ploadbar=  1.01096510419475E+05
 cg2d: Sum(rhs),rhsMax =  -9.10118146789136E+01  1.69829155674406E+00
(PID.TID 0000.0001)  ploadbar=  1.01096611274885E+05
 cg2d: Sum(rhs),rhsMax =  -9.08657531479606E+01  1.70087309683438E+00
(PID.TID 0000.0001)  ploadbar=  1.01096712130295E+05
 cg2d: Sum(rhs),rhsMax =  -9.10536466903805E+01  1.69720893634978E+00
(PID.TID 0000.0001)  ploadbar=  1.01096812985705E+05
 cg2d: Sum(rhs),rhsMax =  -9.14258192867807E+01  1.69013666095303E+00
(PID.TID 0000.0001)  ploadbar=  1.01096913841115E+05
 cg2d: Sum(rhs),rhsMax =  -9.18396956769044E+01  1.68234584013293E+00
(PID.TID 0000.0001)  ploadbar=  1.01097014696525E+05
 cg2d: Sum(rhs),rhsMax =  -9.22155020825310E+01  1.67535469681431E+00
(PID.TID 0000.0001)  ploadbar=  1.01096653501868E+05
 cg2d: Sum(rhs),rhsMax =  -9.25135027851842E+01  1.66986043855151E+00
(PID.TID 0000.0001)  ploadbar=  1.01096292307212E+05
 cg2d: Sum(rhs),rhsMax =  -9.27425989552777E+01  1.66566985020309E+00
(PID.TID 0000.0001)  ploadbar=  1.01095931112556E+05
 cg2d: Sum(rhs),rhsMax =  -9.30618915049929E+01  1.65991872452639E+00
(PID.TID 0000.0001)  ploadbar=  1.01095569917900E+05
 cg2d: Sum(rhs),rhsMax =  -9.34223039001269E+01  1.65350486841415E+00
(PID.TID 0000.0001)  ploadbar=  1.01095208723243E+05
 cg2d: Sum(rhs),rhsMax =  -9.39147773064221E+01  1.64484437283346E+00
(PID.TID 0000.0001)  ploadbar=  1.01094847528587E+05
 cg2d: Sum(rhs),rhsMax =  -9.44396515330313E+01  1.63572382302879E+00
(PID.TID 0000.0001)  ploadbar=  1.01095354837519E+05
 cg2d: Sum(rhs),rhsMax =  -9.49536689622509E+01  1.62689863758913E+00
(PID.TID 0000.0001)  ploadbar=  1.01095862146451E+05
 cg2d: Sum(rhs),rhsMax =  -9.54219153345402E+01  1.61895070863764E+00
(PID.TID 0000.0001)  ploadbar=  1.01096369455383E+05
 cg2d: Sum(rhs),rhsMax =  -9.57997981186006E+01  1.61260457607286E+00
(PID.TID 0000.0001)  ploadbar=  1.01096876764316E+05
 cg2d: Sum(rhs),rhsMax =  -9.60327188799235E+01  1.60873386130283E+00
(PID.TID 0000.0001)  ploadbar=  1.01097384073248E+05
 cg2d: Sum(rhs),rhsMax =  -9.60582613743649E+01  1.60834407543909E+00
(PID.TID 0000.0001)  ploadbar=  1.01097891382180E+05
 cg2d: Sum(rhs),rhsMax =  -9.58977999642922E+01  1.61107278270991E+00
(PID.TID 0000.0001)  ploadbar=  1.01098282041831E+05
 cg2d: Sum(rhs),rhsMax =  -9.55737635377647E+01  1.61656751701549E+00
(PID.TID 0000.0001)  ploadbar=  1.01098672701481E+05
 cg2d: Sum(rhs),rhsMax =  -9.51492967249845E+01  1.62380281012200E+00
(PID.TID 0000.0001)  ploadbar=  1.01099063361132E+05
 cg2d: Sum(rhs),rhsMax =  -9.47119673203742E+01  1.63131255238834E+00
(PID.TID 0000.0001)  ploadbar=  1.01099454020782E+05
 cg2d: Sum(rhs),rhsMax =  -9.43346656594912E+01  1.63783350533998E+00
(PID.TID 0000.0001)  ploadbar=  1.01099844680433E+05
 cg2d: Sum(rhs),rhsMax =  -9.40442435576935E+01  1.64286736123769E+00
(PID.TID 0000.0001)  ploadbar=  1.01100235340084E+05
 cg2d: Sum(rhs),rhsMax =  -9.38774931856020E+01  1.64576063464505E+00
(PID.TID 0000.0001)  ploadbar=  1.01100460565464E+05
 cg2d: Sum(rhs),rhsMax =  -9.37814227165277E+01  1.64742035694656E+00
(PID.TID 0000.0001)  ploadbar=  1.01100685790844E+05
 cg2d: Sum(rhs),rhsMax =  -9.37045868364355E+01  1.64874091917944E+00
(PID.TID 0000.0001)  ploadbar=  1.01100911016225E+05
 cg2d: Sum(rhs),rhsMax =  -9.34762407948372E+01  1.65273105063114E+00
(PID.TID 0000.0001)  ploadbar=  1.01101136241605E+05
 cg2d: Sum(rhs),rhsMax =  -9.31144805854034E+01  1.65910415601502E+00
(PID.TID 0000.0001)  ploadbar=  1.01101361466985E+05
 cg2d: Sum(rhs),rhsMax =  -9.27304428524372E+01  1.66591379423023E+00
(PID.TID 0000.0001)  ploadbar=  1.01101586692366E+05
 cg2d: Sum(rhs),rhsMax =  -9.23360035816056E+01  1.67301134854139E+00
(PID.TID 0000.0001)  ploadbar=  1.01101489157571E+05
 cg2d: Sum(rhs),rhsMax =  -9.19530530441447E+01  1.68000096639855E+00
(PID.TID 0000.0001)  ploadbar=  1.01101391622776E+05
 cg2d: Sum(rhs),rhsMax =  -9.16047237857112E+01  1.68644977101141E+00
(PID.TID 0000.0001)  ploadbar=  1.01101294087982E+05
 cg2d: Sum(rhs),rhsMax =  -9.13163289122211E+01  1.69187319453083E+00
(PID.TID 0000.0001)  ploadbar=  1.01101196553187E+05
 cg2d: Sum(rhs),rhsMax =  -9.11037325411771E+01  1.69595215536793E+00
(PID.TID 0000.0001)  ploadbar=  1.01101099018392E+05
 cg2d: Sum(rhs),rhsMax =  -9.09737315720578E+01  1.69853780207406E+00
(PID.TID 0000.0001)  ploadbar=  1.01101001483598E+05
 cg2d: Sum(rhs),rhsMax =  -9.09057568159346E+01  1.69997013042220E+00
(PID.TID 0000.0001)  ploadbar=  1.01100909485033E+05
 cg2d: Sum(rhs),rhsMax =  -9.08901598576786E+01  1.70042061251262E+00
(PID.TID 0000.0001)  ploadbar=  1.01100817486468E+05
 cg2d: Sum(rhs),rhsMax =  -9.08915970668005E+01  1.70054592564340E+00
(PID.TID 0000.0001)  ploadbar=  1.01100725487904E+05
 cg2d: Sum(rhs),rhsMax =  -9.08902296270361E+01  1.70071636257692E+00
(PID.TID 0000.0001)  ploadbar=  1.01100633489339E+05
 cg2d: Sum(rhs),rhsMax =  -9.08401839267087E+01  1.70178641812467E+00
(PID.TID 0000.0001)  ploadbar=  1.01100541490775E+05
 cg2d: Sum(rhs),rhsMax =  -9.07915541802551E+01  1.70281727597280E+00
(PID.TID 0000.0001)  ploadbar=  1.01100449492210E+05
 cg2d: Sum(rhs),rhsMax =  -9.02400031655545E+01  1.71334509105617E+00
(PID.TID 0000.0001)  ploadbar=  1.01099182721959E+05
 cg2d: Sum(rhs),rhsMax =  -8.96097511532462E+01  1.72551332543434E+00
(PID.TID 0000.0001)  ploadbar=  1.01097915951709E+05
 cg2d: Sum(rhs),rhsMax =  -8.90425389293034E+01  1.73661685859610E+00
(PID.TID 0000.0001)  ploadbar=  1.01096649181458E+05
 cg2d: Sum(rhs),rhsMax =  -8.85250786766869E+01  1.74686910536895E+00
(PID.TID 0000.0001)  ploadbar=  1.01095382411208E+05
 cg2d: Sum(rhs),rhsMax =  -8.80277310889157E+01  1.75682322459408E+00
(PID.TID 0000.0001)  ploadbar=  1.01094115640957E+05
 cg2d: Sum(rhs),rhsMax =  -8.75152704513215E+01  1.76717311374121E+00
(PID.TID 0000.0001)  ploadbar=  1.01092848870707E+05
 cg2d: Sum(rhs),rhsMax =  -8.69925963268615E+01  1.77784471357093E+00
(PID.TID 0000.0001)  ploadbar=  1.01093164881845E+05
 cg2d: Sum(rhs),rhsMax =  -8.64926655717907E+01  1.78816241936942E+00
(PID.TID 0000.0001)  ploadbar=  1.01093480892983E+05
 cg2d: Sum(rhs),rhsMax =  -8.60264933594764E+01  1.79788015622827E+00
(PID.TID 0000.0001)  ploadbar=  1.01093796904121E+05
 cg2d: Sum(rhs),rhsMax =  -8.55938185411202E+01  1.80697907123572E+00
(PID.TID 0000.0001)  ploadbar=  1.01094112915259E+05
 cg2d: Sum(rhs),rhsMax =  -8.51955338879553E+01  1.81541752070787E+00
(PID.TID 0000.0001)  ploadbar=  1.01094428926398E+05
 cg2d: Sum(rhs),rhsMax =  -8.48353737417560E+01  1.82309253802427E+00
(PID.TID 0000.0001)  ploadbar=  1.01094744937536E+05
 cg2d: Sum(rhs),rhsMax =  -8.45204397249990E+01  1.82989702566953E+00
(PID.TID 0000.0001)  ploadbar=  1.01095236471893E+05
 cg2d: Sum(rhs),rhsMax =  -8.42367342530551E+01  1.83611318758016E+00
(PID.TID 0000.0001)  ploadbar=  1.01095728006250E+05
 cg2d: Sum(rhs),rhsMax =  -8.39821985914519E+01  1.84177112154234E+00
(PID.TID 0000.0001)  ploadbar=  1.01096219540608E+05
 cg2d: Sum(rhs),rhsMax =  -8.37373018757081E+01  1.84728526180955E+00
(PID.TID 0000.0001)  ploadbar=  1.01096711074965E+05
 cg2d: Sum(rhs),rhsMax =  -8.34955669148025E+01  1.85279201050516E+00
(PID.TID 0000.0001)  ploadbar=  1.01097202609322E+05
 cg2d: Sum(rhs),rhsMax =  -8.32864924959217E+01  1.85763049655637E+00
(PID.TID 0000.0001)  ploadbar=  1.01097694143680E+05
 cg2d: Sum(rhs),rhsMax =  -8.31468630607811E+01  1.86092894622332E+00
(PID.TID 0000.0001)  ploadbar=  1.01097644218405E+05
 cg2d: Sum(rhs),rhsMax =  -8.30983709707762E+01  1.86218335348169E+00
(PID.TID 0000.0001)  ploadbar=  1.01097594293130E+05
 cg2d: Sum(rhs),rhsMax =  -8.31259557105817E+01  1.86171917339500E+00
(PID.TID 0000.0001)  ploadbar=  1.01097544367855E+05
 cg2d: Sum(rhs),rhsMax =  -8.31752471959683E+01  1.86075209533502E+00
(PID.TID 0000.0001)  ploadbar=  1.01097494442579E+05
 cg2d: Sum(rhs),rhsMax =  -8.32262082092612E+01  1.85972780830524E+00
(PID.TID 0000.0001)  ploadbar=  1.01097444517304E+05
 cg2d: Sum(rhs),rhsMax =  -8.32593555376955E+01  1.85907549261941E+00
(PID.TID 0000.0001)  ploadbar=  1.01097394592029E+05
 cg2d: Sum(rhs),rhsMax =  -8.32807919633846E+01  1.85869260403009E+00
(PID.TID 0000.0001)  ploadbar=  1.01097645548669E+05
 cg2d: Sum(rhs),rhsMax =  -8.32744944156495E+01  1.85893406682535E+00
(PID.TID 0000.0001)  ploadbar=  1.01097896505308E+05
 cg2d: Sum(rhs),rhsMax =  -8.32422386510195E+01  1.85975769071350E+00
(PID.TID 0000.0001)  ploadbar=  1.01098147461947E+05
 cg2d: Sum(rhs),rhsMax =  -8.31913655745624E+01  1.86099805333711E+00
(PID.TID 0000.0001)  ploadbar=  1.01098398418586E+05
 cg2d: Sum(rhs),rhsMax =  -8.31240805965652E+01  1.86260197974232E+00
(PID.TID 0000.0001)  ploadbar=  1.01098649375225E+05
 cg2d: Sum(rhs),rhsMax =  -8.30423637953266E+01  1.86451995309694E+00
(PID.TID 0000.0001)  ploadbar=  1.01098900331865E+05
 cg2d: Sum(rhs),rhsMax =  -8.29634827274875E+01  1.86635789492072E+00
(PID.TID 0000.0001)  ploadbar=  1.01100089074953E+05
 cg2d: Sum(rhs),rhsMax =  -8.29156787321760E+01  1.86747669809432E+00
(PID.TID 0000.0001)  ploadbar=  1.01101277818041E+05
 cg2d: Sum(rhs),rhsMax =  -8.29020336992150E+01  1.86780029158292E+00
(PID.TID 0000.0001)  ploadbar=  1.01102466561129E+05
 cg2d: Sum(rhs),rhsMax =  -8.29123401211998E+01  1.86755526727570E+00
(PID.TID 0000.0001)  ploadbar=  1.01103655304217E+05
 cg2d: Sum(rhs),rhsMax =  -8.29333656815285E+01  1.86703693123331E+00
(PID.TID 0000.0001)  ploadbar=  1.01104844047305E+05
 cg2d: Sum(rhs),rhsMax =  -8.29547151401107E+01  1.86647431308272E+00
(PID.TID 0000.0001)  ploadbar=  1.01106032790393E+05
 cg2d: Sum(rhs),rhsMax =  -8.29778019875609E+01  1.86590828653457E+00
(PID.TID 0000.0001)  ploadbar=  1.01107494665371E+05
 cg2d: Sum(rhs),rhsMax =  -8.29918222077306E+01  1.86558011934339E+00
(PID.TID 0000.0001)  ploadbar=  1.01108956540348E+05
 cg2d: Sum(rhs),rhsMax =  -8.29892727204468E+01  1.86565571527800E+00
(PID.TID 0000.0001)  ploadbar=  1.01110418415326E+05
 cg2d: Sum(rhs),rhsMax =  -8.29583847258482E+01  1.86639577117525E+00
(PID.TID 0000.0001)  ploadbar=  1.01111880290304E+05
 cg2d: Sum(rhs),rhsMax =  -8.28938299995948E+01  1.86791794572494E+00
(PID.TID 0000.0001)  ploadbar=  1.01113342165282E+05
 cg2d: Sum(rhs),rhsMax =  -8.27984551705076E+01  1.87015887796773E+00
(PID.TID 0000.0001)  ploadbar=  1.01114804040260E+05
 cg2d: Sum(rhs),rhsMax =  -8.26949100892185E+01  1.87256559498720E+00
(PID.TID 0000.0001)  ploadbar=  1.01115772848129E+05
 cg2d: Sum(rhs),rhsMax =  -8.25872883569392E+01  1.87504501658724E+00
(PID.TID 0000.0001)  ploadbar=  1.01116741655998E+05
 cg2d: Sum(rhs),rhsMax =  -8.24889084785492E+01  1.87728785072403E+00
(PID.TID 0000.0001)  ploadbar=  1.01117710463866E+05
 cg2d: Sum(rhs),rhsMax =  -8.24112351969413E+01  1.87902574519323E+00
(PID.TID 0000.0001)  ploadbar=  1.01118679271735E+05
 cg2d: Sum(rhs),rhsMax =  -8.23591563123874E+01  1.88014361561431E+00
(PID.TID 0000.0001)  ploadbar=  1.01119648079604E+05
 cg2d: Sum(rhs),rhsMax =  -8.23282771112328E+01  1.88073608399036E+00
(PID.TID 0000.0001)  ploadbar=  1.01120616887473E+05
 cg2d: Sum(rhs),rhsMax =  -8.23244119460094E+01  1.88073162178546E+00
(PID.TID 0000.0001)  ploadbar=  1.01122098466434E+05
 cg2d: Sum(rhs),rhsMax =  -8.23207353073879E+01  1.88073812722874E+00
(PID.TID 0000.0001)  ploadbar=  1.01123580045396E+05
 cg2d: Sum(rhs),rhsMax =  -8.23009635341228E+01  1.88112307043654E+00
(PID.TID 0000.0001)  ploadbar=  1.01125061624357E+05
 cg2d: Sum(rhs),rhsMax =  -8.22511537157877E+01  1.88220232640694E+00
(PID.TID 0000.0001)  ploadbar=  1.01126543203319E+05
 cg2d: Sum(rhs),rhsMax =  -8.21657567663191E+01  1.88410028861935E+00
(PID.TID 0000.0001)  ploadbar=  1.01128024782280E+05
 cg2d: Sum(rhs),rhsMax =  -8.20555543359007E+01  1.88656818490925E+00
(PID.TID 0000.0001)  ploadbar=  1.01129506361241E+05
 cg2d: Sum(rhs),rhsMax =  -8.19382141183257E+01  1.88920806401992E+00
(PID.TID 0000.0001)  ploadbar=  1.01130531132215E+05
 cg2d: Sum(rhs),rhsMax =  -8.18416106624236E+01  1.89137320076181E+00
(PID.TID 0000.0001)  ploadbar=  1.01131555903189E+05
 cg2d: Sum(rhs),rhsMax =  -8.17653695780995E+01  1.89306427369323E+00
(PID.TID 0000.0001)  ploadbar=  1.01132580674162E+05
 cg2d: Sum(rhs),rhsMax =  -8.17200754292467E+01  1.89402996358131E+00
(PID.TID 0000.0001)  ploadbar=  1.01133605445136E+05
 cg2d: Sum(rhs),rhsMax =  -8.17228586123969E+01  1.89386399549264E+00
(PID.TID 0000.0001)  ploadbar=  1.01134630216109E+05
 cg2d: Sum(rhs),rhsMax =  -8.18002932384407E+01  1.89194499153355E+00
(PID.TID 0000.0001)  ploadbar=  1.01135654987083E+05
 cg2d: Sum(rhs),rhsMax =  -8.20213265627088E+01  1.88675727141135E+00
(PID.TID 0000.0001)  ploadbar=  1.01136191457675E+05
 cg2d: Sum(rhs),rhsMax =  -8.24870261072258E+01  1.87605029251547E+00
(PID.TID 0000.0001)  ploadbar=  1.01136727928268E+05
 cg2d: Sum(rhs),rhsMax =  -8.31202815990859E+01  1.86173460848992E+00
(PID.TID 0000.0001)  ploadbar=  1.01137264398860E+05
 cg2d: Sum(rhs),rhsMax =  -8.37751100174778E+01  1.84719166393378E+00
(PID.TID 0000.0001)  ploadbar=  1.01137800869453E+05
 cg2d: Sum(rhs),rhsMax =  -8.44095130741525E+01  1.83334733788900E+00
(PID.TID 0000.0001)  ploadbar=  1.01138337340045E+05
 cg2d: Sum(rhs),rhsMax =  -8.49698031051659E+01  1.82132082952335E+00
(PID.TID 0000.0001)  ploadbar=  1.01138873810638E+05
 cg2d: Sum(rhs),rhsMax =  -8.54170926319323E+01  1.81183433520215E+00
(PID.TID 0000.0001)  ploadbar=  1.01139421878085E+05
 cg2d: Sum(rhs),rhsMax =  -8.58613412569926E+01  1.80249808093983E+00
(PID.TID 0000.0001)  ploadbar=  1.01139969945532E+05
 cg2d: Sum(rhs),rhsMax =  -8.63161543215667E+01  1.79302461491774E+00
(PID.TID 0000.0001)  ploadbar=  1.01140518012980E+05
 cg2d: Sum(rhs),rhsMax =  -8.68182131603604E+01  1.78266326475897E+00
(PID.TID 0000.0001)  ploadbar=  1.01141066080427E+05
 cg2d: Sum(rhs),rhsMax =  -8.74426785282819E+01  1.76992084594778E+00
(PID.TID 0000.0001)  ploadbar=  1.01141614147874E+05
 cg2d: Sum(rhs),rhsMax =  -8.81498856969400E+01  1.75568605516406E+00
(PID.TID 0000.0001)  ploadbar=  1.01142162215322E+05
 cg2d: Sum(rhs),rhsMax =  -8.87177648645648E+01  1.74443140976586E+00
(PID.TID 0000.0001)  ploadbar=  1.01142196199026E+05
 cg2d: Sum(rhs),rhsMax =  -8.88536904377789E+01  1.74176181352671E+00
(PID.TID 0000.0001)  ploadbar=  1.01142230182731E+05
 cg2d: Sum(rhs),rhsMax =  -8.84733820125108E+01  1.74926062311254E+00
(PID.TID 0000.0001)  ploadbar=  1.01142264166436E+05
 cg2d: Sum(rhs),rhsMax =  -8.76717867100326E+01  1.76527878237371E+00
(PID.TID 0000.0001)  ploadbar=  1.01142298150141E+05
 cg2d: Sum(rhs),rhsMax =  -8.66490924959357E+01  1.78614842528671E+00
(PID.TID 0000.0001)  ploadbar=  1.01142332133846E+05
 cg2d: Sum(rhs),rhsMax =  -8.55637845093108E+01  1.80884421581562E+00
(PID.TID 0000.0001)  ploadbar=  1.01142366117551E+05
 cg2d: Sum(rhs),rhsMax =  -8.46043576266746E+01  1.82938693876238E+00
(PID.TID 0000.0001)  ploadbar=  1.01141658589231E+05
 cg2d: Sum(rhs),rhsMax =  -8.38317211146206E+01  1.84626628929717E+00
(PID.TID 0000.0001)  ploadbar=  1.01140951060910E+05
 cg2d: Sum(rhs),rhsMax =  -8.32772557371072E+01  1.85856293491789E+00
(PID.TID 0000.0001)  ploadbar=  1.01140243532590E+05
 cg2d: Sum(rhs),rhsMax =  -8.29492060613040E+01  1.86590110147220E+00
(PID.TID 0000.0001)  ploadbar=  1.01139536004269E+05
 cg2d: Sum(rhs),rhsMax =  -8.28268786037080E+01  1.86862437728984E+00
(PID.TID 0000.0001)  ploadbar=  1.01138828475949E+05
 cg2d: Sum(rhs),rhsMax =  -8.28242305078458E+01  1.86862799073214E+00
(PID.TID 0000.0001)  ploadbar=  1.01138120947628E+05
 cg2d: Sum(rhs),rhsMax =  -8.28533002806374E+01  1.86795807093938E+00
(PID.TID 0000.0001)  ploadbar=  1.01137826229348E+05
 cg2d: Sum(rhs),rhsMax =  -8.29618044349840E+01  1.86554192817610E+00
(PID.TID 0000.0001)  ploadbar=  1.01137531511067E+05
 cg2d: Sum(rhs),rhsMax =  -8.32049320433881E+01  1.86015571228141E+00
(PID.TID 0000.0001)  ploadbar=  1.01137236792786E+05
 cg2d: Sum(rhs),rhsMax =  -8.35907280903126E+01  1.85166885586797E+00
(PID.TID 0000.0001)  ploadbar=  1.01136942074505E+05
 cg2d: Sum(rhs),rhsMax =  -8.41030410487247E+01  1.84051741295850E+00
(PID.TID 0000.0001)  ploadbar=  1.01136647356224E+05
 cg2d: Sum(rhs),rhsMax =  -8.47033719723670E+01  1.82762741718497E+00
(PID.TID 0000.0001)  ploadbar=  1.01136352637943E+05
 cg2d: Sum(rhs),rhsMax =  -8.52951904297412E+01  1.81510140523055E+00
(PID.TID 0000.0001)  ploadbar=  1.01135267393502E+05
 cg2d: Sum(rhs),rhsMax =  -8.58069704537297E+01  1.80442827976215E+00
(PID.TID 0000.0001)  ploadbar=  1.01134182149061E+05
 cg2d: Sum(rhs),rhsMax =  -8.62125410825739E+01  1.79608674010253E+00
(PID.TID 0000.0001)  ploadbar=  1.01133096904619E+05
 cg2d: Sum(rhs),rhsMax =  -8.65052052184581E+01  1.79015235904310E+00
(PID.TID 0000.0001)  ploadbar=  1.01132011660178E+05
 cg2d: Sum(rhs),rhsMax =  -8.67143140720609E+01  1.78597007567173E+00
(PID.TID 0000.0001)  ploadbar=  1.01130926415737E+05
 cg2d: Sum(rhs),rhsMax =  -8.68725497630047E+01  1.78284265025995E+00
(PID.TID 0000.0001)  ploadbar=  1.01129841171295E+05
 cg2d: Sum(rhs),rhsMax =  -8.69977519181304E+01  1.78040278652358E+00
(PID.TID 0000.0001)  ploadbar=  1.01128855471939E+05
 cg2d: Sum(rhs),rhsMax =  -8.71114447874153E+01  1.77820369792800E+00
(PID.TID 0000.0001)  ploadbar=  1.01127869772582E+05
 cg2d: Sum(rhs),rhsMax =  -8.72254583570612E+01  1.77600121476465E+00
(PID.TID 0000.0001)  ploadbar=  1.01126884073225E+05
 cg2d: Sum(rhs),rhsMax =  -8.73341338836597E+01  1.77390620186934E+00
(PID.TID 0000.0001)  ploadbar=  1.01125898373869E+05
 cg2d: Sum(rhs),rhsMax =  -8.74416832017626E+01  1.77183017878211E+00
(PID.TID 0000.0001)  ploadbar=  1.01124912674512E+05
 cg2d: Sum(rhs),rhsMax =  -8.75305787987071E+01  1.77012269768982E+00
(PID.TID 0000.0001)  ploadbar=  1.01123926975155E+05
 cg2d: Sum(rhs),rhsMax =  -8.75484476945049E+01  1.76983440494197E+00
(PID.TID 0000.0001)  ploadbar=  1.01122239417931E+05
 cg2d: Sum(rhs),rhsMax =  -8.75009797987230E+01  1.77084813028272E+00
(PID.TID 0000.0001)  ploadbar=  1.01120551860707E+05
 cg2d: Sum(rhs),rhsMax =  -8.73770126469627E+01  1.77339290755741E+00
(PID.TID 0000.0001)  ploadbar=  1.01118864303483E+05
 cg2d: Sum(rhs),rhsMax =  -8.71945685895842E+01  1.77711153834915E+00
(PID.TID 0000.0001)  ploadbar=  1.01117176746259E+05
 cg2d: Sum(rhs),rhsMax =  -8.69772598462188E+01  1.78153310029872E+00
(PID.TID 0000.0001)  ploadbar=  1.01115489189035E+05
 cg2d: Sum(rhs),rhsMax =  -8.67467928803237E+01  1.78621772104072E+00
(PID.TID 0000.0001)  ploadbar=  1.01113801631811E+05
 cg2d: Sum(rhs),rhsMax =  -8.64954941659578E+01  1.79139702546705E+00
(PID.TID 0000.0001)  ploadbar=  1.01112924634693E+05
 cg2d: Sum(rhs),rhsMax =  -8.62300257205396E+01  1.79694075692936E+00
(PID.TID 0000.0001)  ploadbar=  1.01112047637575E+05
 cg2d: Sum(rhs),rhsMax =  -8.60011894013195E+01  1.80178599851594E+00
(PID.TID 0000.0001)  ploadbar=  1.01111170640457E+05
 cg2d: Sum(rhs),rhsMax =  -8.58547452582404E+01  1.80495421056594E+00
(PID.TID 0000.0001)  ploadbar=  1.01110293643339E+05
 cg2d: Sum(rhs),rhsMax =  -8.57105697994967E+01  1.80811314674139E+00
(PID.TID 0000.0001)  ploadbar=  1.01109416646221E+05
 cg2d: Sum(rhs),rhsMax =  -8.55007637419900E+01  1.81269222378612E+00
(PID.TID 0000.0001)  ploadbar=  1.01108539649103E+05
 cg2d: Sum(rhs),rhsMax =  -8.53218104108555E+01  1.81664267740717E+00
(PID.TID 0000.0001)  ploadbar=  1.01107580109288E+05
 cg2d: Sum(rhs),rhsMax =  -8.51930387577219E+01  1.81953943826520E+00
(PID.TID 0000.0001)  ploadbar=  1.01106620569474E+05
 cg2d: Sum(rhs),rhsMax =  -8.50924898031079E+01  1.82183995427913E+00
(PID.TID 0000.0001)  ploadbar=  1.01105661029659E+05
 cg2d: Sum(rhs),rhsMax =  -8.50057656897239E+01  1.82384363218020E+00
(PID.TID 0000.0001)  ploadbar=  1.01104701489845E+05
 cg2d: Sum(rhs),rhsMax =  -8.49182745715219E+01  1.82585646410285E+00
(PID.TID 0000.0001)  ploadbar=  1.01103741950030E+05
 cg2d: Sum(rhs),rhsMax =  -8.45466207962741E+01  1.83400167289605E+00
(PID.TID 0000.0001)  ploadbar=  1.01102782410216E+05
 cg2d: Sum(rhs),rhsMax =  -8.41623855353932E+01  1.84250307381557E+00
(PID.TID 0000.0001)  ploadbar=  1.01102659078988E+05
 cg2d: Sum(rhs),rhsMax =  -8.38208548809820E+01  1.85014555359162E+00
(PID.TID 0000.0001)  ploadbar=  1.01102535747760E+05
 cg2d: Sum(rhs),rhsMax =  -8.35562533315263E+01  1.85614473984854E+00
(PID.TID 0000.0001)  ploadbar=  1.01102412416532E+05
 cg2d: Sum(rhs),rhsMax =  -8.33866803336443E+01  1.86005990672419E+00
(PID.TID 0000.0001)  ploadbar=  1.01102289085304E+05
 cg2d: Sum(rhs),rhsMax =  -8.33141852759567E+01  1.86181627624400E+00
(PID.TID 0000.0001)  ploadbar=  1.01102165754076E+05
 cg2d: Sum(rhs),rhsMax =  -8.33290606685253E+01  1.86161349040933E+00
(PID.TID 0000.0001)  ploadbar=  1.01102042422848E+05
 cg2d: Sum(rhs),rhsMax =  -8.33976557873423E+01  1.86019562452451E+00
(PID.TID 0000.0001)  ploadbar=  1.01102374661914E+05
 cg2d: Sum(rhs),rhsMax =  -8.34717679588685E+01  1.85863901941042E+00
(PID.TID 0000.0001)  ploadbar=  1.01102706900981E+05
 cg2d: Sum(rhs),rhsMax =  -8.31583707353723E+01  1.86571737898437E+00
(PID.TID 0000.0001)  ploadbar=  1.01103039140047E+05
 cg2d: Sum(rhs),rhsMax =  -8.28293250515519E+01  1.87317677838237E+00
(PID.TID 0000.0001)  ploadbar=  1.01103371379113E+05
 cg2d: Sum(rhs),rhsMax =  -8.25413210041423E+01  1.87972891719378E+00
(PID.TID 0000.0001)  ploadbar=  1.01103703618179E+05
 cg2d: Sum(rhs),rhsMax =  -8.23071625372144E+01  1.88505371789827E+00
(PID.TID 0000.0001)  ploadbar=  1.01104035857246E+05
 cg2d: Sum(rhs),rhsMax =  -8.21336449961789E+01  1.88905168768024E+00
(PID.TID 0000.0001)  ploadbar=  1.01104386685685E+05
 cg2d: Sum(rhs),rhsMax =  -8.19927792934305E+01  1.89234769222845E+00
(PID.TID 0000.0001)  ploadbar=  1.01104737514123E+05
 cg2d: Sum(rhs),rhsMax =  -8.18689624491881E+01  1.89528989928671E+00
(PID.TID 0000.0001)  ploadbar=  1.01105088342562E+05
 cg2d: Sum(rhs),rhsMax =  -8.17430812224005E+01  1.89831058665519E+00
(PID.TID 0000.0001)  ploadbar=  1.01105439171001E+05
 cg2d: Sum(rhs),rhsMax =  -8.16058630286489E+01  1.90162366655303E+00
(PID.TID 0000.0001)  ploadbar=  1.01105789999440E+05
 cg2d: Sum(rhs),rhsMax =  -8.14535379378775E+01  1.90531578960601E+00
(PID.TID 0000.0001)  ploadbar=  1.01106140827879E+05
 cg2d: Sum(rhs),rhsMax =  -8.12824858092060E+01  1.90947644926377E+00
(PID.TID 0000.0001)  ploadbar=  1.01107159383190E+05
 cg2d: Sum(rhs),rhsMax =  -8.10886873115985E+01  1.91420062799472E+00
(PID.TID 0000.0001)  ploadbar=  1.01108177938501E+05
 cg2d: Sum(rhs),rhsMax =  -8.08817763171651E+01  1.91926151798237E+00
(PID.TID 0000.0001)  ploadbar=  1.01109196493812E+05
 cg2d: Sum(rhs),rhsMax =  -8.06814126860253E+01  1.92419307640142E+00
(PID.TID 0000.0001)  ploadbar=  1.01110215049123E+05
 cg2d: Sum(rhs),rhsMax =  -8.05020850861661E+01  1.92864535367677E+00
(PID.TID 0000.0001)  ploadbar=  1.01111233604434E+05
 cg2d: Sum(rhs),rhsMax =  -8.03558409157137E+01  1.93231860460724E+00
(PID.TID 0000.0001)  ploadbar=  1.01112252159745E+05
 cg2d: Sum(rhs),rhsMax =  -8.02601188544184E+01  1.93479425793780E+00
(PID.TID 0000.0001)  ploadbar=  1.01113756856212E+05
 cg2d: Sum(rhs),rhsMax =  -8.02075040780400E+01  1.93623813298213E+00
(PID.TID 0000.0001)  ploadbar=  1.01115261552679E+05
 cg2d: Sum(rhs),rhsMax =  -8.01857642356318E+01  1.93693619050040E+00
(PID.TID 0000.0001)  ploadbar=  1.01116766249146E+05
 cg2d: Sum(rhs),rhsMax =  -8.01851082805674E+01  1.93711897517899E+00
(PID.TID 0000.0001)  ploadbar=  1.01118270945613E+05
 cg2d: Sum(rhs),rhsMax =  -8.01959347917471E+01  1.93701466471372E+00
(PID.TID 0000.0001)  ploadbar=  1.01119775642081E+05
 cg2d: Sum(rhs),rhsMax =  -8.02126294502648E+01  1.93675411491720E+00
(PID.TID 0000.0001)  ploadbar=  1.01121280338548E+05
 cg2d: Sum(rhs),rhsMax =  -8.02229901728415E+01  1.93661140948173E+00
(PID.TID 0000.0001)  ploadbar=  1.01122866766253E+05
 cg2d: Sum(rhs),rhsMax =  -8.02327030988975E+01  1.93644817695527E+00
(PID.TID 0000.0001)  ploadbar=  1.01124453193958E+05
 cg2d: Sum(rhs),rhsMax =  -8.02441449572235E+01  1.93620446919224E+00
(PID.TID 0000.0001)  ploadbar=  1.01126039621663E+05
 cg2d: Sum(rhs),rhsMax =  -8.02671565873251E+01  1.93563725773164E+00
(PID.TID 0000.0001)  ploadbar=  1.01127626049368E+05
 cg2d: Sum(rhs),rhsMax =  -8.03116060717014E+01  1.93450580309627E+00
(PID.TID 0000.0001)  ploadbar=  1.01129212477073E+05
 cg2d: Sum(rhs),rhsMax =  -8.03893918356398E+01  1.93252065791828E+00
(PID.TID 0000.0001)  ploadbar=  1.01130798904779E+05
 cg2d: Sum(rhs),rhsMax =  -8.05219117354636E+01  1.92925371696972E+00
(PID.TID 0000.0001)  ploadbar=  1.01132346184771E+05
 cg2d: Sum(rhs),rhsMax =  -8.07242835913389E+01  1.92435506019436E+00
(PID.TID 0000.0001)  ploadbar=  1.01133893464763E+05
 cg2d: Sum(rhs),rhsMax =  -8.10118589704157E+01  1.91748532257760E+00
(PID.TID 0000.0001)  ploadbar=  1.01135440744755E+05
 cg2d: Sum(rhs),rhsMax =  -8.13954725898789E+01  1.90843018887731E+00
(PID.TID 0000.0001)  ploadbar=  1.01136988024747E+05
 cg2d: Sum(rhs),rhsMax =  -8.18790954790074E+01  1.89715789453019E+00
(PID.TID 0000.0001)  ploadbar=  1.01138535304740E+05
 cg2d: Sum(rhs),rhsMax =  -8.24528337280067E+01  1.88397135372897E+00
(PID.TID 0000.0001)  ploadbar=  1.01140082584732E+05
 cg2d: Sum(rhs),rhsMax =  -8.30587766417267E+01  1.87024264494414E+00
(PID.TID 0000.0001)  ploadbar=  1.01140379818495E+05
 cg2d: Sum(rhs),rhsMax =  -8.36396633898340E+01  1.85726723832111E+00
(PID.TID 0000.0001)  ploadbar=  1.01140677052258E+05
 cg2d: Sum(rhs),rhsMax =  -8.41533654828532E+01  1.84594014037621E+00
(PID.TID 0000.0001)  ploadbar=  1.01140974286021E+05
 cg2d: Sum(rhs),rhsMax =  -8.45980342426667E+01  1.83624003411313E+00
(PID.TID 0000.0001)  ploadbar=  1.01141271519783E+05
 cg2d: Sum(rhs),rhsMax =  -8.49870807285982E+01  1.82782566360181E+00
(PID.TID 0000.0001)  ploadbar=  1.01141568753546E+05
 cg2d: Sum(rhs),rhsMax =  -8.53319756043295E+01  1.82041271733843E+00
(PID.TID 0000.0001)  ploadbar=  1.01141865987309E+05
 cg2d: Sum(rhs),rhsMax =  -8.56573462218615E+01  1.81347174381450E+00
(PID.TID 0000.0001)  ploadbar=  1.01141480746920E+05
 cg2d: Sum(rhs),rhsMax =  -8.59821825169479E+01  1.80658937576052E+00
(PID.TID 0000.0001)  ploadbar=  1.01141095506530E+05
 cg2d: Sum(rhs),rhsMax =  -8.63118411693094E+01  1.79965129889889E+00
(PID.TID 0000.0001)  ploadbar=  1.01140710266141E+05
 cg2d: Sum(rhs),rhsMax =  -8.66465056347078E+01  1.79265208548194E+00
(PID.TID 0000.0001)  ploadbar=  1.01140325025752E+05
 cg2d: Sum(rhs),rhsMax =  -8.69774100592172E+01  1.78576663042807E+00
(PID.TID 0000.0001)  ploadbar=  1.01139939785363E+05
 cg2d: Sum(rhs),rhsMax =  -8.71831901612558E+01  1.78146334349716E+00
(PID.TID 0000.0001)  ploadbar=  1.01139554544973E+05
 cg2d: Sum(rhs),rhsMax =  -8.71518250397995E+01  1.78201728810992E+00
(PID.TID 0000.0001)  ploadbar=  1.01139264226588E+05
 cg2d: Sum(rhs),rhsMax =  -8.71589628915470E+01  1.78178421776622E+00
(PID.TID 0000.0001)  ploadbar=  1.01138973908202E+05
 cg2d: Sum(rhs),rhsMax =  -8.72071548242863E+01  1.78070842983229E+00
(PID.TID 0000.0001)  ploadbar=  1.01138683589817E+05
 cg2d: Sum(rhs),rhsMax =  -8.72954425280335E+01  1.77880601033548E+00
(PID.TID 0000.0001)  ploadbar=  1.01138393271431E+05
 cg2d: Sum(rhs),rhsMax =  -8.74270537081192E+01  1.77601218172956E+00
(PID.TID 0000.0001)  ploadbar=  1.01138102953046E+05
 cg2d: Sum(rhs),rhsMax =  -8.76048441468662E+01  1.77227462898799E+00
(PID.TID 0000.0001)  ploadbar=  1.01137812634660E+05
 cg2d: Sum(rhs),rhsMax =  -8.78195636514249E+01  1.76784450532472E+00
(PID.TID 0000.0001)  ploadbar=  1.01137570665798E+05
 cg2d: Sum(rhs),rhsMax =  -8.80604259139196E+01  1.76294419065955E+00
(PID.TID 0000.0001)  ploadbar=  1.01137328696936E+05
 cg2d: Sum(rhs),rhsMax =  -8.80513215695209E+01  1.76308898567582E+00
(PID.TID 0000.0001)  ploadbar=  1.01137086728074E+05
 cg2d: Sum(rhs),rhsMax =  -8.77909921102231E+01  1.76830309292180E+00
(PID.TID 0000.0001)  ploadbar=  1.01136844759211E+05
 cg2d: Sum(rhs),rhsMax =  -8.74473301833408E+01  1.77525721879841E+00
(PID.TID 0000.0001)  ploadbar=  1.01136602790349E+05
 cg2d: Sum(rhs),rhsMax =  -8.70561104045586E+01  1.78325634289687E+00
(PID.TID 0000.0001)  ploadbar=  1.01136360821487E+05
 cg2d: Sum(rhs),rhsMax =  -8.66353243087861E+01  1.79195056178079E+00
(PID.TID 0000.0001)  ploadbar=  1.01135925177494E+05
 cg2d: Sum(rhs),rhsMax =  -8.62307329141569E+01  1.80039740308171E+00
(PID.TID 0000.0001)  ploadbar=  1.01135489533500E+05
 cg2d: Sum(rhs),rhsMax =  -8.58475373277087E+01  1.80847242452715E+00
(PID.TID 0000.0001)  ploadbar=  1.01135053889507E+05
 cg2d: Sum(rhs),rhsMax =  -8.54845109738916E+01  1.81618686485960E+00
(PID.TID 0000.0001)  ploadbar=  1.01134618245514E+05
 cg2d: Sum(rhs),rhsMax =  -8.51363874312678E+01  1.82363734825965E+00
(PID.TID 0000.0001)  ploadbar=  1.01134182601520E+05
 cg2d: Sum(rhs),rhsMax =  -8.47927105437659E+01  1.83103898261004E+00
(PID.TID 0000.0001)  ploadbar=  1.01133746957527E+05
 cg2d: Sum(rhs),rhsMax =  -8.44390821475524E+01  1.83873640302268E+00
(PID.TID 0000.0001)  ploadbar=  1.01132466444807E+05
 cg2d: Sum(rhs),rhsMax =  -8.40843172162548E+01  1.84653577100958E+00
(PID.TID 0000.0001)  ploadbar=  1.01131185932088E+05
 cg2d: Sum(rhs),rhsMax =  -8.37296345777206E+01  1.85441150571991E+00
(PID.TID 0000.0001)  ploadbar=  1.01129905419368E+05
 cg2d: Sum(rhs),rhsMax =  -8.33779098120811E+01  1.86229622334125E+00
(PID.TID 0000.0001)  ploadbar=  1.01128624906648E+05
 cg2d: Sum(rhs),rhsMax =  -8.30341546686256E+01  1.87006899259224E+00
(PID.TID 0000.0001)  ploadbar=  1.01127344393928E+05
 cg2d: Sum(rhs),rhsMax =  -8.27054334447044E+01  1.87756012633250E+00
(PID.TID 0000.0001)  ploadbar=  1.01126063881209E+05
 cg2d: Sum(rhs),rhsMax =  -8.24088833079156E+01  1.88435830383894E+00
(PID.TID 0000.0001)  ploadbar=  1.01126127400098E+05
 cg2d: Sum(rhs),rhsMax =  -8.21481285189806E+01  1.89036332507685E+00
(PID.TID 0000.0001)  ploadbar=  1.01126190918988E+05
 cg2d: Sum(rhs),rhsMax =  -8.19220068998493E+01  1.89558439027964E+00
(PID.TID 0000.0001)  ploadbar=  1.01126254437878E+05
 cg2d: Sum(rhs),rhsMax =  -8.17229446110391E+01  1.90017740545611E+00
(PID.TID 0000.0001)  ploadbar=  1.01126317956767E+05
 cg2d: Sum(rhs),rhsMax =  -8.15458406289611E+01  1.90424489682284E+00
(PID.TID 0000.0001)  ploadbar=  1.01126381475657E+05
 cg2d: Sum(rhs),rhsMax =  -8.13826810668353E+01  1.90796300039659E+00
(PID.TID 0000.0001)  ploadbar=  1.01126444994547E+05
 cg2d: Sum(rhs),rhsMax =  -8.12513174218415E+01  1.91098795741712E+00
(PID.TID 0000.0001)  ploadbar=  1.01125709719917E+05
 cg2d: Sum(rhs),rhsMax =  -8.11178446148049E+01  1.91410656659539E+00
(PID.TID 0000.0001)  ploadbar=  1.01124974445288E+05
 cg2d: Sum(rhs),rhsMax =  -8.09952227813095E+01  1.91700211784421E+00
(PID.TID 0000.0001)  ploadbar=  1.01124239170659E+05
 cg2d: Sum(rhs),rhsMax =  -8.08977273539089E+01  1.91932331485051E+00
(PID.TID 0000.0001)  ploadbar=  1.01123503896029E+05
 cg2d: Sum(rhs),rhsMax =  -8.08396929868612E+01  1.92071923540918E+00
(PID.TID 0000.0001)  ploadbar=  1.01122768621400E+05
 cg2d: Sum(rhs),rhsMax =  -8.08275055699883E+01  1.92102675603195E+00
(PID.TID 0000.0001)  ploadbar=  1.01122033346771E+05
 cg2d: Sum(rhs),rhsMax =  -8.08764634252718E+01  1.91989807552969E+00
(PID.TID 0000.0001)  ploadbar=  1.01120472338313E+05
 cg2d: Sum(rhs),rhsMax =  -8.09882902900780E+01  1.91729425923953E+00
(PID.TID 0000.0001)  ploadbar=  1.01118911329854E+05
 cg2d: Sum(rhs),rhsMax =  -8.11723566483963E+01  1.91300292476320E+00
(PID.TID 0000.0001)  ploadbar=  1.01117350321396E+05
 cg2d: Sum(rhs),rhsMax =  -8.14466477476586E+01  1.90662193999671E+00
(PID.TID 0000.0001)  ploadbar=  1.01115789312938E+05
 cg2d: Sum(rhs),rhsMax =  -8.18135001067909E+01  1.89813494085748E+00
(PID.TID 0000.0001)  ploadbar=  1.01114228304479E+05
 cg2d: Sum(rhs),rhsMax =  -8.22693991116304E+01  1.88767412309445E+00
(PID.TID 0000.0001)  ploadbar=  1.01112667296021E+05
 cg2d: Sum(rhs),rhsMax =  -8.28390783101293E+01  1.87475913908941E+00
(PID.TID 0000.0001)  ploadbar=  1.01111649680713E+05
 cg2d: Sum(rhs),rhsMax =  -8.35069776827395E+01  1.85983535505721E+00
(PID.TID 0000.0001)  ploadbar=  1.01110632065404E+05
 cg2d: Sum(rhs),rhsMax =  -8.42196762458582E+01  1.84416808915485E+00
(PID.TID 0000.0001)  ploadbar=  1.01109614450096E+05
 cg2d: Sum(rhs),rhsMax =  -8.49013219800160E+01  1.82943070428605E+00
(PID.TID 0000.0001)  ploadbar=  1.01108596834788E+05
 cg2d: Sum(rhs),rhsMax =  -8.54875410612551E+01  1.81694528890294E+00
(PID.TID 0000.0001)  ploadbar=  1.01107579219480E+05
 cg2d: Sum(rhs),rhsMax =  -8.59580484530184E+01  1.80704277667589E+00
(PID.TID 0000.0001)  ploadbar=  1.01106561604171E+05
 cg2d: Sum(rhs),rhsMax =  -8.63298486284484E+01  1.79927839236199E+00
(PID.TID 0000.0001)  ploadbar=  1.01106183224004E+05
 cg2d: Sum(rhs),rhsMax =  -8.65807806722983E+01  1.79405408486977E+00
(PID.TID 0000.0001)  ploadbar=  1.01105804843837E+05
 cg2d: Sum(rhs),rhsMax =  -8.66708835824497E+01  1.79214791453153E+00
(PID.TID 0000.0001)  ploadbar=  1.01105426463669E+05
 cg2d: Sum(rhs),rhsMax =  -8.67076470505877E+01  1.79130956054858E+00
(PID.TID 0000.0001)  ploadbar=  1.01105048083502E+05
 cg2d: Sum(rhs),rhsMax =  -8.68449204660308E+01  1.78836071485660E+00
(PID.TID 0000.0001)  ploadbar=  1.01104669703335E+05
 cg2d: Sum(rhs),rhsMax =  -8.71344853787403E+01  1.78225704666165E+00
(PID.TID 0000.0001)  ploadbar=  1.01104291323168E+05
 cg2d: Sum(rhs),rhsMax =  -8.73727457478035E+01  1.77726215419887E+00
(PID.TID 0000.0001)  ploadbar=  1.01103957587280E+05
 cg2d: Sum(rhs),rhsMax =  -8.76579878748225E+01  1.77136512192551E+00
(PID.TID 0000.0001)  ploadbar=  1.01103623851393E+05
 cg2d: Sum(rhs),rhsMax =  -8.79490717184702E+01  1.76540760954247E+00
(PID.TID 0000.0001)  ploadbar=  1.01103290115506E+05
 cg2d: Sum(rhs),rhsMax =  -8.81989441053160E+01  1.76032742685293E+00
(PID.TID 0000.0001)  ploadbar=  1.01102956379618E+05
 cg2d: Sum(rhs),rhsMax =  -8.84026365048596E+01  1.75620663676239E+00
(PID.TID 0000.0001)  ploadbar=  1.01102622643731E+05
 cg2d: Sum(rhs),rhsMax =  -8.85855635173661E+01  1.75252574956255E+00
(PID.TID 0000.0001)  ploadbar=  1.01102288907844E+05
 cg2d: Sum(rhs),rhsMax =  -8.87931442723646E+01  1.74836843892949E+00
(PID.TID 0000.0001)  ploadbar=  1.01101898568096E+05
 cg2d: Sum(rhs),rhsMax =  -8.87642109621499E+01  1.74887029301790E+00
(PID.TID 0000.0001)  ploadbar=  1.01101508228348E+05
 cg2d: Sum(rhs),rhsMax =  -8.84831491433960E+01  1.75434393425492E+00
(PID.TID 0000.0001)  ploadbar=  1.01101117888599E+05
 cg2d: Sum(rhs),rhsMax =  -8.80221597610767E+01  1.76343439106103E+00
(PID.TID 0000.0001)  ploadbar=  1.01100727548851E+05
 cg2d: Sum(rhs),rhsMax =  -8.74988254940851E+01  1.77386537614619E+00
(PID.TID 0000.0001)  ploadbar=  1.01100337209103E+05
 cg2d: Sum(rhs),rhsMax =  -8.69734330250723E+01  1.78444085510167E+00
(PID.TID 0000.0001)  ploadbar=  1.01099946869355E+05
 cg2d: Sum(rhs),rhsMax =  -8.64275998799695E+01  1.79556801364058E+00
(PID.TID 0000.0001)  ploadbar=  1.01099321508883E+05
 cg2d: Sum(rhs),rhsMax =  -8.58789016776314E+01  1.80689184942477E+00
(PID.TID 0000.0001)  ploadbar=  1.01098696148411E+05
 cg2d: Sum(rhs),rhsMax =  -8.52487229421948E+01  1.82009046761021E+00
(PID.TID 0000.0001)  ploadbar=  1.01098070787938E+05
 cg2d: Sum(rhs),rhsMax =  -8.44738963434722E+01  1.83661199336292E+00
(PID.TID 0000.0001)  ploadbar=  1.01097445427466E+05
 cg2d: Sum(rhs),rhsMax =  -8.35587987709400E+01  1.85653411822254E+00
(PID.TID 0000.0001)  ploadbar=  1.01096820066994E+05
 cg2d: Sum(rhs),rhsMax =  -8.25305001551392E+01  1.87944965305350E+00
(PID.TID 0000.0001)  ploadbar=  1.01096194706522E+05
 cg2d: Sum(rhs),rhsMax =  -8.14494053500813E+01  1.90416158249547E+00
(PID.TID 0000.0001)  ploadbar=  1.01095769431838E+05
 cg2d: Sum(rhs),rhsMax =  -8.03713249277291E+01  1.92944767461116E+00
(PID.TID 0000.0001)  ploadbar=  1.01095344157155E+05
 cg2d: Sum(rhs),rhsMax =  -7.93597678243795E+01  1.95375972164823E+00
(PID.TID 0000.0001)  ploadbar=  1.01094918882472E+05
 cg2d: Sum(rhs),rhsMax =  -7.84681587631000E+01  1.97564825436894E+00
(PID.TID 0000.0001)  ploadbar=  1.01094493607789E+05
 cg2d: Sum(rhs),rhsMax =  -7.77359041308060E+01  1.99391511961044E+00
(PID.TID 0000.0001)  ploadbar=  1.01094068333106E+05
 cg2d: Sum(rhs),rhsMax =  -7.71969167049863E+01  2.00745635462598E+00
(PID.TID 0000.0001)  ploadbar=  1.01093643058423E+05
 cg2d: Sum(rhs),rhsMax =  -7.68269156686076E+01  2.01680670287785E+00
(PID.TID 0000.0001)  ploadbar=  1.01092902975532E+05
 cg2d: Sum(rhs),rhsMax =  -7.66319538388530E+01  2.02167859780321E+00
(PID.TID 0000.0001)  ploadbar=  1.01092162892641E+05
 cg2d: Sum(rhs),rhsMax =  -7.66101952808358E+01  2.02205207029315E+00
(PID.TID 0000.0001)  ploadbar=  1.01091422809750E+05
 cg2d: Sum(rhs),rhsMax =  -7.67994635607140E+01  2.01692277381177E+00
(PID.TID 0000.0001)  ploadbar=  1.01090682726860E+05
 cg2d: Sum(rhs),rhsMax =  -7.72240222220416E+01  2.00574152299512E+00
(PID.TID 0000.0001)  ploadbar=  1.01089942643969E+05
 cg2d: Sum(rhs),rhsMax =  -7.79037601415216E+01  1.98819568278148E+00
(PID.TID 0000.0001)  ploadbar=  1.01089202561078E+05
 cg2d: Sum(rhs),rhsMax =  -7.88280656707068E+01  1.96482492598509E+00
(PID.TID 0000.0001)  ploadbar=  1.01088497319894E+05
 cg2d: Sum(rhs),rhsMax =  -8.00068210636913E+01  1.93580160929146E+00
(PID.TID 0000.0001)  ploadbar=  1.01087792078710E+05
 cg2d: Sum(rhs),rhsMax =  -8.14284252237438E+01  1.90190988835537E+00
(PID.TID 0000.0001)  ploadbar=  1.01087086837526E+05
 cg2d: Sum(rhs),rhsMax =  -8.30149736261429E+01  1.86544212332691E+00
(PID.TID 0000.0001)  ploadbar=  1.01086381596342E+05
 cg2d: Sum(rhs),rhsMax =  -8.44389633954755E+01  1.83383845580989E+00
(PID.TID 0000.0001)  ploadbar=  1.01085676355158E+05
 cg2d: Sum(rhs),rhsMax =  -8.57271669534096E+01  1.80611158556749E+00
(PID.TID 0000.0001)  ploadbar=  1.01084971113975E+05
 cg2d: Sum(rhs),rhsMax =  -8.69618110484715E+01  1.78031370948632E+00
(PID.TID 0000.0001)  ploadbar=  1.01084179331509E+05
 cg2d: Sum(rhs),rhsMax =  -8.82166451805376E+01  1.75484340144258E+00
(PID.TID 0000.0001)  ploadbar=  1.01083387549044E+05
 cg2d: Sum(rhs),rhsMax =  -8.94357596290837E+01  1.73078204039807E+00
(PID.TID 0000.0001)  ploadbar=  1.01082595766579E+05
 cg2d: Sum(rhs),rhsMax =  -9.06115062662905E+01  1.70818349517814E+00
(PID.TID 0000.0001)  ploadbar=  1.01081803984114E+05
 cg2d: Sum(rhs),rhsMax =  -9.18197955742941E+01  1.68556276321898E+00
(PID.TID 0000.0001)  ploadbar=  1.01081012201649E+05
 cg2d: Sum(rhs),rhsMax =  -9.34544334798538E+01  1.65593337290422E+00
(PID.TID 0000.0001)  ploadbar=  1.01080220419184E+05
 cg2d: Sum(rhs),rhsMax =  -9.56161565579569E+01  1.61835433032798E+00
(PID.TID 0000.0001)  ploadbar=  1.01078893475254E+05
 cg2d: Sum(rhs),rhsMax =  -9.82367948374583E+01  1.57504661923162E+00
(PID.TID 0000.0001)  ploadbar=  1.01077566531324E+05
 cg2d: Sum(rhs),rhsMax =  -1.00699576681712E+02  1.53639327455333E+00
(PID.TID 0000.0001)  ploadbar=  1.01076239587394E+05
 cg2d: Sum(rhs),rhsMax =  -1.02190699809285E+02  1.51384217129834E+00
(PID.TID 0000.0001)  ploadbar=  1.01074912643464E+05
 cg2d: Sum(rhs),rhsMax =  -1.02434966920534E+02  1.51009391422204E+00
(PID.TID 0000.0001)  ploadbar=  1.01073585699534E+05
 cg2d: Sum(rhs),rhsMax =  -1.01970052902630E+02  1.51683324873765E+00
(PID.TID 0000.0001)  ploadbar=  1.01072258755604E+05
 cg2d: Sum(rhs),rhsMax =  -1.01649038724056E+02  1.52150498274086E+00
(PID.TID 0000.0001)  ploadbar=  1.01071251530683E+05
 cg2d: Sum(rhs),rhsMax =  -1.01569990533392E+02  1.52259583336465E+00
(PID.TID 0000.0001)  ploadbar=  1.01070244305762E+05
 cg2d: Sum(rhs),rhsMax =  -1.01693096670609E+02  1.52068288821766E+00
(PID.TID 0000.0001)  ploadbar=  1.01069237080841E+05
 cg2d: Sum(rhs),rhsMax =  -1.01892248072389E+02  1.51765698486396E+00
(PID.TID 0000.0001)  ploadbar=  1.01068229855920E+05
 cg2d: Sum(rhs),rhsMax =  -1.02034724060901E+02  1.51549936823413E+00
(PID.TID 0000.0001)  ploadbar=  1.01067222630999E+05
 cg2d: Sum(rhs),rhsMax =  -1.02032547101369E+02  1.51550938861349E+00
(PID.TID 0000.0001)  ploadbar=  1.01066215406077E+05
 cg2d: Sum(rhs),rhsMax =  -1.01891939282499E+02  1.51754069001197E+00
(PID.TID 0000.0001)  ploadbar=  1.01064839522011E+05
 cg2d: Sum(rhs),rhsMax =  -1.01653975121464E+02  1.52099192725916E+00
(PID.TID 0000.0001)  ploadbar=  1.01063463637945E+05
 cg2d: Sum(rhs),rhsMax =  -1.01369948948796E+02  1.52510775391505E+00
(PID.TID 0000.0001)  ploadbar=  1.01062087753879E+05
 cg2d: Sum(rhs),rhsMax =  -1.01125737417732E+02  1.52859653974732E+00
(PID.TID 0000.0001)  ploadbar=  1.01060711869813E+05
 cg2d: Sum(rhs),rhsMax =  -1.01001806909479E+02  1.53022455413591E+00
(PID.TID 0000.0001)  ploadbar=  1.01059335985746E+05
 cg2d: Sum(rhs),rhsMax =  -9.80155904962001E+01  1.57653239226661E+00
(PID.TID 0000.0001)  ploadbar=  1.01057960101680E+05
 cg2d: Sum(rhs),rhsMax =  -9.54811346078062E+01  1.61808621486436E+00
(PID.TID 0000.0001)  ploadbar=  1.01057083543256E+05
 cg2d: Sum(rhs),rhsMax =  -9.34021311258276E+01  1.65382657281491E+00
(PID.TID 0000.0001)  ploadbar=  1.01056206984832E+05
 cg2d: Sum(rhs),rhsMax =  -9.17329443631765E+01  1.68365913170845E+00
(PID.TID 0000.0001)  ploadbar=  1.01055330426408E+05
 cg2d: Sum(rhs),rhsMax =  -9.04660019192749E+01  1.70698942235179E+00
(PID.TID 0000.0001)  ploadbar=  1.01054453867984E+05
 cg2d: Sum(rhs),rhsMax =  -8.95458307046758E+01  1.72429102132077E+00
(PID.TID 0000.0001)  ploadbar=  1.01053577309560E+05
 cg2d: Sum(rhs),rhsMax =  -8.89114954635948E+01  1.73635797931304E+00
(PID.TID 0000.0001)  ploadbar=  1.01052700751136E+05
 cg2d: Sum(rhs),rhsMax =  -8.86066772959473E+01  1.74210502408159E+00
(PID.TID 0000.0001)  ploadbar=  1.01053137811518E+05
 cg2d: Sum(rhs),rhsMax =  -8.84852863406248E+01  1.74427403965002E+00
(PID.TID 0000.0001)  ploadbar=  1.01053574871899E+05
 cg2d: Sum(rhs),rhsMax =  -8.84566648324485E+01  1.74462257103941E+00
(PID.TID 0000.0001)  ploadbar=  1.01054011932280E+05
 cg2d: Sum(rhs),rhsMax =  -8.85377316517953E+01  1.74280848024877E+00
(PID.TID 0000.0001)  ploadbar=  1.01054448992661E+05
 cg2d: Sum(rhs),rhsMax =  -8.87550667825018E+01  1.73832091417284E+00
(PID.TID 0000.0001)  ploadbar=  1.01054886053042E+05
 cg2d: Sum(rhs),rhsMax =  -8.91137071387579E+01  1.73110125972918E+00
(PID.TID 0000.0001)  ploadbar=  1.01055323113424E+05
 cg2d: Sum(rhs),rhsMax =  -8.95748770818431E+01  1.72201120434622E+00
(PID.TID 0000.0001)  ploadbar=  1.01055728141227E+05
 cg2d: Sum(rhs),rhsMax =  -9.01396041024716E+01  1.71108603532423E+00
(PID.TID 0000.0001)  ploadbar=  1.01056133169030E+05
 cg2d: Sum(rhs),rhsMax =  -9.07435292843653E+01  1.69959952180639E+00
(PID.TID 0000.0001)  ploadbar=  1.01056538196833E+05
 cg2d: Sum(rhs),rhsMax =  -9.13845575162013E+01  1.68761248259887E+00
(PID.TID 0000.0001)  ploadbar=  1.01056943224636E+05
 cg2d: Sum(rhs),rhsMax =  -9.20638897357436E+01  1.67512646546381E+00
(PID.TID 0000.0001)  ploadbar=  1.01057348252439E+05
 cg2d: Sum(rhs),rhsMax =  -9.27651976989822E+01  1.66245615070351E+00
(PID.TID 0000.0001)  ploadbar=  1.01057753280242E+05
 cg2d: Sum(rhs),rhsMax =  -9.34876343701199E+01  1.64960036226446E+00
(PID.TID 0000.0001)  ploadbar=  1.01058589965601E+05
 cg2d: Sum(rhs),rhsMax =  -9.43558209401023E+01  1.63440860148553E+00
(PID.TID 0000.0001)  ploadbar=  1.01059426650959E+05
 cg2d: Sum(rhs),rhsMax =  -9.54927556496468E+01  1.61492683671453E+00
(PID.TID 0000.0001)  ploadbar=  1.01060263336318E+05
 cg2d: Sum(rhs),rhsMax =  -9.66014420449804E+01  1.59635884351146E+00
(PID.TID 0000.0001)  ploadbar=  1.01061100021676E+05
 cg2d: Sum(rhs),rhsMax =  -9.76640809986922E+01  1.57894156929710E+00
(PID.TID 0000.0001)  ploadbar=  1.01061936707034E+05
 cg2d: Sum(rhs),rhsMax =  -9.86083323041870E+01  1.56375705547480E+00
(PID.TID 0000.0001)  ploadbar=  1.01062773392393E+05
 cg2d: Sum(rhs),rhsMax =  -9.94824161060141E+01  1.54997721598696E+00
(PID.TID 0000.0001)  ploadbar=  1.01063575913474E+05
 cg2d: Sum(rhs),rhsMax =  -1.00260354751968E+02  1.53792787654975E+00
(PID.TID 0000.0001)  ploadbar=  1.01064378434556E+05
 cg2d: Sum(rhs),rhsMax =  -1.00924667805979E+02  1.52779369124251E+00
(PID.TID 0000.0001)  ploadbar=  1.01065180955637E+05
 cg2d: Sum(rhs),rhsMax =  -1.01463772396582E+02  1.51967128018999E+00
(PID.TID 0000.0001)  ploadbar=  1.01065983476719E+05
 cg2d: Sum(rhs),rhsMax =  -1.01955998379704E+02  1.51233295279135E+00
(PID.TID 0000.0001)  ploadbar=  1.01066785997800E+05
 cg2d: Sum(rhs),rhsMax =  -1.02526371573219E+02  1.50391839334408E+00
(PID.TID 0000.0001)  ploadbar=  1.01067588518882E+05
 cg2d: Sum(rhs),rhsMax =  -1.03222103159493E+02  1.49379106250350E+00
(PID.TID 0000.0001)  ploadbar=  1.01069771228039E+05
 cg2d: Sum(rhs),rhsMax =  -1.04040166209674E+02  1.48206090067846E+00
(PID.TID 0000.0001)  ploadbar=  1.01071953937195E+05
 cg2d: Sum(rhs),rhsMax =  -1.04959135159130E+02  1.46910312488745E+00
(PID.TID 0000.0001)  ploadbar=  1.01074136646352E+05
 cg2d: Sum(rhs),rhsMax =  -1.05993908838175E+02  1.45477726253134E+00
(PID.TID 0000.0001)  ploadbar=  1.01076319355508E+05
 cg2d: Sum(rhs),rhsMax =  -1.07356490010596E+02  1.43632344144247E+00
(PID.TID 0000.0001)  ploadbar=  1.01078502064665E+05
 cg2d: Sum(rhs),rhsMax =  -1.09089696523823E+02  1.41350501310219E+00
(PID.TID 0000.0001)  ploadbar=  1.01080684773822E+05
 cg2d: Sum(rhs),rhsMax =  -1.11092219681889E+02  1.38806571069159E+00
(PID.TID 0000.0001)  ploadbar=  1.01082665736174E+05
 cg2d: Sum(rhs),rhsMax =  -1.13630967979201E+02  1.35712826163616E+00
(PID.TID 0000.0001)  ploadbar=  1.01084646698526E+05
 cg2d: Sum(rhs),rhsMax =  -1.16675359803349E+02  1.32181903224648E+00
(PID.TID 0000.0001)  ploadbar=  1.01086627660879E+05
 cg2d: Sum(rhs),rhsMax =  -1.20142634959977E+02  1.28379666432390E+00
(PID.TID 0000.0001)  ploadbar=  1.01088608623231E+05
 cg2d: Sum(rhs),rhsMax =  -1.20307744036355E+02  1.28218143988780E+00
(PID.TID 0000.0001)  ploadbar=  1.01090589585583E+05
 cg2d: Sum(rhs),rhsMax =  -1.19187425178329E+02  1.29439892756039E+00
(PID.TID 0000.0001)  ploadbar=  1.01092570547935E+05
 cg2d: Sum(rhs),rhsMax =  -1.18347222340663E+02  1.30375079499248E+00
(PID.TID 0000.0001)  ploadbar=  1.01094953647880E+05
 cg2d: Sum(rhs),rhsMax =  -1.17870472912391E+02  1.30918098285516E+00
(PID.TID 0000.0001)  ploadbar=  1.01097336747825E+05
 cg2d: Sum(rhs),rhsMax =  -1.17678601639136E+02  1.31146253830644E+00
(PID.TID 0000.0001)  ploadbar=  1.01099719847770E+05
 cg2d: Sum(rhs),rhsMax =  -1.17633619562197E+02  1.31209785828282E+00
(PID.TID 0000.0001)  ploadbar=  1.01102102947715E+05
 cg2d: Sum(rhs),rhsMax =  -1.17366880797618E+02  1.31519863666258E+00
(PID.TID 0000.0001)  ploadbar=  1.01104486047660E+05
 cg2d: Sum(rhs),rhsMax =  -1.15759045130585E+02  1.33356592944263E+00
(PID.TID 0000.0001)  ploadbar=  1.01106869147605E+05
 cg2d: Sum(rhs),rhsMax =  -1.14073940694094E+02  1.35338681573140E+00
(PID.TID 0000.0001)  ploadbar=  1.01107096269921E+05
 cg2d: Sum(rhs),rhsMax =  -1.12362034477524E+02  1.37414512713188E+00
(PID.TID 0000.0001)  ploadbar=  1.01107323392237E+05
 cg2d: Sum(rhs),rhsMax =  -1.10647073684247E+02  1.39559689841209E+00
(PID.TID 0000.0001)  ploadbar=  1.01107550514553E+05
 cg2d: Sum(rhs),rhsMax =  -1.08954455625300E+02  1.41744217840865E+00
(PID.TID 0000.0001)  ploadbar=  1.01107777636869E+05
 cg2d: Sum(rhs),rhsMax =  -1.07321467500682E+02  1.43917914923139E+00
(PID.TID 0000.0001)  ploadbar=  1.01108004759185E+05
 cg2d: Sum(rhs),rhsMax =  -1.05789344691447E+02  1.46019159688789E+00
(PID.TID 0000.0001)  ploadbar=  1.01108231881501E+05
 cg2d: Sum(rhs),rhsMax =  -1.04290831758540E+02  1.48133810083522E+00
(PID.TID 0000.0001)  ploadbar=  1.01107473926622E+05
 cg2d: Sum(rhs),rhsMax =  -1.02770169318326E+02  1.50341498517640E+00
(PID.TID 0000.0001)  ploadbar=  1.01106715971743E+05
 cg2d: Sum(rhs),rhsMax =  -1.01226785524936E+02  1.52648481209653E+00
(PID.TID 0000.0001)  ploadbar=  1.01105958016864E+05
 cg2d: Sum(rhs),rhsMax =  -9.96868333840978E+01  1.55019772944225E+00
(PID.TID 0000.0001)  ploadbar=  1.01105200061985E+05
 cg2d: Sum(rhs),rhsMax =  -9.81714879011832E+01  1.57423760302794E+00
(PID.TID 0000.0001)  ploadbar=  1.01104442107107E+05
 cg2d: Sum(rhs),rhsMax =  -9.66980132862832E+01  1.59831077970395E+00
(PID.TID 0000.0001)  ploadbar=  1.01103684152228E+05
 cg2d: Sum(rhs),rhsMax =  -9.52621202552746E+01  1.62253111489380E+00
(PID.TID 0000.0001)  ploadbar=  1.01103293558000E+05
 cg2d: Sum(rhs),rhsMax =  -9.38795066880466E+01  1.64659876595085E+00
(PID.TID 0000.0001)  ploadbar=  1.01102902963771E+05
 cg2d: Sum(rhs),rhsMax =  -9.25979544567802E+01  1.66959830369671E+00
(PID.TID 0000.0001)  ploadbar=  1.01102512369543E+05
 cg2d: Sum(rhs),rhsMax =  -9.14955055658603E+01  1.68996212968008E+00
(PID.TID 0000.0001)  ploadbar=  1.01102121775315E+05
 cg2d: Sum(rhs),rhsMax =  -9.06666084609622E+01  1.70569080497169E+00
(PID.TID 0000.0001)  ploadbar=  1.01101731181087E+05
 cg2d: Sum(rhs),rhsMax =  -9.01885660856247E+01  1.71503748732633E+00
(PID.TID 0000.0001)  ploadbar=  1.01101340586859E+05
 cg2d: Sum(rhs),rhsMax =  -9.01833584981234E+01  1.71542354931908E+00
(PID.TID 0000.0001)  ploadbar=  1.01100324242943E+05
 cg2d: Sum(rhs),rhsMax =  -9.06169366225571E+01  1.70747981089439E+00
(PID.TID 0000.0001)  ploadbar=  1.01099307899027E+05
 cg2d: Sum(rhs),rhsMax =  -9.12750153998571E+01  1.69539970746024E+00
(PID.TID 0000.0001)  ploadbar=  1.01098291555112E+05
 cg2d: Sum(rhs),rhsMax =  -9.19100289191666E+01  1.68387218679774E+00
(PID.TID 0000.0001)  ploadbar=  1.01097275211196E+05
 cg2d: Sum(rhs),rhsMax =  -9.25068074309527E+01  1.67314493251623E+00
(PID.TID 0000.0001)  ploadbar=  1.01096258867280E+05
 cg2d: Sum(rhs),rhsMax =  -9.30985003207479E+01  1.66258968509329E+00
(PID.TID 0000.0001)  ploadbar=  1.01095242523364E+05
 cg2d: Sum(rhs),rhsMax =  -9.36858649932351E+01  1.65226606862977E+00
(PID.TID 0000.0001)  ploadbar=  1.01094228134144E+05
 cg2d: Sum(rhs),rhsMax =  -9.42615979779846E+01  1.64228999289171E+00
(PID.TID 0000.0001)  ploadbar=  1.01093213744924E+05
 cg2d: Sum(rhs),rhsMax =  -9.48125057373828E+01  1.63286993273940E+00
(PID.TID 0000.0001)  ploadbar=  1.01092199355704E+05
 cg2d: Sum(rhs),rhsMax =  -9.35920095490013E+01  1.65428829406800E+00
(PID.TID 0000.0001)  ploadbar=  1.01091184966483E+05
 cg2d: Sum(rhs),rhsMax =  -9.24316022994115E+01  1.67517645642571E+00
(PID.TID 0000.0001)  ploadbar=  1.01090170577263E+05
 cg2d: Sum(rhs),rhsMax =  -9.14788358360679E+01  1.69273063914308E+00
(PID.TID 0000.0001)  ploadbar=  1.01089156188043E+05
 cg2d: Sum(rhs),rhsMax =  -9.06973934668797E+01  1.70739748128114E+00
(PID.TID 0000.0001)  ploadbar=  1.01087888161960E+05
 cg2d: Sum(rhs),rhsMax =  -9.00552146983117E+01  1.71962898325331E+00
(PID.TID 0000.0001)  ploadbar=  1.01086620135877E+05
 cg2d: Sum(rhs),rhsMax =  -8.95306122992655E+01  1.72972961206788E+00
(PID.TID 0000.0001)  ploadbar=  1.01085352109794E+05
 cg2d: Sum(rhs),rhsMax =  -8.91008797728890E+01  1.73806107182107E+00
(PID.TID 0000.0001)  ploadbar=  1.01084084083711E+05
 cg2d: Sum(rhs),rhsMax =  -8.87438729505563E+01  1.74500491800771E+00
(PID.TID 0000.0001)  ploadbar=  1.01082816057628E+05
 cg2d: Sum(rhs),rhsMax =  -8.84390836473542E+01  1.75093173565502E+00
(PID.TID 0000.0001)  ploadbar=  1.01081548031545E+05
 cg2d: Sum(rhs),rhsMax =  -8.81788911719746E+01  1.75606053517021E+00
(PID.TID 0000.0001)  ploadbar=  1.01081315833012E+05
 cg2d: Sum(rhs),rhsMax =  -8.79469779758934E+01  1.76069920700006E+00
(PID.TID 0000.0001)  ploadbar=  1.01081083634479E+05
 cg2d: Sum(rhs),rhsMax =  -8.77396386461813E+01  1.76491109219738E+00
(PID.TID 0000.0001)  ploadbar=  1.01080851435946E+05
 cg2d: Sum(rhs),rhsMax =  -8.75705624422839E+01  1.76840507744452E+00
(PID.TID 0000.0001)  ploadbar=  1.01080619237413E+05
 cg2d: Sum(rhs),rhsMax =  -8.74545092556323E+01  1.77086937946643E+00
(PID.TID 0000.0001)  ploadbar=  1.01080387038880E+05
 cg2d: Sum(rhs),rhsMax =  -8.74109097405948E+01  1.77189395673364E+00
(PID.TID 0000.0001)  ploadbar=  1.01080154840347E+05
 cg2d: Sum(rhs),rhsMax =  -8.74655908082133E+01  1.77092935915815E+00
(PID.TID 0000.0001)  ploadbar=  1.01079870038218E+05
 cg2d: Sum(rhs),rhsMax =  -8.76519268875170E+01  1.76730585467601E+00
(PID.TID 0000.0001)  ploadbar=  1.01079585236089E+05
 cg2d: Sum(rhs),rhsMax =  -8.79625327028971E+01  1.76120053549861E+00
(PID.TID 0000.0001)  ploadbar=  1.01079300433960E+05
 cg2d: Sum(rhs),rhsMax =  -8.83715403798330E+01  1.75317347861042E+00
(PID.TID 0000.0001)  ploadbar=  1.01079015631832E+05
 cg2d: Sum(rhs),rhsMax =  -8.83165105223534E+01  1.75437525924197E+00
(PID.TID 0000.0001)  ploadbar=  1.01078730829703E+05
 cg2d: Sum(rhs),rhsMax =  -8.77886461817617E+01  1.76501366157900E+00
(PID.TID 0000.0001)  ploadbar=  1.01078446027574E+05
 cg2d: Sum(rhs),rhsMax =  -8.74417928907539E+01  1.77212130027155E+00
(PID.TID 0000.0001)  ploadbar=  1.01077352045043E+05
 cg2d: Sum(rhs),rhsMax =  -8.71916378635464E+01  1.77732583725229E+00
(PID.TID 0000.0001)  ploadbar=  1.01076258062513E+05
 cg2d: Sum(rhs),rhsMax =  -8.69530360932267E+01  1.78233212898797E+00
(PID.TID 0000.0001)  ploadbar=  1.01075164079982E+05
 cg2d: Sum(rhs),rhsMax =  -8.65852417224471E+01  1.79003564803344E+00
(PID.TID 0000.0001)  ploadbar=  1.01074070097451E+05
 cg2d: Sum(rhs),rhsMax =  -8.64371073181994E+01  1.79323387534026E+00
(PID.TID 0000.0001)  ploadbar=  1.01072976114921E+05
 cg2d: Sum(rhs),rhsMax =  -8.67359496125455E+01  1.78717643357051E+00
(PID.TID 0000.0001)  ploadbar=  1.01071882132390E+05
 cg2d: Sum(rhs),rhsMax =  -8.68757158020182E+01  1.78437480571740E+00
(PID.TID 0000.0001)  ploadbar=  1.01071417516979E+05
 cg2d: Sum(rhs),rhsMax =  -8.69908291248310E+01  1.78203834173817E+00
(PID.TID 0000.0001)  ploadbar=  1.01070952901568E+05
 cg2d: Sum(rhs),rhsMax =  -8.70838657527074E+01  1.78010871060182E+00
(PID.TID 0000.0001)  ploadbar=  1.01070488286158E+05
 cg2d: Sum(rhs),rhsMax =  -8.71701369219552E+01  1.77826803152054E+00
(PID.TID 0000.0001)  ploadbar=  1.01070023670747E+05
 cg2d: Sum(rhs),rhsMax =  -8.72674194352360E+01  1.77615289816270E+00
(PID.TID 0000.0001)  ploadbar=  1.01069559055336E+05
 cg2d: Sum(rhs),rhsMax =  -8.73610438680010E+01  1.77406131413541E+00
(PID.TID 0000.0001)  ploadbar=  1.01069094439925E+05
 cg2d: Sum(rhs),rhsMax =  -8.74782921398441E+01  1.77155528989292E+00
(PID.TID 0000.0001)  ploadbar=  1.01068007170967E+05
 cg2d: Sum(rhs),rhsMax =  -8.76741417476814E+01  1.76752485307355E+00
(PID.TID 0000.0001)  ploadbar=  1.01066919902008E+05
 cg2d: Sum(rhs),rhsMax =  -8.79223940254462E+01  1.76251192601771E+00
(PID.TID 0000.0001)  ploadbar=  1.01065832633050E+05
 cg2d: Sum(rhs),rhsMax =  -8.82202048219989E+01  1.75658490397725E+00
(PID.TID 0000.0001)  ploadbar=  1.01064745364092E+05
 cg2d: Sum(rhs),rhsMax =  -8.85811811762270E+01  1.74948956679232E+00
(PID.TID 0000.0001)  ploadbar=  1.01063658095133E+05
 cg2d: Sum(rhs),rhsMax =  -8.89760474683158E+01  1.74182479485337E+00
(PID.TID 0000.0001)  ploadbar=  1.01062570826175E+05
 cg2d: Sum(rhs),rhsMax =  -8.92110450082179E+01  1.73735178753010E+00
(PID.TID 0000.0001)  ploadbar=  1.01061999676642E+05
 cg2d: Sum(rhs),rhsMax =  -8.93397788792147E+01  1.73497580612421E+00
(PID.TID 0000.0001)  ploadbar=  1.01061428527109E+05
 cg2d: Sum(rhs),rhsMax =  -8.94095640399980E+01  1.73375374880066E+00
(PID.TID 0000.0001)  ploadbar=  1.01060857377576E+05
 cg2d: Sum(rhs),rhsMax =  -8.94625266902942E+01  1.73285896806467E+00
(PID.TID 0000.0001)  ploadbar=  1.01060286228043E+05
 cg2d: Sum(rhs),rhsMax =  -8.95024516690887E+01  1.73221170462361E+00
(PID.TID 0000.0001)  ploadbar=  1.01059715078510E+05
 cg2d: Sum(rhs),rhsMax =  -8.95306588496968E+01  1.73178254253803E+00
(PID.TID 0000.0001)  ploadbar=  1.01059143928976E+05
 cg2d: Sum(rhs),rhsMax =  -8.95952865505832E+01  1.73062719434665E+00
(PID.TID 0000.0001)  ploadbar=  1.01058081444773E+05
 cg2d: Sum(rhs),rhsMax =  -8.96491218423325E+01  1.72965578225278E+00
(PID.TID 0000.0001)  ploadbar=  1.01057018960570E+05
 cg2d: Sum(rhs),rhsMax =  -8.97040040674436E+01  1.72863524481759E+00
(PID.TID 0000.0001)  ploadbar=  1.01055956476367E+05
 cg2d: Sum(rhs),rhsMax =  -8.97706851871163E+01  1.72735329440468E+00
(PID.TID 0000.0001)  ploadbar=  1.01054893992164E+05
 cg2d: Sum(rhs),rhsMax =  -8.98512196609773E+01  1.72576673838240E+00
(PID.TID 0000.0001)  ploadbar=  1.01053831507961E+05
 cg2d: Sum(rhs),rhsMax =  -8.99444912541996E+01  1.72389349449960E+00
(PID.TID 0000.0001)  ploadbar=  1.01052769023758E+05
 cg2d: Sum(rhs),rhsMax =  -9.00849645238131E+01  1.72111387479298E+00
(PID.TID 0000.0001)  ploadbar=  1.01052717604141E+05
 cg2d: Sum(rhs),rhsMax =  -9.02312263060101E+01  1.71822206004950E+00
(PID.TID 0000.0001)  ploadbar=  1.01052666184525E+05
 cg2d: Sum(rhs),rhsMax =  -9.03813817186931E+01  1.71525447905945E+00
(PID.TID 0000.0001)  ploadbar=  1.01052614764909E+05
 cg2d: Sum(rhs),rhsMax =  -9.05346232234028E+01  1.71222413955525E+00
(PID.TID 0000.0001)  ploadbar=  1.01052563345292E+05
 cg2d: Sum(rhs),rhsMax =  -9.06919830602671E+01  1.70910774739838E+00
(PID.TID 0000.0001)  ploadbar=  1.01052511925676E+05
 cg2d: Sum(rhs),rhsMax =  -9.08356514057119E+01  1.70623755440782E+00
(PID.TID 0000.0001)  ploadbar=  1.01052460506060E+05
 cg2d: Sum(rhs),rhsMax =  -9.09698490720850E+01  1.70361315527104E+00
(PID.TID 0000.0001)  ploadbar=  1.01054453376066E+05
 cg2d: Sum(rhs),rhsMax =  -9.10918717983508E+01  1.70127702206231E+00
(PID.TID 0000.0001)  ploadbar=  1.01056446246072E+05
 cg2d: Sum(rhs),rhsMax =  -9.11787936008362E+01  1.69964828535164E+00
(PID.TID 0000.0001)  ploadbar=  1.01058439116078E+05
 cg2d: Sum(rhs),rhsMax =  -9.12296079669492E+01  1.69873243511779E+00
(PID.TID 0000.0001)  ploadbar=  1.01060431986084E+05
 cg2d: Sum(rhs),rhsMax =  -9.12550446656482E+01  1.69831859816238E+00
(PID.TID 0000.0001)  ploadbar=  1.01062424856091E+05
 cg2d: Sum(rhs),rhsMax =  -9.12617528145316E+01  1.69827606599732E+00
(PID.TID 0000.0001)  ploadbar=  1.01064417726097E+05
 cg2d: Sum(rhs),rhsMax =  -9.12057364339578E+01  1.69940882742516E+00
(PID.TID 0000.0001)  ploadbar=  1.01065280003619E+05
 cg2d: Sum(rhs),rhsMax =  -9.11589050118421E+01  1.70037484776097E+00
(PID.TID 0000.0001)  ploadbar=  1.01066142281142E+05
 cg2d: Sum(rhs),rhsMax =  -9.11367247989087E+01  1.70088072820525E+00
(PID.TID 0000.0001)  ploadbar=  1.01067004558664E+05
 cg2d: Sum(rhs),rhsMax =  -9.11358885452234E+01  1.70098168650851E+00
(PID.TID 0000.0001)  ploadbar=  1.01067866836187E+05
 cg2d: Sum(rhs),rhsMax =  -9.11550775682837E+01  1.70069852386562E+00
(PID.TID 0000.0001)  ploadbar=  1.01068729113709E+05
 cg2d: Sum(rhs),rhsMax =  -9.11993209310589E+01  1.69993444444902E+00
(PID.TID 0000.0001)  ploadbar=  1.01069591391231E+05
 cg2d: Sum(rhs),rhsMax =  -9.12458434304025E+01  1.69913652910845E+00
(PID.TID 0000.0001)  ploadbar=  1.01070256067290E+05
 cg2d: Sum(rhs),rhsMax =  -9.13140725339881E+01  1.69793990782930E+00
(PID.TID 0000.0001)  ploadbar=  1.01070920743348E+05
 cg2d: Sum(rhs),rhsMax =  -9.13965606006515E+01  1.69648126614944E+00
(PID.TID 0000.0001)  ploadbar=  1.01071585419406E+05
 cg2d: Sum(rhs),rhsMax =  -9.14918119073367E+01  1.69478460606492E+00
(PID.TID 0000.0001)  ploadbar=  1.01072250095464E+05
 cg2d: Sum(rhs),rhsMax =  -9.15959910205736E+01  1.69291831759372E+00
(PID.TID 0000.0001)  ploadbar=  1.01072914771522E+05
 cg2d: Sum(rhs),rhsMax =  -9.17082848310068E+01  1.69089342108543E+00
(PID.TID 0000.0001)  ploadbar=  1.01073579447580E+05
 cg2d: Sum(rhs),rhsMax =  -9.18043410356776E+01  1.68915073672402E+00
(PID.TID 0000.0001)  ploadbar=  1.01073995447196E+05
 cg2d: Sum(rhs),rhsMax =  -9.19105828430534E+01  1.68720109788822E+00
(PID.TID 0000.0001)  ploadbar=  1.01074411446812E+05
 cg2d: Sum(rhs),rhsMax =  -9.20207492002917E+01  1.68515802512638E+00
(PID.TID 0000.0001)  ploadbar=  1.01074827446428E+05
 cg2d: Sum(rhs),rhsMax =  -9.21337887257220E+01  1.68303942078647E+00
(PID.TID 0000.0001)  ploadbar=  1.01075243446045E+05
 cg2d: Sum(rhs),rhsMax =  -9.22503327760336E+01  1.68083260399575E+00
(PID.TID 0000.0001)  ploadbar=  1.01075659445661E+05
 cg2d: Sum(rhs),rhsMax =  -9.23697655104633E+01  1.67854848854466E+00
(PID.TID 0000.0001)  ploadbar=  1.01076075445277E+05
 cg2d: Sum(rhs),rhsMax =  -9.24580603239056E+01  1.67687514516729E+00
(PID.TID 0000.0001)  ploadbar=  1.01076238289868E+05
 cg2d: Sum(rhs),rhsMax =  -9.25497870396666E+01  1.67517998292964E+00
(PID.TID 0000.0001)  ploadbar=  1.01076401134460E+05
 cg2d: Sum(rhs),rhsMax =  -9.26480102571124E+01  1.67340215476310E+00
(PID.TID 0000.0001)  ploadbar=  1.01076563979051E+05
 cg2d: Sum(rhs),rhsMax =  -9.27482221573027E+01  1.67161223353963E+00
(PID.TID 0000.0001)  ploadbar=  1.01076726823643E+05
 cg2d: Sum(rhs),rhsMax =  -9.28559189613634E+01  1.66970419824089E+00
(PID.TID 0000.0001)  ploadbar=  1.01076889668234E+05
 cg2d: Sum(rhs),rhsMax =  -9.29792828576344E+01  1.66752677540991E+00
(PID.TID 0000.0001)  ploadbar=  1.01077052512826E+05
 cg2d: Sum(rhs),rhsMax =  -9.31196086873538E+01  1.66503056712476E+00
(PID.TID 0000.0001)  ploadbar=  1.01077283145712E+05
 cg2d: Sum(rhs),rhsMax =  -9.33134657855895E+01  1.66155984013231E+00
(PID.TID 0000.0001)  ploadbar=  1.01077513778599E+05
 cg2d: Sum(rhs),rhsMax =  -9.35361346509311E+01  1.65755923278262E+00
(PID.TID 0000.0001)  ploadbar=  1.01077744411486E+05
 cg2d: Sum(rhs),rhsMax =  -9.38346212607010E+01  1.65220533275518E+00
(PID.TID 0000.0001)  ploadbar=  1.01077975044373E+05
 cg2d: Sum(rhs),rhsMax =  -9.42097982468518E+01  1.64550389125258E+00
(PID.TID 0000.0001)  ploadbar=  1.01078205677260E+05
 cg2d: Sum(rhs),rhsMax =  -9.46522174001678E+01  1.63764718617026E+00
(PID.TID 0000.0001)  ploadbar=  1.01078436310146E+05
 cg2d: Sum(rhs),rhsMax =  -9.51494233522153E+01  1.62893599132675E+00
(PID.TID 0000.0001)  ploadbar=  1.01078920437520E+05
 cg2d: Sum(rhs),rhsMax =  -9.56791011764253E+01  1.61977304412514E+00
(PID.TID 0000.0001)  ploadbar=  1.01079404564894E+05
 cg2d: Sum(rhs),rhsMax =  -9.62240872585556E+01  1.61045817083423E+00
(PID.TID 0000.0001)  ploadbar=  1.01079888692268E+05
 cg2d: Sum(rhs),rhsMax =  -9.67599773638234E+01  1.60139881833509E+00
(PID.TID 0000.0001)  ploadbar=  1.01080372819642E+05
 cg2d: Sum(rhs),rhsMax =  -9.73010164899769E+01  1.59234877718297E+00
(PID.TID 0000.0001)  ploadbar=  1.01080856947016E+05
 cg2d: Sum(rhs),rhsMax =  -9.78092975476020E+01  1.58391667226992E+00
(PID.TID 0000.0001)  ploadbar=  1.01081341074390E+05
 cg2d: Sum(rhs),rhsMax =  -9.82797050281077E+01  1.57614798818798E+00
(PID.TID 0000.0001)  ploadbar=  1.01081870710104E+05
 cg2d: Sum(rhs),rhsMax =  -9.86860316194881E+01  1.56943699558325E+00
(PID.TID 0000.0001)  ploadbar=  1.01082400345818E+05
 cg2d: Sum(rhs),rhsMax =  -9.89980027630958E+01  1.56423320811776E+00
(PID.TID 0000.0001)  ploadbar=  1.01082929981531E+05
 cg2d: Sum(rhs),rhsMax =  -9.92168251212069E+01  1.56048566911393E+00
(PID.TID 0000.0001)  ploadbar=  1.01083459617245E+05
 cg2d: Sum(rhs),rhsMax =  -9.93418202510574E+01  1.55818130769504E+00
(PID.TID 0000.0001)  ploadbar=  1.01083989252959E+05
 cg2d: Sum(rhs),rhsMax =  -9.93831899130961E+01  1.55714672958300E+00
(PID.TID 0000.0001)  ploadbar=  1.01084518888672E+05
 cg2d: Sum(rhs),rhsMax =  -9.94277888675618E+01  1.55610057912482E+00
(PID.TID 0000.0001)  ploadbar=  1.01085528399222E+05
 cg2d: Sum(rhs),rhsMax =  -9.94430123325658E+01  1.55554948887301E+00
(PID.TID 0000.0001)  ploadbar=  1.01086537909772E+05
 cg2d: Sum(rhs),rhsMax =  -9.94612452767904E+01  1.55498071709124E+00
(PID.TID 0000.0001)  ploadbar=  1.01087547420322E+05
 cg2d: Sum(rhs),rhsMax =  -9.95238093175173E+01  1.55373856001191E+00
(PID.TID 0000.0001)  ploadbar=  1.01088556930871E+05
 cg2d: Sum(rhs),rhsMax =  -9.96230015776405E+01  1.55193734709934E+00
(PID.TID 0000.0001)  ploadbar=  1.01089566441421E+05
 cg2d: Sum(rhs),rhsMax =  -9.94260465793413E+01  1.55476449939007E+00
(PID.TID 0000.0001)  ploadbar=  1.01090575951971E+05
 cg2d: Sum(rhs),rhsMax =  -9.93773714140196E+01  1.55528651707219E+00
(PID.TID 0000.0001)  ploadbar=  1.01089720497563E+05
 cg2d: Sum(rhs),rhsMax =  -9.95159123776509E+01  1.55288694237968E+00
(PID.TID 0000.0001)  ploadbar=  1.01088865043155E+05
 cg2d: Sum(rhs),rhsMax =  -9.96290058932792E+01  1.55088919813731E+00
(PID.TID 0000.0001)  ploadbar=  1.01088009588747E+05
 cg2d: Sum(rhs),rhsMax =  -9.97725405735474E+01  1.54841979174691E+00
(PID.TID 0000.0001)  ploadbar=  1.01087154134339E+05
 cg2d: Sum(rhs),rhsMax =  -9.99252573608283E+01  1.54580827957017E+00
(PID.TID 0000.0001)  ploadbar=  1.01086298679931E+05
 cg2d: Sum(rhs),rhsMax =  -1.00070873643832E+02  1.54330122096420E+00
(PID.TID 0000.0001)  ploadbar=  1.01085443225522E+05
 cg2d: Sum(rhs),rhsMax =  -1.00270318444917E+02  1.53998101369107E+00
(PID.TID 0000.0001)  ploadbar=  1.01085818707880E+05
 cg2d: Sum(rhs),rhsMax =  -1.00483173575293E+02  1.53647181308199E+00
(PID.TID 0000.0001)  ploadbar=  1.01086194190238E+05
 cg2d: Sum(rhs),rhsMax =  -1.00718074380335E+02  1.53264104471118E+00
(PID.TID 0000.0001)  ploadbar=  1.01086569672595E+05
 cg2d: Sum(rhs),rhsMax =  -1.00989070627127E+02  1.52827574194869E+00
(PID.TID 0000.0001)  ploadbar=  1.01086945154953E+05
 cg2d: Sum(rhs),rhsMax =  -1.01302795189519E+02  1.52328162607775E+00
(PID.TID 0000.0001)  ploadbar=  1.01087320637311E+05
 cg2d: Sum(rhs),rhsMax =  -1.01656686628536E+02  1.51770403342232E+00
(PID.TID 0000.0001)  ploadbar=  1.01087696119668E+05
 cg2d: Sum(rhs),rhsMax =  -1.02090159570609E+02  1.51097114476186E+00
(PID.TID 0000.0001)  ploadbar=  1.01088959518954E+05
 cg2d: Sum(rhs),rhsMax =  -1.02559326302348E+02  1.50375389202623E+00
(PID.TID 0000.0001)  ploadbar=  1.01090222918240E+05
 cg2d: Sum(rhs),rhsMax =  -1.03033834802185E+02  1.49650441334968E+00
(PID.TID 0000.0001)  ploadbar=  1.01091486317526E+05
 cg2d: Sum(rhs),rhsMax =  -1.03490778413032E+02  1.48955145437115E+00
(PID.TID 0000.0001)  ploadbar=  1.01092749716812E+05
 cg2d: Sum(rhs),rhsMax =  -1.03913490728665E+02  1.48312312442022E+00
(PID.TID 0000.0001)  ploadbar=  1.01094013116098E+05
 cg2d: Sum(rhs),rhsMax =  -1.04290441514131E+02  1.47736711805901E+00
(PID.TID 0000.0001)  ploadbar=  1.01095276515384E+05
 cg2d: Sum(rhs),rhsMax =  -1.04654067406212E+02  1.47188685544011E+00
(PID.TID 0000.0001)  ploadbar=  1.01095807395800E+05
 cg2d: Sum(rhs),rhsMax =  -1.04966720005600E+02  1.46719898732558E+00
(PID.TID 0000.0001)  ploadbar=  1.01096338276217E+05
 cg2d: Sum(rhs),rhsMax =  -1.05235824520964E+02  1.46318202396578E+00
(PID.TID 0000.0001)  ploadbar=  1.01096869156634E+05
 cg2d: Sum(rhs),rhsMax =  -1.05462603204375E+02  1.45980420513363E+00
(PID.TID 0000.0001)  ploadbar=  1.01097400037050E+05
 cg2d: Sum(rhs),rhsMax =  -1.05656720403737E+02  1.45692251816956E+00
(PID.TID 0000.0001)  ploadbar=  1.01097930917467E+05
 cg2d: Sum(rhs),rhsMax =  -1.05831408566910E+02  1.45434431591221E+00
(PID.TID 0000.0001)  ploadbar=  1.01098461797884E+05
 cg2d: Sum(rhs),rhsMax =  -1.06066516680805E+02  1.45096063899833E+00
(PID.TID 0000.0001)  ploadbar=  1.01098579509595E+05
 cg2d: Sum(rhs),rhsMax =  -1.06351095308969E+02  1.44692804082514E+00
(PID.TID 0000.0001)  ploadbar=  1.01098697221307E+05
 cg2d: Sum(rhs),rhsMax =  -1.06732776385275E+02  1.44160862327351E+00
(PID.TID 0000.0001)  ploadbar=  1.01098814933018E+05
 cg2d: Sum(rhs),rhsMax =  -1.07225852968050E+02  1.43483563255573E+00
(PID.TID 0000.0001)  ploadbar=  1.01098932644730E+05
 cg2d: Sum(rhs),rhsMax =  -1.07828529218147E+02  1.42667107473342E+00
(PID.TID 0000.0001)  ploadbar=  1.01099050356441E+05
 cg2d: Sum(rhs),rhsMax =  -1.08630298328255E+02  1.41599009038101E+00
(PID.TID 0000.0001)  ploadbar=  1.01099168068153E+05
 cg2d: Sum(rhs),rhsMax =  -1.09616774252335E+02  1.40308965080660E+00
(PID.TID 0000.0001)  ploadbar=  1.01099116729285E+05
 cg2d: Sum(rhs),rhsMax =  -1.10845811429632E+02  1.38736627453599E+00
(PID.TID 0000.0001)  ploadbar=  1.01099065390417E+05
 cg2d: Sum(rhs),rhsMax =  -1.12264002698202E+02  1.36966285546875E+00
(PID.TID 0000.0001)  ploadbar=  1.01099014051548E+05
 cg2d: Sum(rhs),rhsMax =  -1.13872294933459E+02  1.35012596000142E+00
(PID.TID 0000.0001)  ploadbar=  1.01098962712680E+05
 cg2d: Sum(rhs),rhsMax =  -1.15664283617077E+02  1.32899778418528E+00
(PID.TID 0000.0001)  ploadbar=  1.01098911373812E+05
 cg2d: Sum(rhs),rhsMax =  -1.17616945279880E+02  1.30670167208715E+00
(PID.TID 0000.0001)  ploadbar=  1.01098860034944E+05
 cg2d: Sum(rhs),rhsMax =  -1.19579686771313E+02  1.28501199971611E+00
(PID.TID 0000.0001)  ploadbar=  1.01098438579943E+05
 cg2d: Sum(rhs),rhsMax =  -1.21636060304263E+02  1.26303535471235E+00
(PID.TID 0000.0001)  ploadbar=  1.01098017124942E+05
 cg2d: Sum(rhs),rhsMax =  -1.23742709024402E+02  1.24126869274021E+00
(PID.TID 0000.0001)  ploadbar=  1.01097595669941E+05
 cg2d: Sum(rhs),rhsMax =  -1.25899983471308E+02  1.21972137007318E+00
(PID.TID 0000.0001)  ploadbar=  1.01097174214940E+05
 cg2d: Sum(rhs),rhsMax =  -1.28103530351233E+02  1.19844593378798E+00
(PID.TID 0000.0001)  ploadbar=  1.01096752759939E+05
 cg2d: Sum(rhs),rhsMax =  -1.30312294037412E+02  1.17781974541286E+00
(PID.TID 0000.0001)  ploadbar=  1.01096331304938E+05
 cg2d: Sum(rhs),rhsMax =  -1.32349126371215E+02  1.15942069735299E+00
(PID.TID 0000.0001)  ploadbar=  1.01096592513568E+05
 cg2d: Sum(rhs),rhsMax =  -1.34155749939038E+02  1.14356938001927E+00
(PID.TID 0000.0001)  ploadbar=  1.01096853722198E+05
 cg2d: Sum(rhs),rhsMax =  -1.35631673281590E+02  1.13092050223245E+00
(PID.TID 0000.0001)  ploadbar=  1.01097114930828E+05
 cg2d: Sum(rhs),rhsMax =  -1.36735492196439E+02  1.12161553037188E+00
(PID.TID 0000.0001)  ploadbar=  1.01097376139458E+05
 cg2d: Sum(rhs),rhsMax =  -1.37437600585129E+02  1.11573279237854E+00
(PID.TID 0000.0001)  ploadbar=  1.01097637348087E+05
 cg2d: Sum(rhs),rhsMax =  -1.37721220631725E+02  1.11330234419118E+00
(PID.TID 0000.0001)  ploadbar=  1.01097898556717E+05
 cg2d: Sum(rhs),rhsMax =  -1.36857745223409E+02  1.12018229837126E+00
(PID.TID 0000.0001)  ploadbar=  1.01097745152400E+05
 cg2d: Sum(rhs),rhsMax =  -1.36137791200465E+02  1.12594743425421E+00
(PID.TID 0000.0001)  ploadbar=  1.01097591748082E+05
 cg2d: Sum(rhs),rhsMax =  -1.36099169481810E+02  1.12609152301978E+00
(PID.TID 0000.0001)  ploadbar=  1.01097438343765E+05
 cg2d: Sum(rhs),rhsMax =  -1.36325526453649E+02  1.12402863130936E+00
(PID.TID 0000.0001)  ploadbar=  1.01097284939448E+05
 cg2d: Sum(rhs),rhsMax =  -1.36195637280932E+02  1.12488654779638E+00
(PID.TID 0000.0001)  ploadbar=  1.01097131535130E+05
 cg2d: Sum(rhs),rhsMax =  -1.35918264320711E+02  1.12694296269553E+00
(PID.TID 0000.0001)  ploadbar=  1.01096978130813E+05
 cg2d: Sum(rhs),rhsMax =  -1.33353170302807E+02  1.14838375200445E+00
(PID.TID 0000.0001)  ploadbar=  1.01097030764183E+05
 cg2d: Sum(rhs),rhsMax =  -1.29988581125219E+02  1.17787026134622E+00
(PID.TID 0000.0001)  ploadbar=  1.01097083397553E+05
 cg2d: Sum(rhs),rhsMax =  -1.26679076863033E+02  1.20839978841872E+00
(PID.TID 0000.0001)  ploadbar=  1.01097136030923E+05
 cg2d: Sum(rhs),rhsMax =  -1.23605920492431E+02  1.23819322278124E+00
(PID.TID 0000.0001)  ploadbar=  1.01097188664293E+05
 cg2d: Sum(rhs),rhsMax =  -1.21051200559619E+02  1.26406362319027E+00
(PID.TID 0000.0001)  ploadbar=  1.01097241297663E+05
 cg2d: Sum(rhs),rhsMax =  -1.18774563479549E+02  1.28801687772371E+00
(PID.TID 0000.0001)  ploadbar=  1.01097293931033E+05
 cg2d: Sum(rhs),rhsMax =  -1.16952530237768E+02  1.30779993574651E+00
(PID.TID 0000.0001)  ploadbar=  1.01097405293372E+05
 cg2d: Sum(rhs),rhsMax =  -1.15040267364616E+02  1.32924588520747E+00
(PID.TID 0000.0001)  ploadbar=  1.01097516655711E+05
 cg2d: Sum(rhs),rhsMax =  -1.13164703326388E+02  1.35097181540145E+00
(PID.TID 0000.0001)  ploadbar=  1.01097628018049E+05
 cg2d: Sum(rhs),rhsMax =  -1.11379897495319E+02  1.37230212642659E+00
(PID.TID 0000.0001)  ploadbar=  1.01097739380388E+05
 cg2d: Sum(rhs),rhsMax =  -1.09695430838275E+02  1.39303999174825E+00
(PID.TID 0000.0001)  ploadbar=  1.01097850742727E+05
 cg2d: Sum(rhs),rhsMax =  -1.08108818694008E+02  1.41312693305694E+00
(PID.TID 0000.0001)  ploadbar=  1.01097962105066E+05
 cg2d: Sum(rhs),rhsMax =  -1.06404389020342E+02  1.43545497169656E+00
(PID.TID 0000.0001)  ploadbar=  1.01098225304882E+05
 cg2d: Sum(rhs),rhsMax =  -1.04702619258618E+02  1.45852489495843E+00
(PID.TID 0000.0001)  ploadbar=  1.01098488504698E+05
 cg2d: Sum(rhs),rhsMax =  -1.03044006404984E+02  1.48178099001211E+00
(PID.TID 0000.0001)  ploadbar=  1.01098751704514E+05
 cg2d: Sum(rhs),rhsMax =  -1.01429360859487E+02  1.50518371725046E+00
(PID.TID 0000.0001)  ploadbar=  1.01099014904330E+05
 cg2d: Sum(rhs),rhsMax =  -9.98442404084165E+01  1.52892472157959E+00
(PID.TID 0000.0001)  ploadbar=  1.01099278104146E+05
 cg2d: Sum(rhs),rhsMax =  -9.82987561547949E+01  1.55283335516230E+00
(PID.TID 0000.0001)  ploadbar=  1.01099541303961E+05
 cg2d: Sum(rhs),rhsMax =  -9.68766602147397E+01  1.57549459609181E+00
(PID.TID 0000.0001)  ploadbar=  1.01100018911369E+05
 cg2d: Sum(rhs),rhsMax =  -9.56489692424350E+01  1.59558013356286E+00
(PID.TID 0000.0001)  ploadbar=  1.01100496518776E+05
 cg2d: Sum(rhs),rhsMax =  -9.46380872825679E+01  1.61248286250852E+00
(PID.TID 0000.0001)  ploadbar=  1.01100974126184E+05
 cg2d: Sum(rhs),rhsMax =  -9.38161748380922E+01  1.62646365358091E+00
(PID.TID 0000.0001)  ploadbar=  1.01101451733591E+05
 cg2d: Sum(rhs),rhsMax =  -9.31712868140586E+01  1.63756546205821E+00
(PID.TID 0000.0001)  ploadbar=  1.01101929340998E+05
 cg2d: Sum(rhs),rhsMax =  -9.26923750574504E+01  1.64585374946177E+00
(PID.TID 0000.0001)  ploadbar=  1.01102406948406E+05
 cg2d: Sum(rhs),rhsMax =  -9.26247556349360E+01  1.64687472293591E+00
(PID.TID 0000.0001)  ploadbar=  1.01103175578019E+05
 cg2d: Sum(rhs),rhsMax =  -9.26734375606744E+01  1.64581596283921E+00
(PID.TID 0000.0001)  ploadbar=  1.01103944207633E+05
 cg2d: Sum(rhs),rhsMax =  -9.28077096020715E+01  1.64322592554709E+00
(PID.TID 0000.0001)  ploadbar=  1.01104712837247E+05
 cg2d: Sum(rhs),rhsMax =  -9.30233752376018E+01  1.63918949265880E+00
(PID.TID 0000.0001)  ploadbar=  1.01105481466860E+05
 cg2d: Sum(rhs),rhsMax =  -9.33010811943509E+01  1.63406406984374E+00
(PID.TID 0000.0001)  ploadbar=  1.01106250096474E+05
 cg2d: Sum(rhs),rhsMax =  -9.36178620766010E+01  1.62826665100818E+00
(PID.TID 0000.0001)  ploadbar=  1.01107018726088E+05
 cg2d: Sum(rhs),rhsMax =  -9.39338971000581E+01  1.62252190558830E+00
(PID.TID 0000.0001)  ploadbar=  1.01107965561296E+05
 cg2d: Sum(rhs),rhsMax =  -9.42562719243900E+01  1.61670395822097E+00
(PID.TID 0000.0001)  ploadbar=  1.01108912396504E+05
 cg2d: Sum(rhs),rhsMax =  -9.45304575228414E+01  1.61174008334098E+00
(PID.TID 0000.0001)  ploadbar=  1.01109859231712E+05
 cg2d: Sum(rhs),rhsMax =  -9.47731012308218E+01  1.60732863910150E+00
(PID.TID 0000.0001)  ploadbar=  1.01110806066920E+05
 cg2d: Sum(rhs),rhsMax =  -9.49936430854146E+01  1.60329620454607E+00
(PID.TID 0000.0001)  ploadbar=  1.01111752902128E+05
 cg2d: Sum(rhs),rhsMax =  -9.51822331890959E+01  1.59979837869758E+00
(PID.TID 0000.0001)  ploadbar=  1.01112699737336E+05
 cg2d: Sum(rhs),rhsMax =  -9.53501971834948E+01  1.59673938892930E+00
(PID.TID 0000.0001)  ploadbar=  1.01113436719646E+05
 cg2d: Sum(rhs),rhsMax =  -9.54973576296880E+01  1.59411172166459E+00
(PID.TID 0000.0001)  ploadbar=  1.01114173701956E+05
 cg2d: Sum(rhs),rhsMax =  -9.56114797449584E+01  1.59210945904580E+00
(PID.TID 0000.0001)  ploadbar=  1.01114910684265E+05
 cg2d: Sum(rhs),rhsMax =  -9.56754476270276E+01  1.59100401815506E+00
(PID.TID 0000.0001)  ploadbar=  1.01115647666575E+05
 cg2d: Sum(rhs),rhsMax =  -9.57060599182770E+01  1.59050605628527E+00
(PID.TID 0000.0001)  ploadbar=  1.01116384648885E+05
 cg2d: Sum(rhs),rhsMax =  -9.60939595060986E+01  1.58414096688995E+00
(PID.TID 0000.0001)  ploadbar=  1.01117121631194E+05
 cg2d: Sum(rhs),rhsMax =  -9.62767260958210E+01  1.58120123518012E+00
(PID.TID 0000.0001)  ploadbar=  1.01117122963279E+05
 cg2d: Sum(rhs),rhsMax =  -9.63739659708052E+01  1.57968337087395E+00
(PID.TID 0000.0001)  ploadbar=  1.01117124295363E+05
 cg2d: Sum(rhs),rhsMax =  -9.63476169010525E+01  1.58019826558265E+00
(PID.TID 0000.0001)  ploadbar=  1.01117125627448E+05
 cg2d: Sum(rhs),rhsMax =  -9.61868391687500E+01  1.58292543842722E+00
(PID.TID 0000.0001)  ploadbar=  1.01117126959532E+05
 cg2d: Sum(rhs),rhsMax =  -9.59027847776049E+01  1.58769574675286E+00
(PID.TID 0000.0001)  ploadbar=  1.01117128291616E+05
 cg2d: Sum(rhs),rhsMax =  -9.55987891553211E+01  1.59281608550463E+00
(PID.TID 0000.0001)  ploadbar=  1.01117129623701E+05
 cg2d: Sum(rhs),rhsMax =  -9.53919073236948E+01  1.59635897516625E+00
(PID.TID 0000.0001)  ploadbar=  1.01116641950636E+05
 cg2d: Sum(rhs),rhsMax =  -9.52595504604400E+01  1.59867688523661E+00
(PID.TID 0000.0001)  ploadbar=  1.01116154277571E+05
 cg2d: Sum(rhs),rhsMax =  -9.51810686134947E+01  1.60010427027419E+00
(PID.TID 0000.0001)  ploadbar=  1.01115666604507E+05
 cg2d: Sum(rhs),rhsMax =  -9.51756932753437E+01  1.60030892090358E+00
(PID.TID 0000.0001)  ploadbar=  1.01115178931442E+05
 cg2d: Sum(rhs),rhsMax =  -9.52495890568820E+01  1.59918327129672E+00
(PID.TID 0000.0001)  ploadbar=  1.01114691258377E+05
 cg2d: Sum(rhs),rhsMax =  -9.54082848934042E+01  1.59663390388179E+00
(PID.TID 0000.0001)  ploadbar=  1.01114203585312E+05
 cg2d: Sum(rhs),rhsMax =  -9.56484024706264E+01  1.59272016947277E+00
(PID.TID 0000.0001)  ploadbar=  1.01114232531144E+05
 cg2d: Sum(rhs),rhsMax =  -9.59352017686889E+01  1.58803458565339E+00
(PID.TID 0000.0001)  ploadbar=  1.01114261476976E+05
 cg2d: Sum(rhs),rhsMax =  -9.62641077049009E+01  1.58266226432114E+00
(PID.TID 0000.0001)  ploadbar=  1.01114290422808E+05
 cg2d: Sum(rhs),rhsMax =  -9.66618886211668E+01  1.57617623984661E+00
(PID.TID 0000.0001)  ploadbar=  1.01114319368640E+05
 cg2d: Sum(rhs),rhsMax =  -9.71261233326186E+01  1.56864036470753E+00
(PID.TID 0000.0001)  ploadbar=  1.01114348314472E+05
 cg2d: Sum(rhs),rhsMax =  -9.76323167849401E+01  1.56047008305266E+00
(PID.TID 0000.0001)  ploadbar=  1.01114377260304E+05
 cg2d: Sum(rhs),rhsMax =  -9.81603208546678E+01  1.55205720932394E+00
(PID.TID 0000.0001)  ploadbar=  1.01113985553738E+05
 cg2d: Sum(rhs),rhsMax =  -9.86937350631021E+01  1.54365971804206E+00
(PID.TID 0000.0001)  ploadbar=  1.01113593847171E+05
 cg2d: Sum(rhs),rhsMax =  -9.92020071219506E+01  1.53574734695018E+00
(PID.TID 0000.0001)  ploadbar=  1.01113202140605E+05
 cg2d: Sum(rhs),rhsMax =  -9.96743695840710E+01  1.52846508981180E+00
(PID.TID 0000.0001)  ploadbar=  1.01112810434038E+05
 cg2d: Sum(rhs),rhsMax =  -1.00107898653528E+02  1.52183583119239E+00
(PID.TID 0000.0001)  ploadbar=  1.01112418727472E+05
 cg2d: Sum(rhs),rhsMax =  -1.00498331669373E+02  1.51590603213960E+00
(PID.TID 0000.0001)  ploadbar=  1.01112027020905E+05
 cg2d: Sum(rhs),rhsMax =  -1.00841852130120E+02  1.51073342380063E+00
(PID.TID 0000.0001)  ploadbar=  1.01111889678910E+05
 cg2d: Sum(rhs),rhsMax =  -1.01185433847971E+02  1.50559956046217E+00
(PID.TID 0000.0001)  ploadbar=  1.01111752336914E+05
 cg2d: Sum(rhs),rhsMax =  -1.01565477238682E+02  1.49996021302275E+00
(PID.TID 0000.0001)  ploadbar=  1.01111614994918E+05
 cg2d: Sum(rhs),rhsMax =  -1.01999199569405E+02  1.49356895368922E+00
(PID.TID 0000.0001)  ploadbar=  1.01111477652923E+05
 cg2d: Sum(rhs),rhsMax =  -1.02531869300777E+02  1.48578474836315E+00
(PID.TID 0000.0001)  ploadbar=  1.01111340310927E+05
 cg2d: Sum(rhs),rhsMax =  -1.03133793352702E+02  1.47707112912243E+00
(PID.TID 0000.0001)  ploadbar=  1.01111202968931E+05
 cg2d: Sum(rhs),rhsMax =  -1.03787806840018E+02  1.46773316871246E+00
(PID.TID 0000.0001)  ploadbar=  1.01111482667599E+05
 cg2d: Sum(rhs),rhsMax =  -1.04452512064119E+02  1.45837208177834E+00
(PID.TID 0000.0001)  ploadbar=  1.01111762366267E+05
 cg2d: Sum(rhs),rhsMax =  -1.05110385025688E+02  1.44923100429401E+00
(PID.TID 0000.0001)  ploadbar=  1.01112042064935E+05
 cg2d: Sum(rhs),rhsMax =  -1.05728032283363E+02  1.44075410734887E+00
(PID.TID 0000.0001)  ploadbar=  1.01112321763603E+05
 cg2d: Sum(rhs),rhsMax =  -1.06284033188141E+02  1.43320129608761E+00
(PID.TID 0000.0001)  ploadbar=  1.01112601462271E+05
 cg2d: Sum(rhs),rhsMax =  -1.06774313554953E+02  1.42659378032774E+00
(PID.TID 0000.0001)  ploadbar=  1.01112881160939E+05
 cg2d: Sum(rhs),rhsMax =  -1.07165746653970E+02  1.42134647354569E+00
(PID.TID 0000.0001)  ploadbar=  1.01112951091744E+05
 cg2d: Sum(rhs),rhsMax =  -1.07521429830239E+02  1.41659425689017E+00
(PID.TID 0000.0001)  ploadbar=  1.01113021022550E+05
 cg2d: Sum(rhs),rhsMax =  -1.07864361185066E+02  1.41202054426056E+00
(PID.TID 0000.0001)  ploadbar=  1.01113090953355E+05
 cg2d: Sum(rhs),rhsMax =  -1.08201023471511E+02  1.40753311865004E+00
(PID.TID 0000.0001)  ploadbar=  1.01113160884161E+05
 cg2d: Sum(rhs),rhsMax =  -1.08537278176498E+02  1.40305212845074E+00
(PID.TID 0000.0001)  ploadbar=  1.01113230814966E+05
 cg2d: Sum(rhs),rhsMax =  -1.08878640869456E+02  1.39850350566239E+00
(PID.TID 0000.0001)  ploadbar=  1.01113300745772E+05
 cg2d: Sum(rhs),rhsMax =  -1.09209269182903E+02  1.39414135252389E+00
(PID.TID 0000.0001)  ploadbar=  1.01113844686936E+05
 cg2d: Sum(rhs),rhsMax =  -1.09518259601014E+02  1.39009473553676E+00
(PID.TID 0000.0001)  ploadbar=  1.01114388628100E+05
 cg2d: Sum(rhs),rhsMax =  -1.09807518963892E+02  1.38632915658813E+00
(PID.TID 0000.0001)  ploadbar=  1.01114932569264E+05
 cg2d: Sum(rhs),rhsMax =  -1.10052669415500E+02  1.38314294162587E+00
(PID.TID 0000.0001)  ploadbar=  1.01115476510427E+05
 cg2d: Sum(rhs),rhsMax =  -1.09425246094079E+02  1.39097707809701E+00
(PID.TID 0000.0001)  ploadbar=  1.01116020451591E+05
 cg2d: Sum(rhs),rhsMax =  -1.08876456325739E+02  1.39789031074728E+00
(PID.TID 0000.0001)  ploadbar=  1.01116564392755E+05
 cg2d: Sum(rhs),rhsMax =  -1.08513828710483E+02  1.40247568361091E+00
(PID.TID 0000.0001)  ploadbar=  1.01116804288715E+05
 cg2d: Sum(rhs),rhsMax =  -1.08248460104669E+02  1.40583449590594E+00
(PID.TID 0000.0001)  ploadbar=  1.01117044184675E+05
 cg2d: Sum(rhs),rhsMax =  -1.08039292918012E+02  1.40847787014245E+00
(PID.TID 0000.0001)  ploadbar=  1.01117284080635E+05
 cg2d: Sum(rhs),rhsMax =  -1.07817375086827E+02  1.41129286868061E+00
(PID.TID 0000.0001)  ploadbar=  1.01117523976594E+05
 cg2d: Sum(rhs),rhsMax =  -1.07502179073533E+02  1.41533683848066E+00
(PID.TID 0000.0001)  ploadbar=  1.01117763872554E+05
 cg2d: Sum(rhs),rhsMax =  -1.07015932745664E+02  1.42165950306639E+00
(PID.TID 0000.0001)  ploadbar=  1.01118003768514E+05
 cg2d: Sum(rhs),rhsMax =  -1.06371850823122E+02  1.43015793585951E+00
(PID.TID 0000.0001)  ploadbar=  1.01118866881881E+05
 cg2d: Sum(rhs),rhsMax =  -1.05604667766495E+02  1.44043068661887E+00
(PID.TID 0000.0001)  ploadbar=  1.01119729995247E+05
 cg2d: Sum(rhs),rhsMax =  -1.04773013912375E+02  1.45173289887101E+00
(PID.TID 0000.0001)  ploadbar=  1.01120593108614E+05
 cg2d: Sum(rhs),rhsMax =  -1.03950253189166E+02  1.46306839135931E+00
(PID.TID 0000.0001)  ploadbar=  1.01121456221980E+05
 cg2d: Sum(rhs),rhsMax =  -1.03214036991476E+02  1.47331827506236E+00
(PID.TID 0000.0001)  ploadbar=  1.01122319335347E+05
 cg2d: Sum(rhs),rhsMax =  -1.02621099544663E+02  1.48160842969580E+00
(PID.TID 0000.0001)  ploadbar=  1.01123182448713E+05
 cg2d: Sum(rhs),rhsMax =  -1.02236126247684E+02  1.48693587736806E+00
(PID.TID 0000.0001)  ploadbar=  1.01123688246129E+05
 cg2d: Sum(rhs),rhsMax =  -1.02009609910640E+02  1.48995570037591E+00
(PID.TID 0000.0001)  ploadbar=  1.01124194043545E+05
 cg2d: Sum(rhs),rhsMax =  -1.01877201391774E+02  1.49157634754111E+00
(PID.TID 0000.0001)  ploadbar=  1.01124699840961E+05
 cg2d: Sum(rhs),rhsMax =  -1.01770466452172E+02  1.49278518689837E+00
(PID.TID 0000.0001)  ploadbar=  1.01125205638377E+05
 cg2d: Sum(rhs),rhsMax =  -1.01623351368973E+02  1.49454672132869E+00
(PID.TID 0000.0001)  ploadbar=  1.01125711435793E+05
 cg2d: Sum(rhs),rhsMax =  -1.01392183106079E+02  1.49750715080662E+00
(PID.TID 0000.0001)  ploadbar=  1.01126217233209E+05
 cg2d: Sum(rhs),rhsMax =  -1.01070101023500E+02  1.50187483490715E+00
(PID.TID 0000.0001)  ploadbar=  1.01126736120477E+05
 cg2d: Sum(rhs),rhsMax =  -1.00657491484218E+02  1.50766571689621E+00
(PID.TID 0000.0001)  ploadbar=  1.01127255007745E+05
 cg2d: Sum(rhs),rhsMax =  -1.00170702747536E+02  1.51465992784383E+00
(PID.TID 0000.0001)  ploadbar=  1.01127773895013E+05
 cg2d: Sum(rhs),rhsMax =  -9.96452962790279E+01  1.52234162398094E+00
(PID.TID 0000.0001)  ploadbar=  1.01128292782282E+05
 cg2d: Sum(rhs),rhsMax =  -9.91205176215818E+01  1.53012031530145E+00
(PID.TID 0000.0001)  ploadbar=  1.01128811669550E+05
 cg2d: Sum(rhs),rhsMax =  -9.86265451673683E+01  1.53752203328898E+00
(PID.TID 0000.0001)  ploadbar=  1.01129330556818E+05
 cg2d: Sum(rhs),rhsMax =  -9.81093492918195E+01  1.54537979064485E+00
(PID.TID 0000.0001)  ploadbar=  1.01127643803819E+05
 cg2d: Sum(rhs),rhsMax =  -9.76077456082659E+01  1.55308377093640E+00
(PID.TID 0000.0001)  ploadbar=  1.01125957050819E+05
 cg2d: Sum(rhs),rhsMax =  -9.71386731768330E+01  1.56034949499821E+00
(PID.TID 0000.0001)  ploadbar=  1.01124270297820E+05
 cg2d: Sum(rhs),rhsMax =  -9.66833708132085E+01  1.56745919497198E+00
(PID.TID 0000.0001)  ploadbar=  1.01122583544820E+05
 cg2d: Sum(rhs),rhsMax =  -9.62302845353310E+01  1.57459221767841E+00
(PID.TID 0000.0001)  ploadbar=  1.01120896791821E+05
 cg2d: Sum(rhs),rhsMax =  -9.57432179368847E+01  1.58234210672315E+00
(PID.TID 0000.0001)  ploadbar=  1.01119210038821E+05
 cg2d: Sum(rhs),rhsMax =  -9.53753837072895E+01  1.58821073185870E+00
(PID.TID 0000.0001)  ploadbar=  1.01117820385160E+05
 cg2d: Sum(rhs),rhsMax =  -9.50857462134465E+01  1.59283395766630E+00
(PID.TID 0000.0001)  ploadbar=  1.01116430731498E+05
 cg2d: Sum(rhs),rhsMax =  -9.49074048097690E+01  1.59562688912046E+00
(PID.TID 0000.0001)  ploadbar=  1.01115041077836E+05
 cg2d: Sum(rhs),rhsMax =  -9.48510963272464E+01  1.59638211124045E+00
(PID.TID 0000.0001)  ploadbar=  1.01113651424175E+05
 cg2d: Sum(rhs),rhsMax =  -9.49338915255684E+01  1.59480286642942E+00
(PID.TID 0000.0001)  ploadbar=  1.01112261770513E+05
 cg2d: Sum(rhs),rhsMax =  -9.51691458884099E+01  1.59067312459866E+00
(PID.TID 0000.0001)  ploadbar=  1.01110872116852E+05
 cg2d: Sum(rhs),rhsMax =  -9.57175529356898E+01  1.58135724387506E+00
(PID.TID 0000.0001)  ploadbar=  1.01110421094752E+05
 cg2d: Sum(rhs),rhsMax =  -9.65227832627557E+01  1.56794489946355E+00
(PID.TID 0000.0001)  ploadbar=  1.01109970072652E+05
 cg2d: Sum(rhs),rhsMax =  -9.75357936650897E+01  1.55141959696409E+00
(PID.TID 0000.0001)  ploadbar=  1.01109519050552E+05
 cg2d: Sum(rhs),rhsMax =  -9.86783905581281E+01  1.53318961713295E+00
(PID.TID 0000.0001)  ploadbar=  1.01109068028453E+05
 cg2d: Sum(rhs),rhsMax =  -9.98759098185959E+01  1.51450860115620E+00
(PID.TID 0000.0001)  ploadbar=  1.01108617006353E+05
 cg2d: Sum(rhs),rhsMax =  -1.01066776606953E+02  1.49632889963108E+00
(PID.TID 0000.0001)  ploadbar=  1.01108165984253E+05
 cg2d: Sum(rhs),rhsMax =  -1.02224001989224E+02  1.47911245197180E+00
(PID.TID 0000.0001)  ploadbar=  1.01109369959376E+05
 cg2d: Sum(rhs),rhsMax =  -1.03148939975675E+02  1.46562518668629E+00
(PID.TID 0000.0001)  ploadbar=  1.01110573934499E+05
 cg2d: Sum(rhs),rhsMax =  -1.03969258966334E+02  1.45388565675370E+00
(PID.TID 0000.0001)  ploadbar=  1.01111777909621E+05
 cg2d: Sum(rhs),rhsMax =  -1.04830345678335E+02  1.44181138748395E+00
(PID.TID 0000.0001)  ploadbar=  1.01112981884744E+05
 cg2d: Sum(rhs),rhsMax =  -1.05744408660519E+02  1.42925759240867E+00
(PID.TID 0000.0001)  ploadbar=  1.01114185859867E+05
 cg2d: Sum(rhs),rhsMax =  -1.06817580711408E+02  1.41484571586274E+00
(PID.TID 0000.0001)  ploadbar=  1.01115389834990E+05
 cg2d: Sum(rhs),rhsMax =  -1.08087406133893E+02  1.39817621909833E+00
(PID.TID 0000.0001)  ploadbar=  1.01116607071682E+05
 cg2d: Sum(rhs),rhsMax =  -1.09712473353721E+02  1.37741907002050E+00
(PID.TID 0000.0001)  ploadbar=  1.01117824308375E+05
 cg2d: Sum(rhs),rhsMax =  -1.11716023551216E+02  1.35266193043972E+00
(PID.TID 0000.0001)  ploadbar=  1.01119041545067E+05
 cg2d: Sum(rhs),rhsMax =  -1.14074568006500E+02  1.32462836859114E+00
(PID.TID 0000.0001)  ploadbar=  1.01120258781760E+05
 cg2d: Sum(rhs),rhsMax =  -1.16740830808774E+02  1.29428913522932E+00
(PID.TID 0000.0001)  ploadbar=  1.01121476018453E+05
 cg2d: Sum(rhs),rhsMax =  -1.19585497191762E+02  1.26338952320491E+00
(PID.TID 0000.0001)  ploadbar=  1.01122693255145E+05
 cg2d: Sum(rhs),rhsMax =  -1.22456181481736E+02  1.23366953250955E+00
(PID.TID 0000.0001)  ploadbar=  1.01124205023710E+05
 cg2d: Sum(rhs),rhsMax =  -1.25241275970638E+02  1.20613880244791E+00
(PID.TID 0000.0001)  ploadbar=  1.01125716792276E+05
 cg2d: Sum(rhs),rhsMax =  -1.25566601980346E+02  1.20291648450856E+00
(PID.TID 0000.0001)  ploadbar=  1.01127228560841E+05
 cg2d: Sum(rhs),rhsMax =  -1.25877438559062E+02  1.19984117486777E+00
(PID.TID 0000.0001)  ploadbar=  1.01128740329406E+05
 cg2d: Sum(rhs),rhsMax =  -1.26157876735279E+02  1.19705674539871E+00
(PID.TID 0000.0001)  ploadbar=  1.01130252097971E+05
 cg2d: Sum(rhs),rhsMax =  -1.26398097513796E+02  1.19464571180914E+00
(PID.TID 0000.0001)  ploadbar=  1.01131763866536E+05
 cg2d: Sum(rhs),rhsMax =  -1.26523712557107E+02  1.19330640670060E+00
(PID.TID 0000.0001)  ploadbar=  1.01132431349178E+05
 cg2d: Sum(rhs),rhsMax =  -1.26592423591213E+02  1.19248707787282E+00
(PID.TID 0000.0001)  ploadbar=  1.01133098831820E+05
 cg2d: Sum(rhs),rhsMax =  -1.26628881924352E+02  1.19195143154378E+00
(PID.TID 0000.0001)  ploadbar=  1.01133766314462E+05
 cg2d: Sum(rhs),rhsMax =  -1.26616203697800E+02  1.19185691147684E+00
(PID.TID 0000.0001)  ploadbar=  1.01134433797104E+05
 cg2d: Sum(rhs),rhsMax =  -1.26553106498858E+02  1.19221437356347E+00
(PID.TID 0000.0001)  ploadbar=  1.01135101279746E+05
 cg2d: Sum(rhs),rhsMax =  -1.26443329634268E+02  1.19298559897266E+00
(PID.TID 0000.0001)  ploadbar=  1.01135768762388E+05
 cg2d: Sum(rhs),rhsMax =  -1.26252288053523E+02  1.19456218497302E+00
(PID.TID 0000.0001)  ploadbar=  1.01135309461310E+05
 cg2d: Sum(rhs),rhsMax =  -1.26039661389849E+02  1.19638275019936E+00
(PID.TID 0000.0001)  ploadbar=  1.01134850160231E+05
 cg2d: Sum(rhs),rhsMax =  -1.25832987694247E+02  1.19818489587822E+00
(PID.TID 0000.0001)  ploadbar=  1.01134390859152E+05
 cg2d: Sum(rhs),rhsMax =  -1.25631107496386E+02  1.19997480840599E+00
(PID.TID 0000.0001)  ploadbar=  1.01133931558074E+05
 cg2d: Sum(rhs),rhsMax =  -1.25456570831889E+02  1.20153284140927E+00
(PID.TID 0000.0001)  ploadbar=  1.01133472256995E+05
 cg2d: Sum(rhs),rhsMax =  -1.25326370601036E+02  1.20269060819262E+00
(PID.TID 0000.0001)  ploadbar=  1.01133012955917E+05
 cg2d: Sum(rhs),rhsMax =  -1.25174250035521E+02  1.20405364055095E+00
(PID.TID 0000.0001)  ploadbar=  1.01131937957440E+05
 cg2d: Sum(rhs),rhsMax =  -1.25027514483696E+02  1.20535559908002E+00
(PID.TID 0000.0001)  ploadbar=  1.01130862958963E+05
 cg2d: Sum(rhs),rhsMax =  -1.24885247120507E+02  1.20660138852783E+00
(PID.TID 0000.0001)  ploadbar=  1.01129787960486E+05
 cg2d: Sum(rhs),rhsMax =  -1.24743179926106E+02  1.20782801651311E+00
(PID.TID 0000.0001)  ploadbar=  1.01128712962009E+05
 cg2d: Sum(rhs),rhsMax =  -1.24594947355538E+02  1.20909329417589E+00
(PID.TID 0000.0001)  ploadbar=  1.01127637963532E+05
 cg2d: Sum(rhs),rhsMax =  -1.24438005082154E+02  1.21041851359048E+00
(PID.TID 0000.0001)  ploadbar=  1.01126562965055E+05
 cg2d: Sum(rhs),rhsMax =  -1.24322138744646E+02  1.21138305618070E+00
(PID.TID 0000.0001)  ploadbar=  1.01124650919129E+05
 cg2d: Sum(rhs),rhsMax =  -1.24179931316538E+02  1.21263882928836E+00
(PID.TID 0000.0001)  ploadbar=  1.01122738873203E+05
 cg2d: Sum(rhs),rhsMax =  -1.24023253978321E+02  1.21406471231462E+00
(PID.TID 0000.0001)  ploadbar=  1.01120826827276E+05
 cg2d: Sum(rhs),rhsMax =  -1.23884552751442E+02  1.21533420611126E+00
(PID.TID 0000.0001)  ploadbar=  1.01118914781350E+05
 cg2d: Sum(rhs),rhsMax =  -1.23768100736081E+02  1.21639614585552E+00
(PID.TID 0000.0001)  ploadbar=  1.01117002735424E+05
 cg2d: Sum(rhs),rhsMax =  -1.23680476972784E+02  1.21717461894409E+00
(PID.TID 0000.0001)  ploadbar=  1.01115090689497E+05
 cg2d: Sum(rhs),rhsMax =  -1.23603072286151E+02  1.21783709298806E+00
(PID.TID 0000.0001)  ploadbar=  1.01113674013446E+05
 cg2d: Sum(rhs),rhsMax =  -1.23529390707662E+02  1.21844207123044E+00
(PID.TID 0000.0001)  ploadbar=  1.01112257337395E+05
 cg2d: Sum(rhs),rhsMax =  -1.23461555071778E+02  1.21896391787292E+00
(PID.TID 0000.0001)  ploadbar=  1.01110840661343E+05
 cg2d: Sum(rhs),rhsMax =  -1.23406210005960E+02  1.21933388627678E+00
(PID.TID 0000.0001)  ploadbar=  1.01109423985292E+05
 cg2d: Sum(rhs),rhsMax =  -1.23357084585815E+02  1.21960936641821E+00
(PID.TID 0000.0001)  ploadbar=  1.01108007309241E+05
 cg2d: Sum(rhs),rhsMax =  -1.23311177907790E+02  1.21981462706968E+00
(PID.TID 0000.0001)  ploadbar=  1.01106590633189E+05
 cg2d: Sum(rhs),rhsMax =  -1.23276479870886E+02  1.21994565113704E+00
(PID.TID 0000.0001)  ploadbar=  1.01106153493470E+05
 cg2d: Sum(rhs),rhsMax =  -1.23231086336849E+02  1.22021447026485E+00
(PID.TID 0000.0001)  ploadbar=  1.01105716353751E+05
 cg2d: Sum(rhs),rhsMax =  -1.23168087370960E+02  1.22068358063027E+00
(PID.TID 0000.0001)  ploadbar=  1.01105279214032E+05
 cg2d: Sum(rhs),rhsMax =  -1.23103142023099E+02  1.22119255231194E+00
(PID.TID 0000.0001)  ploadbar=  1.01104842074312E+05
 cg2d: Sum(rhs),rhsMax =  -1.23045826456598E+02  1.22164032490405E+00
(PID.TID 0000.0001)  ploadbar=  1.01104404934593E+05
 cg2d: Sum(rhs),rhsMax =  -1.22999624430890E+02  1.22198372696691E+00
(PID.TID 0000.0001)  ploadbar=  1.01103967794874E+05
 cg2d: Sum(rhs),rhsMax =  -1.23120006868157E+02  1.22065942789619E+00
(PID.TID 0000.0001)  ploadbar=  1.01103561342816E+05
 cg2d: Sum(rhs),rhsMax =  -1.23295476428949E+02  1.21877328552233E+00
(PID.TID 0000.0001)  ploadbar=  1.01103154890759E+05
 cg2d: Sum(rhs),rhsMax =  -1.23486732948013E+02  1.21670957754468E+00
(PID.TID 0000.0001)  ploadbar=  1.01102748438702E+05
 cg2d: Sum(rhs),rhsMax =  -1.23711045035255E+02  1.21429550793060E+00
(PID.TID 0000.0001)  ploadbar=  1.01102341986644E+05
 cg2d: Sum(rhs),rhsMax =  -1.23982986885179E+02  1.21138665442229E+00
(PID.TID 0000.0001)  ploadbar=  1.01101935534587E+05
 cg2d: Sum(rhs),rhsMax =  -1.24302500935258E+02  1.20798441827187E+00
(PID.TID 0000.0001)  ploadbar=  1.01101529082529E+05
 cg2d: Sum(rhs),rhsMax =  -1.24633808834441E+02  1.20451713040498E+00
(PID.TID 0000.0001)  ploadbar=  1.01101083824302E+05
 cg2d: Sum(rhs),rhsMax =  -1.25068878012186E+02  1.20009849907939E+00
(PID.TID 0000.0001)  ploadbar=  1.01100638566074E+05
 cg2d: Sum(rhs),rhsMax =  -1.25541646125417E+02  1.19537384351759E+00
(PID.TID 0000.0001)  ploadbar=  1.01100193307846E+05
 cg2d: Sum(rhs),rhsMax =  -1.26024932420250E+02  1.19060310375791E+00
(PID.TID 0000.0001)  ploadbar=  1.01099748049618E+05
 cg2d: Sum(rhs),rhsMax =  -1.26520063807131E+02  1.18576916899474E+00
(PID.TID 0000.0001)  ploadbar=  1.01099302791391E+05
 cg2d: Sum(rhs),rhsMax =  -1.27031796703008E+02  1.18082232723054E+00
(PID.TID 0000.0001)  ploadbar=  1.01098857533163E+05
 cg2d: Sum(rhs),rhsMax =  -1.27529020044484E+02  1.17604628384552E+00
(PID.TID 0000.0001)  ploadbar=  1.01099175154004E+05
 cg2d: Sum(rhs),rhsMax =  -1.28021318098774E+02  1.17134593150998E+00
(PID.TID 0000.0001)  ploadbar=  1.01099492774846E+05
 cg2d: Sum(rhs),rhsMax =  -1.28486215579425E+02  1.16692072285484E+00
(PID.TID 0000.0001)  ploadbar=  1.01099810395688E+05
 cg2d: Sum(rhs),rhsMax =  -1.28909455067182E+02  1.16288782121865E+00
(PID.TID 0000.0001)  ploadbar=  1.01100128016529E+05
 cg2d: Sum(rhs),rhsMax =  -1.29283875962319E+02  1.15929787344900E+00
(PID.TID 0000.0001)  ploadbar=  1.01100445637371E+05
 cg2d: Sum(rhs),rhsMax =  -1.29610602274049E+02  1.15612751897813E+00
(PID.TID 0000.0001)  ploadbar=  1.01100763258212E+05
 cg2d: Sum(rhs),rhsMax =  -1.29875969678536E+02  1.15356572748276E+00
(PID.TID 0000.0001)  ploadbar=  1.01102158389042E+05
 cg2d: Sum(rhs),rhsMax =  -1.30161932039465E+02  1.15087878889488E+00
(PID.TID 0000.0001)  ploadbar=  1.01103553519871E+05
 cg2d: Sum(rhs),rhsMax =  -1.30455046310039E+02  1.14818151880912E+00
(PID.TID 0000.0001)  ploadbar=  1.01104948650700E+05
 cg2d: Sum(rhs),rhsMax =  -1.30723283992469E+02  1.14574883266295E+00
(PID.TID 0000.0001)  ploadbar=  1.01106343781530E+05
 cg2d: Sum(rhs),rhsMax =  -1.30946505763470E+02  1.14374679134102E+00
(PID.TID 0000.0001)  ploadbar=  1.01107738912359E+05
 cg2d: Sum(rhs),rhsMax =  -1.31118608769264E+02  1.14221643062399E+00
(PID.TID 0000.0001)  ploadbar=  1.01109134043189E+05
 cg2d: Sum(rhs),rhsMax =  -1.31125507744050E+02  1.14211264373167E+00
(PID.TID 0000.0001)  ploadbar=  1.01108833556792E+05
 cg2d: Sum(rhs),rhsMax =  -1.31075148995904E+02  1.14249032171581E+00
(PID.TID 0000.0001)  ploadbar=  1.01108533070395E+05
 cg2d: Sum(rhs),rhsMax =  -1.31003365444161E+02  1.14303439897846E+00
(PID.TID 0000.0001)  ploadbar=  1.01108232583999E+05
 cg2d: Sum(rhs),rhsMax =  -1.30903132538227E+02  1.14380337381189E+00
(PID.TID 0000.0001)  ploadbar=  1.01107932097602E+05
 cg2d: Sum(rhs),rhsMax =  -1.30770076299394E+02  1.14483415269283E+00
(PID.TID 0000.0001)  ploadbar=  1.01107631611206E+05
 cg2d: Sum(rhs),rhsMax =  -1.30612190184328E+02  1.14605484663033E+00
(PID.TID 0000.0001)  ploadbar=  1.01107331124809E+05
 cg2d: Sum(rhs),rhsMax =  -1.30398692928079E+02  1.14778741541375E+00
(PID.TID 0000.0001)  ploadbar=  1.01107696287066E+05
 cg2d: Sum(rhs),rhsMax =  -1.30172977300009E+02  1.14964982717826E+00
(PID.TID 0000.0001)  ploadbar=  1.01108061449323E+05
 cg2d: Sum(rhs),rhsMax =  -1.30015555605668E+02  1.15092731778176E+00
(PID.TID 0000.0001)  ploadbar=  1.01108426611580E+05
 cg2d: Sum(rhs),rhsMax =  -1.29930331842255E+02  1.15157690681305E+00
(PID.TID 0000.0001)  ploadbar=  1.01108791773837E+05
 cg2d: Sum(rhs),rhsMax =  -1.29914329992189E+02  1.15161942775475E+00
(PID.TID 0000.0001)  ploadbar=  1.01109156936094E+05
 cg2d: Sum(rhs),rhsMax =  -1.29968052887887E+02  1.15104286528958E+00
(PID.TID 0000.0001)  ploadbar=  1.01109522098351E+05
 cg2d: Sum(rhs),rhsMax =  -1.30060496348990E+02  1.15011466968961E+00
(PID.TID 0000.0001)  ploadbar=  1.01109040731103E+05
 cg2d: Sum(rhs),rhsMax =  -1.30271066336963E+02  1.14813347593780E+00
(PID.TID 0000.0001)  ploadbar=  1.01108559363854E+05
 cg2d: Sum(rhs),rhsMax =  -1.30568399072180E+02  1.14538150591665E+00
(PID.TID 0000.0001)  ploadbar=  1.01108077996606E+05
 cg2d: Sum(rhs),rhsMax =  -1.30927422580047E+02  1.14208392699548E+00
(PID.TID 0000.0001)  ploadbar=  1.01107596629358E+05
 cg2d: Sum(rhs),rhsMax =  -1.31319851952717E+02  1.13849288527014E+00
(PID.TID 0000.0001)  ploadbar=  1.01107115262109E+05
 cg2d: Sum(rhs),rhsMax =  -1.31706331940859E+02  1.13494852447393E+00
(PID.TID 0000.0001)  ploadbar=  1.01106633894861E+05
 cg2d: Sum(rhs),rhsMax =  -1.32211167766594E+02  1.13046950455321E+00
(PID.TID 0000.0001)  ploadbar=  1.01106274238400E+05
 cg2d: Sum(rhs),rhsMax =  -1.32692344308696E+02  1.12627650007154E+00
(PID.TID 0000.0001)  ploadbar=  1.01105914581939E+05
 cg2d: Sum(rhs),rhsMax =  -1.33100694718669E+02  1.12277288635316E+00
(PID.TID 0000.0001)  ploadbar=  1.01105554925478E+05
 cg2d: Sum(rhs),rhsMax =  -1.33436928587391E+02  1.11993220504845E+00
(PID.TID 0000.0001)  ploadbar=  1.01105195269017E+05
 cg2d: Sum(rhs),rhsMax =  -1.33580251446480E+02  1.11874980598010E+00
(PID.TID 0000.0001)  ploadbar=  1.01104835612556E+05
 cg2d: Sum(rhs),rhsMax =  -1.33454524549301E+02  1.11984904560016E+00
(PID.TID 0000.0001)  ploadbar=  1.01104475956095E+05
 cg2d: Sum(rhs),rhsMax =  -1.32848373709640E+02  1.12499290958708E+00
(PID.TID 0000.0001)  ploadbar=  1.01102482708451E+05
 cg2d: Sum(rhs),rhsMax =  -1.31991943746901E+02  1.13231218193867E+00
(PID.TID 0000.0001)  ploadbar=  1.01100489460806E+05
 cg2d: Sum(rhs),rhsMax =  -1.30919910202334E+02  1.14158388718074E+00
(PID.TID 0000.0001)  ploadbar=  1.01098496213162E+05
 cg2d: Sum(rhs),rhsMax =  -1.29649949357894E+02  1.15274019918049E+00
(PID.TID 0000.0001)  ploadbar=  1.01096502965518E+05
 cg2d: Sum(rhs),rhsMax =  -1.28241114148785E+02  1.16534501886414E+00
(PID.TID 0000.0001)  ploadbar=  1.01094509717873E+05
 cg2d: Sum(rhs),rhsMax =  -1.26745884634337E+02  1.17899408649313E+00
(PID.TID 0000.0001)  ploadbar=  1.01092516470229E+05
 cg2d: Sum(rhs),rhsMax =  -1.25191191374305E+02  1.19356733726335E+00
(PID.TID 0000.0001)  ploadbar=  1.01091106693768E+05
 cg2d: Sum(rhs),rhsMax =  -1.23571666393726E+02  1.20916800708081E+00
(PID.TID 0000.0001)  ploadbar=  1.01089696917306E+05
 cg2d: Sum(rhs),rhsMax =  -1.21970215564483E+02  1.22502372897713E+00
(PID.TID 0000.0001)  ploadbar=  1.01088287140845E+05
 cg2d: Sum(rhs),rhsMax =  -1.20393294851898E+02  1.24106694955813E+00
(PID.TID 0000.0001)  ploadbar=  1.01086877364384E+05
 cg2d: Sum(rhs),rhsMax =  -1.18881767159482E+02  1.25685662610873E+00
(PID.TID 0000.0001)  ploadbar=  1.01085467587922E+05
 cg2d: Sum(rhs),rhsMax =  -1.17413302015798E+02  1.27259035607376E+00
(PID.TID 0000.0001)  ploadbar=  1.01084057811461E+05
 cg2d: Sum(rhs),rhsMax =  -1.16011139358517E+02  1.28797677086310E+00
(PID.TID 0000.0001)  ploadbar=  1.01082924536957E+05
 cg2d: Sum(rhs),rhsMax =  -1.14727648624969E+02  1.30237912955407E+00
(PID.TID 0000.0001)  ploadbar=  1.01081791262453E+05
 cg2d: Sum(rhs),rhsMax =  -1.13555565537779E+02  1.31579772357001E+00
(PID.TID 0000.0001)  ploadbar=  1.01080657987948E+05
 cg2d: Sum(rhs),rhsMax =  -1.12524866832616E+02  1.32780087446028E+00
(PID.TID 0000.0001)  ploadbar=  1.01079524713444E+05
 cg2d: Sum(rhs),rhsMax =  -1.11641383982380E+02  1.33822990699630E+00
(PID.TID 0000.0001)  ploadbar=  1.01078391438940E+05
 cg2d: Sum(rhs),rhsMax =  -1.10892935417680E+02  1.34715067754179E+00
(PID.TID 0000.0001)  ploadbar=  1.01077258164436E+05
 cg2d: Sum(rhs),rhsMax =  -1.10437118141053E+02  1.35266839089757E+00
(PID.TID 0000.0001)  ploadbar=  1.01075495724427E+05
 cg2d: Sum(rhs),rhsMax =  -1.10105190027745E+02  1.35676725875379E+00
(PID.TID 0000.0001)  ploadbar=  1.01073733284418E+05
 cg2d: Sum(rhs),rhsMax =  -1.09819398050703E+02  1.36037961061736E+00
(PID.TID 0000.0001)  ploadbar=  1.01071970844409E+05
 cg2d: Sum(rhs),rhsMax =  -1.09592641479642E+02  1.36333120305512E+00
(PID.TID 0000.0001)  ploadbar=  1.01070208404400E+05
 cg2d: Sum(rhs),rhsMax =  -1.09419564511350E+02  1.36566958342402E+00
(PID.TID 0000.0001)  ploadbar=  1.01068445964391E+05
 cg2d: Sum(rhs),rhsMax =  -1.09281637455294E+02  1.36760485877035E+00
(PID.TID 0000.0001)  ploadbar=  1.01066683524382E+05
 cg2d: Sum(rhs),rhsMax =  -1.09193052968111E+02  1.36889724974514E+00
(PID.TID 0000.0001)  ploadbar=  1.01065930575444E+05
 cg2d: Sum(rhs),rhsMax =  -1.09157726606441E+02  1.36948939040667E+00
(PID.TID 0000.0001)  ploadbar=  1.01065177626506E+05
 cg2d: Sum(rhs),rhsMax =  -1.09116368787184E+02  1.37011864874405E+00
(PID.TID 0000.0001)  ploadbar=  1.01064424677568E+05
 cg2d: Sum(rhs),rhsMax =  -1.09052625826373E+02  1.37098881402413E+00
(PID.TID 0000.0001)  ploadbar=  1.01063671728630E+05
 cg2d: Sum(rhs),rhsMax =  -1.08983561958146E+02  1.37188279515387E+00
(PID.TID 0000.0001)  ploadbar=  1.01062918779692E+05
 cg2d: Sum(rhs),rhsMax =  -1.09021698228981E+02  1.37137629278702E+00
(PID.TID 0000.0001)  ploadbar=  1.01062165830753E+05
 cg2d: Sum(rhs),rhsMax =  -1.09077010604172E+02  1.37067017898858E+00
(PID.TID 0000.0001)  ploadbar=  1.01061402940074E+05
 cg2d: Sum(rhs),rhsMax =  -1.09227534979214E+02  1.36878215090671E+00
(PID.TID 0000.0001)  ploadbar=  1.01060640049395E+05
 cg2d: Sum(rhs),rhsMax =  -1.09434976732788E+02  1.36619469624233E+00
(PID.TID 0000.0001)  ploadbar=  1.01059877158716E+05
 cg2d: Sum(rhs),rhsMax =  -1.09679011079545E+02  1.36315989798354E+00
(PID.TID 0000.0001)  ploadbar=  1.01059114268037E+05
 cg2d: Sum(rhs),rhsMax =  -1.09936817499476E+02  1.35996158918137E+00
(PID.TID 0000.0001)  ploadbar=  1.01058351377358E+05
 cg2d: Sum(rhs),rhsMax =  -1.10194297112900E+02  1.35677279720230E+00
(PID.TID 0000.0001)  ploadbar=  1.01057588486679E+05
 cg2d: Sum(rhs),rhsMax =  -1.10320850825071E+02  1.35520007952815E+00
(PID.TID 0000.0001)  ploadbar=  1.01056598891238E+05
 cg2d: Sum(rhs),rhsMax =  -1.10421513179693E+02  1.35393790689223E+00
(PID.TID 0000.0001)  ploadbar=  1.01055609295797E+05
 cg2d: Sum(rhs),rhsMax =  -1.10504104748791E+02  1.35288488891326E+00
(PID.TID 0000.0001)  ploadbar=  1.01054619700355E+05
 cg2d: Sum(rhs),rhsMax =  -1.10578766610165E+02  1.35191030192396E+00
(PID.TID 0000.0001)  ploadbar=  1.01053630104914E+05
 cg2d: Sum(rhs),rhsMax =  -1.10628007796612E+02  1.35122166117022E+00
(PID.TID 0000.0001)  ploadbar=  1.01052640509473E+05
 cg2d: Sum(rhs),rhsMax =  -1.10659174347047E+02  1.35072662658851E+00
(PID.TID 0000.0001)  ploadbar=  1.01051650914032E+05
 cg2d: Sum(rhs),rhsMax =  -1.10605238936005E+02  1.35131250952463E+00
(PID.TID 0000.0001)  ploadbar=  1.01050127921209E+05
 cg2d: Sum(rhs),rhsMax =  -1.10704728379995E+02  1.35006302759450E+00
(PID.TID 0000.0001)  ploadbar=  1.01048604928386E+05
 cg2d: Sum(rhs),rhsMax =  -1.11019928373804E+02  1.34622991192997E+00
(PID.TID 0000.0001)  ploadbar=  1.01047081935563E+05
 cg2d: Sum(rhs),rhsMax =  -1.11415053231160E+02  1.34148398136150E+00
(PID.TID 0000.0001)  ploadbar=  1.01045558942740E+05
 cg2d: Sum(rhs),rhsMax =  -1.11796020450483E+02  1.33696401064483E+00
(PID.TID 0000.0001)  ploadbar=  1.01044035949917E+05
 cg2d: Sum(rhs),rhsMax =  -1.12301884841640E+02  1.33101034635129E+00
(PID.TID 0000.0001)  ploadbar=  1.01042512957094E+05
 cg2d: Sum(rhs),rhsMax =  -1.12426084196522E+02  1.32958726998756E+00
(PID.TID 0000.0001)  ploadbar=  1.01042133157692E+05
 cg2d: Sum(rhs),rhsMax =  -1.10036897963422E+02  1.35847989102187E+00
(PID.TID 0000.0001)  ploadbar=  1.01041753358291E+05
 cg2d: Sum(rhs),rhsMax =  -1.07535506652957E+02  1.39007605517371E+00
(PID.TID 0000.0001)  ploadbar=  1.01041373558890E+05
 cg2d: Sum(rhs),rhsMax =  -1.04488694894841E+02  1.43057475461585E+00
(PID.TID 0000.0001)  ploadbar=  1.01040993759489E+05
 cg2d: Sum(rhs),rhsMax =  -1.01160606799574E+02  1.47756780227412E+00
(PID.TID 0000.0001)  ploadbar=  1.01040613960088E+05
 cg2d: Sum(rhs),rhsMax =  -9.74787185351785E+01  1.53326258430627E+00
(PID.TID 0000.0001)  ploadbar=  1.01040234160686E+05
 cg2d: Sum(rhs),rhsMax =  -9.37171044241938E+01  1.59471476814413E+00
(PID.TID 0000.0001)  ploadbar=  1.01040034703325E+05
 cg2d: Sum(rhs),rhsMax =  -9.00862106557315E+01  1.65891530055600E+00
(PID.TID 0000.0001)  ploadbar=  1.01039835245964E+05
 cg2d: Sum(rhs),rhsMax =  -8.67119995374820E+01  1.72340725993974E+00
(PID.TID 0000.0001)  ploadbar=  1.01039635788603E+05
 cg2d: Sum(rhs),rhsMax =  -8.36226404297379E+01  1.78702322208889E+00
(PID.TID 0000.0001)  ploadbar=  1.01039436331242E+05
 cg2d: Sum(rhs),rhsMax =  -8.08195034662950E+01  1.84895360446398E+00
(PID.TID 0000.0001)  ploadbar=  1.01039236873880E+05
 cg2d: Sum(rhs),rhsMax =  -7.82889843724474E+01  1.90866388537484E+00
(PID.TID 0000.0001)  ploadbar=  1.01039037416519E+05
 cg2d: Sum(rhs),rhsMax =  -7.62367867007703E+01  1.95993708165413E+00
(PID.TID 0000.0001)  ploadbar=  1.01039235698699E+05
 cg2d: Sum(rhs),rhsMax =  -7.45159861014704E+01  2.00503274287479E+00
(PID.TID 0000.0001)  ploadbar=  1.01039433980878E+05
 cg2d: Sum(rhs),rhsMax =  -7.30878934643432E+01  2.04398013660268E+00
(PID.TID 0000.0001)  ploadbar=  1.01039632263058E+05
 cg2d: Sum(rhs),rhsMax =  -7.19437372667608E+01  2.07618443413870E+00
(PID.TID 0000.0001)  ploadbar=  1.01039830545237E+05
 cg2d: Sum(rhs),rhsMax =  -7.10737860086573E+01  2.10121293638598E+00
(PID.TID 0000.0001)  ploadbar=  1.01040028827417E+05
 cg2d: Sum(rhs),rhsMax =  -7.04685164725652E+01  2.11878727163231E+00
(PID.TID 0000.0001)  ploadbar=  1.01040227109596E+05
 cg2d: Sum(rhs),rhsMax =  -7.01035197528700E+01  2.12941689626993E+00
(PID.TID 0000.0001)  ploadbar=  1.01039984486986E+05
 cg2d: Sum(rhs),rhsMax =  -6.98824829995776E+01  2.13581448178395E+00
(PID.TID 0000.0001)  ploadbar=  1.01039741864375E+05
 cg2d: Sum(rhs),rhsMax =  -6.97628037132874E+01  2.13919618820007E+00
(PID.TID 0000.0001)  ploadbar=  1.01039499241764E+05
 cg2d: Sum(rhs),rhsMax =  -6.97288310083049E+01  2.14000098579058E+00
(PID.TID 0000.0001)  ploadbar=  1.01039256619154E+05
 cg2d: Sum(rhs),rhsMax =  -6.97528178713713E+01  2.13906784418788E+00
(PID.TID 0000.0001)  ploadbar=  1.01039013996543E+05
 cg2d: Sum(rhs),rhsMax =  -6.97999919446413E+01  2.13745782066537E+00
(PID.TID 0000.0001)  ploadbar=  1.01038771373932E+05
 cg2d: Sum(rhs),rhsMax =  -6.98227610084780E+01  2.13658451808843E+00
(PID.TID 0000.0001)  ploadbar=  1.01038580749642E+05
 cg2d: Sum(rhs),rhsMax =  -6.98876418355703E+01  2.13440652323381E+00
(PID.TID 0000.0001)  ploadbar=  1.01038390125352E+05
 cg2d: Sum(rhs),rhsMax =  -7.00080070080463E+01  2.13052139093724E+00
(PID.TID 0000.0001)  ploadbar=  1.01038199501061E+05
 cg2d: Sum(rhs),rhsMax =  -7.01806026082680E+01  2.12504179936880E+00
(PID.TID 0000.0001)  ploadbar=  1.01038008876771E+05
 cg2d: Sum(rhs),rhsMax =  -7.04219350664704E+01  2.11749114258243E+00
(PID.TID 0000.0001)  ploadbar=  1.01037818252481E+05
 cg2d: Sum(rhs),rhsMax =  -7.07322084362054E+01  2.10789939407613E+00
(PID.TID 0000.0001)  ploadbar=  1.01037627628190E+05
 cg2d: Sum(rhs),rhsMax =  -7.11193652484527E+01  2.09616018566598E+00
(PID.TID 0000.0001)  ploadbar=  1.01038655355538E+05
 cg2d: Sum(rhs),rhsMax =  -7.15376503508015E+01  2.08366761185617E+00
(PID.TID 0000.0001)  ploadbar=  1.01039683082886E+05
 cg2d: Sum(rhs),rhsMax =  -7.19669372128598E+01  2.07102678009790E+00
(PID.TID 0000.0001)  ploadbar=  1.01040710810235E+05
 cg2d: Sum(rhs),rhsMax =  -7.23880380719363E+01  2.05878885317913E+00
(PID.TID 0000.0001)  ploadbar=  1.01041738537583E+05
 cg2d: Sum(rhs),rhsMax =  -7.27929901965549E+01  2.04716164156426E+00
(PID.TID 0000.0001)  ploadbar=  1.01042766264931E+05
 cg2d: Sum(rhs),rhsMax =  -7.31811331281905E+01  2.03613275567028E+00
(PID.TID 0000.0001)  ploadbar=  1.01043793992279E+05
 cg2d: Sum(rhs),rhsMax =  -7.35648101211820E+01  2.02534865716586E+00
(PID.TID 0000.0001)  ploadbar=  1.01044208639451E+05
 cg2d: Sum(rhs),rhsMax =  -7.39455169125777E+01  2.01475174944885E+00
(PID.TID 0000.0001)  ploadbar=  1.01044623286624E+05
 cg2d: Sum(rhs),rhsMax =  -7.43212185521990E+01  2.00438713078613E+00
(PID.TID 0000.0001)  ploadbar=  1.01045037933796E+05
 cg2d: Sum(rhs),rhsMax =  -7.46603461154521E+01  1.99508852212944E+00
(PID.TID 0000.0001)  ploadbar=  1.01045452580969E+05
 cg2d: Sum(rhs),rhsMax =  -7.49695790125874E+01  1.98664771337014E+00
(PID.TID 0000.0001)  ploadbar=  1.01045867228141E+05
 cg2d: Sum(rhs),rhsMax =  -7.52313825072701E+01  1.97950045501538E+00
(PID.TID 0000.0001)  ploadbar=  1.01046281875313E+05
 cg2d: Sum(rhs),rhsMax =  -7.54173415041142E+01  1.97445384729294E+00
(PID.TID 0000.0001)  ploadbar=  1.01045876873738E+05
 cg2d: Sum(rhs),rhsMax =  -7.55603482768274E+01  1.97060558951013E+00
(PID.TID 0000.0001)  ploadbar=  1.01045471872164E+05
 cg2d: Sum(rhs),rhsMax =  -7.56503059039694E+01  1.96819630920979E+00
(PID.TID 0000.0001)  ploadbar=  1.01045066870589E+05
 cg2d: Sum(rhs),rhsMax =  -7.56883648860740E+01  1.96718283042223E+00
(PID.TID 0000.0001)  ploadbar=  1.01044661869014E+05
 cg2d: Sum(rhs),rhsMax =  -7.56754013256557E+01  1.96753172645237E+00
(PID.TID 0000.0001)  ploadbar=  1.01044256867439E+05
 cg2d: Sum(rhs),rhsMax =  -7.56197625786689E+01  1.96902358404160E+00
(PID.TID 0000.0001)  ploadbar=  1.01043851865864E+05
 cg2d: Sum(rhs),rhsMax =  -7.55125088640880E+01  1.97185743381462E+00
(PID.TID 0000.0001)  ploadbar=  1.01043490955216E+05
 cg2d: Sum(rhs),rhsMax =  -7.53904267742678E+01  1.97507789106384E+00
(PID.TID 0000.0001)  ploadbar=  1.01043130044567E+05
 cg2d: Sum(rhs),rhsMax =  -7.52877875196483E+01  1.97778009071363E+00
(PID.TID 0000.0001)  ploadbar=  1.01042769133918E+05
 cg2d: Sum(rhs),rhsMax =  -7.52993734986044E+01  1.97746182837348E+00
(PID.TID 0000.0001)  ploadbar=  1.01042408223269E+05
 cg2d: Sum(rhs),rhsMax =  -7.56623266500552E+01  1.96793576915895E+00
(PID.TID 0000.0001)  ploadbar=  1.01042047312620E+05
 cg2d: Sum(rhs),rhsMax =  -7.59238119383978E+01  1.96108407566671E+00
(PID.TID 0000.0001)  ploadbar=  1.01041686401972E+05
 cg2d: Sum(rhs),rhsMax =  -7.61969207256511E+01  1.95399534765431E+00
(PID.TID 0000.0001)  ploadbar=  1.01042724808462E+05
 cg2d: Sum(rhs),rhsMax =  -7.64180078067419E+01  1.94829169485166E+00
(PID.TID 0000.0001)  ploadbar=  1.01043763214952E+05
 cg2d: Sum(rhs),rhsMax =  -7.65872495897937E+01  1.94394027390491E+00
(PID.TID 0000.0001)  ploadbar=  1.01044801621441E+05
 cg2d: Sum(rhs),rhsMax =  -7.67263459785858E+01  1.94036871467927E+00
(PID.TID 0000.0001)  ploadbar=  1.01045840027931E+05
 cg2d: Sum(rhs),rhsMax =  -7.68419370602397E+01  1.93739520935864E+00
(PID.TID 0000.0001)  ploadbar=  1.01046878434421E+05
 cg2d: Sum(rhs),rhsMax =  -7.69396482380101E+01  1.93486547800795E+00
(PID.TID 0000.0001)  ploadbar=  1.01047916840911E+05
 cg2d: Sum(rhs),rhsMax =  -7.70025831681660E+01  1.93323351540475E+00
(PID.TID 0000.0001)  ploadbar=  1.01046605796567E+05
 cg2d: Sum(rhs),rhsMax =  -7.70451445408133E+01  1.93212648730688E+00
(PID.TID 0000.0001)  ploadbar=  1.01045294752223E+05
 cg2d: Sum(rhs),rhsMax =  -7.70803128792310E+01  1.93121342040516E+00
(PID.TID 0000.0001)  ploadbar=  1.01043983707879E+05
 cg2d: Sum(rhs),rhsMax =  -7.71258629473442E+01  1.93004106098462E+00
(PID.TID 0000.0001)  ploadbar=  1.01042672663535E+05
 cg2d: Sum(rhs),rhsMax =  -7.72155864189469E+01  1.92776381460804E+00
(PID.TID 0000.0001)  ploadbar=  1.01041361619191E+05
 cg2d: Sum(rhs),rhsMax =  -7.73823025307111E+01  1.92356493789647E+00
(PID.TID 0000.0001)  ploadbar=  1.01040050574847E+05
 cg2d: Sum(rhs),rhsMax =  -7.75884969814693E+01  1.91845875062689E+00
(PID.TID 0000.0001)  ploadbar=  1.01038749866545E+05
 cg2d: Sum(rhs),rhsMax =  -7.78598520064468E+01  1.91181866943521E+00
(PID.TID 0000.0001)  ploadbar=  1.01037449158243E+05
 cg2d: Sum(rhs),rhsMax =  -7.81687416687144E+01  1.90434328256168E+00
(PID.TID 0000.0001)  ploadbar=  1.01036148449942E+05
 cg2d: Sum(rhs),rhsMax =  -7.85037504721027E+01  1.89632742256763E+00
(PID.TID 0000.0001)  ploadbar=  1.01034847741640E+05
 cg2d: Sum(rhs),rhsMax =  -7.88541153541026E+01  1.88804581736513E+00
(PID.TID 0000.0001)  ploadbar=  1.01033547033338E+05
 cg2d: Sum(rhs),rhsMax =  -7.92017808305980E+01  1.87994085333747E+00
(PID.TID 0000.0001)  ploadbar=  1.01032246325037E+05
 cg2d: Sum(rhs),rhsMax =  -7.95375792461832E+01  1.87218353796845E+00
(PID.TID 0000.0001)  ploadbar=  1.01030820900700E+05
 cg2d: Sum(rhs),rhsMax =  -7.98671019417066E+01  1.86462143405060E+00
(PID.TID 0000.0001)  ploadbar=  1.01029395476362E+05
 cg2d: Sum(rhs),rhsMax =  -8.02142981583567E+01  1.85668848184645E+00
(PID.TID 0000.0001)  ploadbar=  1.01027970052025E+05
 cg2d: Sum(rhs),rhsMax =  -8.05797399802864E+01  1.84837752048257E+00
(PID.TID 0000.0001)  ploadbar=  1.01026544627688E+05
 cg2d: Sum(rhs),rhsMax =  -8.09774932740392E+01  1.83937830340331E+00
(PID.TID 0000.0001)  ploadbar=  1.01025119203351E+05
 cg2d: Sum(rhs),rhsMax =  -8.14277668751669E+01  1.82925481818386E+00
(PID.TID 0000.0001)  ploadbar=  1.01023693779014E+05
 cg2d: Sum(rhs),rhsMax =  -8.19682335384582E+01  1.81726148469246E+00
(PID.TID 0000.0001)  ploadbar=  1.01022189259997E+05
 cg2d: Sum(rhs),rhsMax =  -8.26029983888802E+01  1.80338045228215E+00
(PID.TID 0000.0001)  ploadbar=  1.01020684740981E+05
 cg2d: Sum(rhs),rhsMax =  -8.33424029288129E+01  1.78747977147968E+00
(PID.TID 0000.0001)  ploadbar=  1.01019180221964E+05
 cg2d: Sum(rhs),rhsMax =  -8.41923763754735E+01  1.76954457616997E+00
(PID.TID 0000.0001)  ploadbar=  1.01017675702948E+05
 cg2d: Sum(rhs),rhsMax =  -8.51330879364178E+01  1.75010789333223E+00
(PID.TID 0000.0001)  ploadbar=  1.01016171183931E+05
 cg2d: Sum(rhs),rhsMax =  -8.61442997220964E+01  1.72968050574501E+00
(PID.TID 0000.0001)  ploadbar=  1.01014666664915E+05
 cg2d: Sum(rhs),rhsMax =  -8.70949147550338E+01  1.71089626222953E+00
(PID.TID 0000.0001)  ploadbar=  1.01012914660949E+05
 cg2d: Sum(rhs),rhsMax =  -8.80372414144869E+01  1.69265002319766E+00
(PID.TID 0000.0001)  ploadbar=  1.01011162656984E+05
 cg2d: Sum(rhs),rhsMax =  -8.89086802108588E+01  1.67609091230238E+00
(PID.TID 0000.0001)  ploadbar=  1.01009410653019E+05
 cg2d: Sum(rhs),rhsMax =  -8.96895307865730E+01  1.66148901570741E+00
(PID.TID 0000.0001)  ploadbar=  1.01007658649054E+05
 cg2d: Sum(rhs),rhsMax =  -9.03746442211793E+01  1.64884119996350E+00
(PID.TID 0000.0001)  ploadbar=  1.01005906645089E+05
 cg2d: Sum(rhs),rhsMax =  -9.09689302424287E+01  1.63797135297567E+00
(PID.TID 0000.0001)  ploadbar=  1.01004154641124E+05
 cg2d: Sum(rhs),rhsMax =  -9.15970885041079E+01  1.62669241858330E+00
(PID.TID 0000.0001)  ploadbar=  1.01003065347118E+05
 cg2d: Sum(rhs),rhsMax =  -9.21971888543568E+01  1.61610011236318E+00
(PID.TID 0000.0001)  ploadbar=  1.01001976053113E+05
 cg2d: Sum(rhs),rhsMax =  -9.27908129394442E+01  1.60579269084962E+00
(PID.TID 0000.0001)  ploadbar=  1.01000886759108E+05
 cg2d: Sum(rhs),rhsMax =  -9.33839360344080E+01  1.59565878944978E+00
(PID.TID 0000.0001)  ploadbar=  1.00999797465103E+05
 cg2d: Sum(rhs),rhsMax =  -9.39903538401526E+01  1.58546005268998E+00
(PID.TID 0000.0001)  ploadbar=  1.00998708171097E+05
 cg2d: Sum(rhs),rhsMax =  -9.46108754021159E+01  1.57519074238942E+00
(PID.TID 0000.0001)  ploadbar=  1.00997618877092E+05
 cg2d: Sum(rhs),rhsMax =  -9.53307615035772E+01  1.56342936932715E+00
(PID.TID 0000.0001)  ploadbar=  1.00996661748226E+05
 cg2d: Sum(rhs),rhsMax =  -9.61015951325817E+01  1.55100910855956E+00
(PID.TID 0000.0001)  ploadbar=  1.00995704619361E+05
 cg2d: Sum(rhs),rhsMax =  -9.69398916470586E+01  1.53769966023020E+00
(PID.TID 0000.0001)  ploadbar=  1.00994747490495E+05
 cg2d: Sum(rhs),rhsMax =  -9.78246290765896E+01  1.52387550784177E+00
(PID.TID 0000.0001)  ploadbar=  1.00993790361629E+05
 cg2d: Sum(rhs),rhsMax =  -9.87753880804467E+01  1.50926770693691E+00
(PID.TID 0000.0001)  ploadbar=  1.00992833232764E+05
 cg2d: Sum(rhs),rhsMax =  -9.98272886739913E+01  1.49340144696753E+00
(PID.TID 0000.0001)  ploadbar=  1.00991876103898E+05
 cg2d: Sum(rhs),rhsMax =  -1.00934096756362E+02  1.47707440607057E+00
(PID.TID 0000.0001)  ploadbar=  1.00990845401296E+05
 cg2d: Sum(rhs),rhsMax =  -1.02228055884794E+02  1.45843500708414E+00
(PID.TID 0000.0001)  ploadbar=  1.00989814698695E+05
 cg2d: Sum(rhs),rhsMax =  -1.03740793026446E+02  1.43723275651410E+00
(PID.TID 0000.0001)  ploadbar=  1.00988783996093E+05
 cg2d: Sum(rhs),rhsMax =  -1.05458448446099E+02  1.41389289798779E+00
(PID.TID 0000.0001)  ploadbar=  1.00987753293491E+05
 cg2d: Sum(rhs),rhsMax =  -1.07358413425498E+02  1.38893918791681E+00
(PID.TID 0000.0001)  ploadbar=  1.00986722590889E+05
 cg2d: Sum(rhs),rhsMax =  -1.09424563307775E+02  1.36277912231585E+00
(PID.TID 0000.0001)  ploadbar=  1.00985691888288E+05
 cg2d: Sum(rhs),rhsMax =  -1.10973468267286E+02  1.34383694906156E+00
(PID.TID 0000.0001)  ploadbar=  1.00986061934545E+05
 cg2d: Sum(rhs),rhsMax =  -1.11154791761831E+02  1.34173310779552E+00
(PID.TID 0000.0001)  ploadbar=  1.00986431980802E+05
 cg2d: Sum(rhs),rhsMax =  -1.11340474367573E+02  1.33959027310852E+00
(PID.TID 0000.0001)  ploadbar=  1.00986802027059E+05
 cg2d: Sum(rhs),rhsMax =  -1.11540863895160E+02  1.33728158685734E+00
(PID.TID 0000.0001)  ploadbar=  1.00987172073316E+05
 cg2d: Sum(rhs),rhsMax =  -1.11751068735923E+02  1.33486140454213E+00
(PID.TID 0000.0001)  ploadbar=  1.00987542119573E+05
 cg2d: Sum(rhs),rhsMax =  -1.11970926701921E+02  1.33233073287082E+00
(PID.TID 0000.0001)  ploadbar=  1.00987912165830E+05
 cg2d: Sum(rhs),rhsMax =  -1.12222185623330E+02  1.32946839810269E+00
(PID.TID 0000.0001)  ploadbar=  1.00988162008133E+05
 cg2d: Sum(rhs),rhsMax =  -1.12502852515739E+02  1.32629258962806E+00
(PID.TID 0000.0001)  ploadbar=  1.00988411850435E+05
 cg2d: Sum(rhs),rhsMax =  -1.12790028741890E+02  1.32307116401111E+00
(PID.TID 0000.0001)  ploadbar=  1.00988661692737E+05
 cg2d: Sum(rhs),rhsMax =  -1.13100908748526E+02  1.31960070266910E+00
(PID.TID 0000.0001)  ploadbar=  1.00988911535039E+05
 cg2d: Sum(rhs),rhsMax =  -1.13452089668258E+02  1.31569213562286E+00
(PID.TID 0000.0001)  ploadbar=  1.00989161377341E+05
 cg2d: Sum(rhs),rhsMax =  -1.13843105170196E+02  1.31135912639736E+00
(PID.TID 0000.0001)  ploadbar=  1.00989411219643E+05
 cg2d: Sum(rhs),rhsMax =  -1.14294549350047E+02  1.30633660871033E+00
(PID.TID 0000.0001)  ploadbar=  1.00989163973212E+05
 cg2d: Sum(rhs),rhsMax =  -1.14808646023845E+02  1.30060934649570E+00
(PID.TID 0000.0001)      cg2d_init_res =   2.99772443828617E-01
(PID.TID 0000.0001)      cg2d_iters(min,last) =      -1     141
(PID.TID 0000.0001)      cg2d_last_res =   8.78437882733560E-08
(PID.TID 0000.0001) // =======================================================
(PID.TID 0000.0001) // Begin MONITOR dynamic field statistics
(PID.TID 0000.0001) // =======================================================
(PID.TID 0000.0001) %MON time_tsnumber                =                  7008
(PID.TID 0000.0001) %MON time_secondsf                =   2.5228800000000E+07
(PID.TID 0000.0001) %MON dynstat_eta_max              =   1.1589378095065E+00
(PID.TID 0000.0001) %MON dynstat_eta_min              =  -5.6510393445635E+00
(PID.TID 0000.0001) %MON dynstat_eta_mean             =   7.5576102327094E-02
(PID.TID 0000.0001) %MON dynstat_eta_sd               =   7.2835199854979E-01
(PID.TID 0000.0001) %MON dynstat_eta_del2             =   1.9358997373859E-04
(PID.TID 0000.0001) %MON dynstat_uvel_max             =   1.3413575073928E+00
(PID.TID 0000.0001) %MON dynstat_uvel_min             =  -1.2237692048638E+00
(PID.TID 0000.0001) %MON dynstat_uvel_mean            =   1.3357975527455E-03
(PID.TID 0000.0001) %MON dynstat_uvel_sd              =   2.0840556831405E-02
(PID.TID 0000.0001) %MON dynstat_uvel_del2            =   8.6604120975230E-06
(PID.TID 0000.0001) %MON dynstat_vvel_max             =   6.8121144564155E-01
(PID.TID 0000.0001) %MON dynstat_vvel_min             =  -8.6594792988048E-01
(PID.TID 0000.0001) %MON dynstat_vvel_mean            =   1.2408978410806E-03
(PID.TID 0000.0001) %MON dynstat_vvel_sd              =   2.1582371548889E-02
(PID.TID 0000.0001) %MON dynstat_vvel_del2            =   8.9805984594640E-06
(PID.TID 0000.0001) %MON dynstat_wvel_max             =   3.3892058047034E-04
(PID.TID 0000.0001) %MON dynstat_wvel_min             =  -1.4490733906894E-03
(PID.TID 0000.0001) %MON dynstat_wvel_mean            =   3.5966525107025E-09
(PID.TID 0000.0001) %MON dynstat_wvel_sd              =   2.0100460901512E-05
(PID.TID 0000.0001) %MON dynstat_wvel_del2            =   1.6284067278510E-08
(PID.TID 0000.0001) %MON dynstat_theta_max            =   3.2643194833382E+01
(PID.TID 0000.0001) %MON dynstat_theta_min            =  -1.9760271335543E+00
(PID.TID 0000.0001) %MON dynstat_theta_mean           =   3.5774193848062E+00
(PID.TID 0000.0001) %MON dynstat_theta_sd             =   4.4258656887272E+00
(PID.TID 0000.0001) %MON dynstat_theta_del2           =   8.9613886830943E-05
(PID.TID 0000.0001) %MON dynstat_salt_max             =   4.0641866303338E+01
(PID.TID 0000.0001) %MON dynstat_salt_min             =   2.2084281934118E+01
(PID.TID 0000.0001) %MON dynstat_salt_mean            =   3.4726951246878E+01
(PID.TID 0000.0001) %MON dynstat_salt_sd              =   3.8020224761906E-01
(PID.TID 0000.0001) %MON dynstat_salt_del2            =   1.9446708571554E-05
(PID.TID 0000.0001) %MON dynstat_sst_max              =   3.1692915864713E+01
(PID.TID 0000.0001) %MON dynstat_sst_min              =  -1.9605416214286E+00
(PID.TID 0000.0001) %MON dynstat_sst_mean             =   1.7927862495271E+01
(PID.TID 0000.0001) %MON dynstat_sst_sd               =   1.0289798720048E+01
(PID.TID 0000.0001) %MON dynstat_sst_del2             =   5.5686735799123E-04
(PID.TID 0000.0001) %MON dynstat_sss_max              =   3.9865571214332E+01
(PID.TID 0000.0001) %MON dynstat_sss_min              =   2.2084281934118E+01
(PID.TID 0000.0001) %MON dynstat_sss_mean             =   3.4704904011120E+01
(PID.TID 0000.0001) %MON dynstat_sss_sd               =   1.3112112911355E+00
(PID.TID 0000.0001) %MON dynstat_sss_del2             =   2.9278326594714E-04
(PID.TID 0000.0001) %MON forcing_qnet_max             =   7.4619298909442E+02
(PID.TID 0000.0001) %MON forcing_qnet_min             =  -5.7329652102868E+02
(PID.TID 0000.0001) %MON forcing_qnet_mean            =   1.6248645421974E+01
(PID.TID 0000.0001) %MON forcing_qnet_sd              =   1.8914794217813E+02
(PID.TID 0000.0001) %MON forcing_qnet_del2            =   9.3150531496164E-02
(PID.TID 0000.0001) %MON forcing_qsw_max              =   5.6509998509494E+01
(PID.TID 0000.0001) %MON forcing_qsw_min              =  -6.3357070972711E+02
(PID.TID 0000.0001) %MON forcing_qsw_mean             =  -1.4914779232306E+02
(PID.TID 0000.0001) %MON forcing_qsw_sd               =   1.6783886589225E+02
(PID.TID 0000.0001) %MON forcing_qsw_del2             =   5.5695387733135E-02
(PID.TID 0000.0001) %MON forcing_empmr_max            =   1.1798878893080E-03
(PID.TID 0000.0001) %MON forcing_empmr_min            =  -3.5220237324616E-03
(PID.TID 0000.0001) %MON forcing_empmr_mean           =  -2.0317457095081E-06
(PID.TID 0000.0001) %MON forcing_empmr_sd             =   9.6791669282694E-05
(PID.TID 0000.0001) %MON forcing_empmr_del2           =   2.5554539993737E-07
(PID.TID 0000.0001) %MON forcing_fu_max               =   1.0005438327789E+00
(PID.TID 0000.0001) %MON forcing_fu_min               =  -1.8907892505328E+00
(PID.TID 0000.0001) %MON forcing_fu_mean              =   1.0339199881506E-02
(PID.TID 0000.0001) %MON forcing_fu_sd                =   1.2570976398361E-01
(PID.TID 0000.0001) %MON forcing_fu_del2              =   8.6395296306770E-05
(PID.TID 0000.0001) %MON forcing_fv_max               =   7.1958143815570E-01
(PID.TID 0000.0001) %MON forcing_fv_min               =  -1.3041282604036E+00
(PID.TID 0000.0001) %MON forcing_fv_mean              =   5.7015570474448E-03
(PID.TID 0000.0001) %MON forcing_fv_sd                =   1.2345725891102E-01
(PID.TID 0000.0001) %MON forcing_fv_del2              =   6.7032277388520E-05
(PID.TID 0000.0001) %MON trAdv_CFL_u_max              =   6.4883605794322E-02
(PID.TID 0000.0001) %MON trAdv_CFL_v_max              =   5.2240043597941E-02
(PID.TID 0000.0001) %MON trAdv_CFL_w_max              =   1.3253657588006E-01
(PID.TID 0000.0001) %MON advcfl_uvel_max              =   6.8588312351656E-02
(PID.TID 0000.0001) %MON advcfl_vvel_max              =   5.1372191810812E-02
(PID.TID 0000.0001) %MON advcfl_wvel_max              =   1.3602581636314E-01
(PID.TID 0000.0001) %MON advcfl_W_hf_max              =   1.4170394768836E-01
(PID.TID 0000.0001) %MON pe_b_mean                    =   2.4681310705017E-03
(PID.TID 0000.0001) %MON ke_max                       =   9.0169563448070E-01
(PID.TID 0000.0001) %MON ke_mean                      =   4.3563868734017E-04
(PID.TID 0000.0001) %MON ke_vol                       =   1.3350249316867E+18
(PID.TID 0000.0001) %MON vort_r_min                   =  -2.1356789632386E-05
(PID.TID 0000.0001) %MON vort_r_max                   =   2.4622124589075E-05
(PID.TID 0000.0001) %MON vort_a_mean                  =  -1.9727864647440E-05
(PID.TID 0000.0001) %MON vort_a_sd                    =   7.4543105708824E-05
(PID.TID 0000.0001) %MON vort_p_mean                  =  -2.1760081322181E-05
(PID.TID 0000.0001) %MON vort_p_sd                    =   9.7242394037294E-05
(PID.TID 0000.0001) %MON surfExpan_theta_mean         =  -1.7616658057897E-07
(PID.TID 0000.0001) %MON surfExpan_salt_mean          =  -1.7072524906209E-08
(PID.TID 0000.0001) // =======================================================
(PID.TID 0000.0001) // End MONITOR dynamic field statistics
(PID.TID 0000.0001) // =======================================================
(PID.TID 0000.0001)  ploadbar=  1.00988916726780E+05
(PID.TID 0000.0001) %SBO sbo_mass                     =   1.3737612057555E+21
(PID.TID 0000.0001) %SBO sbo_mass_fw                  =   4.8390384994996E+16
(PID.TID 0000.0001) %SBO sbo_zoamc                    =   1.2629291736294E+25
(PID.TID 0000.0001) %SBO sbo_zoamp                    =   2.9276715631471E+30
(PID.TID 0000.0001) // =======================================================
(PID.TID 0000.0001) // Begin MONITOR SEAICE statistics
(PID.TID 0000.0001) // =======================================================
(PID.TID 0000.0001) %MON seaice_tsnumber              =                  7008
(PID.TID 0000.0001) %MON seaice_time_sec              =   2.5228800000000E+07
(PID.TID 0000.0001) %MON seaice_uice_max              =   4.0000000000000E-01
(PID.TID 0000.0001) %MON seaice_uice_min              =  -4.0000000000000E-01
(PID.TID 0000.0001) %MON seaice_uice_mean             =   9.4374199836606E-03
(PID.TID 0000.0001) %MON seaice_uice_sd               =   1.6728298201159E-01
(PID.TID 0000.0001) %MON seaice_uice_del2             =   1.5086171816580E-04
(PID.TID 0000.0001) %MON seaice_vice_max              =   4.0000000000000E-01
(PID.TID 0000.0001) %MON seaice_vice_min              =  -4.0000000000000E-01
(PID.TID 0000.0001) %MON seaice_vice_mean             =  -5.3488351323680E-03
(PID.TID 0000.0001) %MON seaice_vice_sd               =   1.9001513349537E-01
(PID.TID 0000.0001) %MON seaice_vice_del2             =   1.4290305733604E-04
(PID.TID 0000.0001) %MON seaice_area_max              =   9.7000000000000E-01
(PID.TID 0000.0001) %MON seaice_area_min              =   0.0000000000000E+00
(PID.TID 0000.0001) %MON seaice_area_mean             =   6.9869019365289E-02
(PID.TID 0000.0001) %MON seaice_area_sd               =   2.4083752659371E-01
(PID.TID 0000.0001) %MON seaice_area_del2             =   2.1994805212660E-04
(PID.TID 0000.0001) %MON seaice_heff_max              =   4.6362896281773E+00
(PID.TID 0000.0001) %MON seaice_heff_min              =   0.0000000000000E+00
(PID.TID 0000.0001) %MON seaice_heff_mean             =   5.8888223912429E-02
(PID.TID 0000.0001) %MON seaice_heff_sd               =   2.6082306969592E-01
(PID.TID 0000.0001) %MON seaice_heff_del2             =   1.9336599308450E-04
(PID.TID 0000.0001) %MON seaice_hsnow_max             =   1.5886061708910E+00
(PID.TID 0000.0001) %MON seaice_hsnow_min             =  -6.7152646362032E-05
(PID.TID 0000.0001) %MON seaice_hsnow_mean            =   1.1537414598832E-02
(PID.TID 0000.0001) %MON seaice_hsnow_sd              =   5.4123927578376E-02
(PID.TID 0000.0001) %MON seaice_hsnow_del2            =   5.3667358911947E-05
(PID.TID 0000.0001) // =======================================================
(PID.TID 0000.0001) // End MONITOR SEAICE statistics
(PID.TID 0000.0001) // =======================================================
(PID.TID 0000.0001) // =======================================================
(PID.TID 0000.0001) // Begin MONITOR EXF statistics
(PID.TID 0000.0001) // =======================================================
(PID.TID 0000.0001) %MON exf_tsnumber                 =                  7008
(PID.TID 0000.0001) %MON exf_time_sec                 =   2.5228800000000E+07
(PID.TID 0000.0001) %MON exf_ustress_max              =   1.0047499537468E+00
(PID.TID 0000.0001) %MON exf_ustress_min              =  -2.0063149929047E+00
(PID.TID 0000.0001) %MON exf_ustress_mean             =   1.0097171908583E-02
(PID.TID 0000.0001) %MON exf_ustress_sd               =   1.2749516565533E-01
(PID.TID 0000.0001) %MON exf_ustress_del2             =   1.1548911405615E-04
(PID.TID 0000.0001) %MON exf_vstress_max              =   7.2830842863394E-01
(PID.TID 0000.0001) %MON exf_vstress_min              =  -1.5375439753135E+00
(PID.TID 0000.0001) %MON exf_vstress_mean             =   5.4688154165056E-03
(PID.TID 0000.0001) %MON exf_vstress_sd               =   1.2497972782644E-01
(PID.TID 0000.0001) %MON exf_vstress_del2             =   8.4659609307856E-05
(PID.TID 0000.0001) %MON exf_hflux_max                =   1.1076385257758E+03
(PID.TID 0000.0001) %MON exf_hflux_min                =  -4.5575298073079E+02
(PID.TID 0000.0001) %MON exf_hflux_mean               =   2.1659550705298E+01
(PID.TID 0000.0001) %MON exf_hflux_sd                 =   1.9888512211635E+02
(PID.TID 0000.0001) %MON exf_hflux_del2               =   3.2490069954272E-01
(PID.TID 0000.0001) %MON exf_sflux_max                =   2.3042395834110E-07
(PID.TID 0000.0001) %MON exf_sflux_min                =  -3.0713210904226E-06
(PID.TID 0000.0001) %MON exf_sflux_mean               =  -1.7124670664139E-12
(PID.TID 0000.0001) %MON exf_sflux_sd                 =   8.6567913368666E-08
(PID.TID 0000.0001) %MON exf_sflux_del2               =   2.1567816892050E-10
(PID.TID 0000.0001) %MON exf_wspeed_max               =   2.4265119552612E+01
(PID.TID 0000.0001) %MON exf_wspeed_min               =   4.4450447708368E-01
(PID.TID 0000.0001) %MON exf_wspeed_mean              =   7.2316298758546E+00
(PID.TID 0000.0001) %MON exf_wspeed_sd                =   3.3597543484569E+00
(PID.TID 0000.0001) %MON exf_wspeed_del2              =   1.2775442463235E-02
(PID.TID 0000.0001) %MON exf_atemp_max                =   3.0570972576141E+02
(PID.TID 0000.0001) %MON exf_atemp_min                =   2.2757535018921E+02
(PID.TID 0000.0001) %MON exf_atemp_mean               =   2.8902992066914E+02
(PID.TID 0000.0001) %MON exf_atemp_sd                 =   1.1608409299003E+01
(PID.TID 0000.0001) %MON exf_atemp_del2               =   2.4333423710116E-02
(PID.TID 0000.0001) %MON exf_aqh_max                  =   2.0970256067812E-02
(PID.TID 0000.0001) %MON exf_aqh_min                  =   1.4266483776737E-04
(PID.TID 0000.0001) %MON exf_aqh_mean                 =   1.0644742071239E-02
(PID.TID 0000.0001) %MON exf_aqh_sd                   =   5.6427373597676E-03
(PID.TID 0000.0001) %MON exf_aqh_del2                 =   1.4364438772931E-05
(PID.TID 0000.0001) %MON exf_lwflux_max               =   2.3090204774254E+02
(PID.TID 0000.0001) %MON exf_lwflux_min               =  -2.0720692208577E+01
(PID.TID 0000.0001) %MON exf_lwflux_mean              =   4.7140462590121E+01
(PID.TID 0000.0001) %MON exf_lwflux_sd                =   2.5318173476985E+01
(PID.TID 0000.0001) %MON exf_lwflux_del2              =   8.4250519418550E-02
(PID.TID 0000.0001) %MON exf_evap_max                 =   2.4427768951973E-07
(PID.TID 0000.0001) %MON exf_evap_min                 =  -1.6610824627968E-08
(PID.TID 0000.0001) %MON exf_evap_mean                =   4.3751157425752E-08
(PID.TID 0000.0001) %MON exf_evap_sd                  =   2.7360553788815E-08
(PID.TID 0000.0001) %MON exf_evap_del2                =   7.2628215449443E-11
(PID.TID 0000.0001) %MON exf_precip_max               =   3.1084255738278E-06
(PID.TID 0000.0001) %MON exf_precip_min               =  -2.1812001094190E-08
(PID.TID 0000.0001) %MON exf_precip_mean              =   4.0736930161533E-08
(PID.TID 0000.0001) %MON exf_precip_sd                =   8.0019987580677E-08
(PID.TID 0000.0001) %MON exf_precip_del2              =   2.1879173477397E-10
(PID.TID 0000.0001) %MON exf_swflux_max               =   9.9558839313985E+01
(PID.TID 0000.0001) %MON exf_swflux_min               =  -5.7580650567899E+02
(PID.TID 0000.0001) %MON exf_swflux_mean              =  -1.6060400251320E+02
(PID.TID 0000.0001) %MON exf_swflux_sd                =   1.6082565587051E+02
(PID.TID 0000.0001) %MON exf_swflux_del2              =   2.8547857059143E-01
(PID.TID 0000.0001) %MON exf_swdown_max               =   6.2065512084961E+02
(PID.TID 0000.0001) %MON exf_swdown_min               =  -1.4132811737061E+02
(PID.TID 0000.0001) %MON exf_swdown_mean              =   1.7408854725968E+02
(PID.TID 0000.0001) %MON exf_swdown_sd                =   1.7400223954535E+02
(PID.TID 0000.0001) %MON exf_swdown_del2              =   3.1030913078690E-01
(PID.TID 0000.0001) %MON exf_lwdown_max               =   4.6679513549805E+02
(PID.TID 0000.0001) %MON exf_lwdown_min               =   6.8630306243896E+01
(PID.TID 0000.0001) %MON exf_lwdown_mean              =   3.6143161760701E+02
(PID.TID 0000.0001) %MON exf_lwdown_sd                =   6.1588113292250E+01
(PID.TID 0000.0001) %MON exf_lwdown_del2              =   4.8710958299640E-01
(PID.TID 0000.0001) %MON exf_apressure_max            =   1.0339980859375E+05
(PID.TID 0000.0001) %MON exf_apressure_min            =   9.4313593750000E+04
(PID.TID 0000.0001) %MON exf_apressure_mean           =   1.0098866948035E+05
(PID.TID 0000.0001) %MON exf_apressure_sd             =   1.1915242315822E+03
(PID.TID 0000.0001) %MON exf_apressure_del2           =   1.4477278648464E+02
(PID.TID 0000.0001) %MON exf_runoff_max               =   9.3245055585031E-07
(PID.TID 0000.0001) %MON exf_runoff_min               =   0.0000000000000E+00
(PID.TID 0000.0001) %MON exf_runoff_mean              =   3.0159397312850E-09
(PID.TID 0000.0001) %MON exf_runoff_sd                =   1.6428556549052E-08
(PID.TID 0000.0001) %MON exf_runoff_del2              =   1.9712392968027E-11
(PID.TID 0000.0001) // =======================================================
(PID.TID 0000.0001) // End MONITOR EXF statistics
(PID.TID 0000.0001) // =======================================================
 cg2d: Sum(rhs),rhsMax =  -1.15375850444393E+02  1.29429888967219E+00
(PID.TID 0000.0001)  ploadbar=  1.00988669480348E+05
 cg2d: Sum(rhs),rhsMax =  -1.15996835883613E+02  1.28741096905903E+00
(PID.TID 0000.0001)  ploadbar=  1.00988422233916E+05
 cg2d: Sum(rhs),rhsMax =  -1.16684676070316E+02  1.27982071163482E+00
(PID.TID 0000.0001)  ploadbar=  1.00988174987484E+05
 cg2d: Sum(rhs),rhsMax =  -1.17442316651764E+02  1.27152150967211E+00
(PID.TID 0000.0001)  ploadbar=  1.00987927741053E+05
 cg2d: Sum(rhs),rhsMax =  -1.18297217014395E+02  1.26229228859678E+00
(PID.TID 0000.0001)  ploadbar=  1.00988429280131E+05
 cg2d: Sum(rhs),rhsMax =  -1.19227518235894E+02  1.25239967723846E+00
(PID.TID 0000.0001)  ploadbar=  1.00988930819210E+05
 cg2d: Sum(rhs),rhsMax =  -1.20213071069745E+02  1.24208459267161E+00
(PID.TID 0000.0001)  ploadbar=  1.00989432358288E+05
 cg2d: Sum(rhs),rhsMax =  -1.21207722869951E+02  1.23183663605590E+00
(PID.TID 0000.0001)  ploadbar=  1.00989933897367E+05
 cg2d: Sum(rhs),rhsMax =  -1.22161536996436E+02  1.22215220704526E+00
(PID.TID 0000.0001)  ploadbar=  1.00990435436446E+05
 cg2d: Sum(rhs),rhsMax =  -1.23021363508403E+02  1.21352905581950E+00
(PID.TID 0000.0001)  ploadbar=  1.00990936975524E+05
 cg2d: Sum(rhs),rhsMax =  -1.23670200866967E+02  1.20707633832991E+00
(PID.TID 0000.0001)  ploadbar=  1.00992051195665E+05
 cg2d: Sum(rhs),rhsMax =  -1.24174483968141E+02  1.20207884899158E+00
(PID.TID 0000.0001)  ploadbar=  1.00993165415806E+05
 cg2d: Sum(rhs),rhsMax =  -1.24539297237813E+02  1.19844797435900E+00
(PID.TID 0000.0001)  ploadbar=  1.00994279635946E+05
 cg2d: Sum(rhs),rhsMax =  -1.24785205510571E+02  1.19595867950099E+00
(PID.TID 0000.0001)  ploadbar=  1.00995393856087E+05
 cg2d: Sum(rhs),rhsMax =  -1.25007958912362E+02  1.19367770081144E+00
(PID.TID 0000.0001)  ploadbar=  1.00996508076228E+05
 cg2d: Sum(rhs),rhsMax =  -1.25293329744727E+02  1.19078329456502E+00
(PID.TID 0000.0001)  ploadbar=  1.00997622296369E+05
 cg2d: Sum(rhs),rhsMax =  -1.25479152738985E+02  1.18887913047614E+00
(PID.TID 0000.0001)  ploadbar=  1.00998187898342E+05
 cg2d: Sum(rhs),rhsMax =  -1.25628574270305E+02  1.18735322963961E+00
(PID.TID 0000.0001)  ploadbar=  1.00998753500315E+05
 cg2d: Sum(rhs),rhsMax =  -1.25839449857133E+02  1.18527509878313E+00
(PID.TID 0000.0001)  ploadbar=  1.00999319102288E+05
 cg2d: Sum(rhs),rhsMax =  -1.26135783755126E+02  1.18242190401907E+00
(PID.TID 0000.0001)  ploadbar=  1.00999884704262E+05
 cg2d: Sum(rhs),rhsMax =  -1.26508862295298E+02  1.17888471693499E+00
(PID.TID 0000.0001)  ploadbar=  1.01000450306235E+05
 cg2d: Sum(rhs),rhsMax =  -1.26983798019836E+02  1.17444176753810E+00
(PID.TID 0000.0001)  ploadbar=  1.01001015908208E+05
 cg2d: Sum(rhs),rhsMax =  -1.27560196154354E+02  1.16908812872390E+00
(PID.TID 0000.0001)  ploadbar=  1.01002138672761E+05
 cg2d: Sum(rhs),rhsMax =  -1.28222027788941E+02  1.16298880111467E+00
(PID.TID 0000.0001)  ploadbar=  1.01003261437314E+05
 cg2d: Sum(rhs),rhsMax =  -1.29017595058550E+02  1.15573045602672E+00
(PID.TID 0000.0001)  ploadbar=  1.01004384201867E+05
 cg2d: Sum(rhs),rhsMax =  -1.30004345236268E+02  1.14684743231681E+00
(PID.TID 0000.0001)  ploadbar=  1.01005506966420E+05
 cg2d: Sum(rhs),rhsMax =  -1.31273598213317E+02  1.13562398581343E+00
(PID.TID 0000.0001)  ploadbar=  1.01006629730973E+05
 cg2d: Sum(rhs),rhsMax =  -1.32933401422251E+02  1.12128652884307E+00
(PID.TID 0000.0001)  ploadbar=  1.01007752495526E+05
 cg2d: Sum(rhs),rhsMax =  -1.35026986578923E+02  1.10376379120127E+00
(PID.TID 0000.0001)  ploadbar=  1.01009056510800E+05
 cg2d: Sum(rhs),rhsMax =  -1.37299214101263E+02  1.08537481886307E+00
(PID.TID 0000.0001)  ploadbar=  1.01010360526074E+05
 cg2d: Sum(rhs),rhsMax =  -1.39612309728974E+02  1.06728067227293E+00
(PID.TID 0000.0001)  ploadbar=  1.01011664541348E+05
 cg2d: Sum(rhs),rhsMax =  -1.41948078002911E+02  1.04961392163442E+00
(PID.TID 0000.0001)  ploadbar=  1.01012968556622E+05
 cg2d: Sum(rhs),rhsMax =  -1.43403030590351E+02  1.03886327779266E+00
(PID.TID 0000.0001)  ploadbar=  1.01014272571896E+05
 cg2d: Sum(rhs),rhsMax =  -1.43299567457180E+02  1.03951023297399E+00
(PID.TID 0000.0001)  ploadbar=  1.01015576587171E+05
 cg2d: Sum(rhs),rhsMax =  -1.43258794058826E+02  1.03968897923013E+00
(PID.TID 0000.0001)  ploadbar=  1.01017210305613E+05
 cg2d: Sum(rhs),rhsMax =  -1.43273028300810E+02  1.03945206566998E+00
(PID.TID 0000.0001)  ploadbar=  1.01018844024056E+05
 cg2d: Sum(rhs),rhsMax =  -1.43340282191870E+02  1.03881047989716E+00
(PID.TID 0000.0001)  ploadbar=  1.01020477742499E+05
 cg2d: Sum(rhs),rhsMax =  -1.43456412834103E+02  1.03779044239909E+00
(PID.TID 0000.0001)  ploadbar=  1.01022111460942E+05
 cg2d: Sum(rhs),rhsMax =  -1.43610882509125E+02  1.03646545630454E+00
(PID.TID 0000.0001)  ploadbar=  1.01023745179385E+05
 cg2d: Sum(rhs),rhsMax =  -1.43790322296309E+02  1.03493170315413E+00
(PID.TID 0000.0001)  ploadbar=  1.01025378897827E+05
 cg2d: Sum(rhs),rhsMax =  -1.43985686071406E+02  1.03334085479076E+00
(PID.TID 0000.0001)  ploadbar=  1.01026845507231E+05
 cg2d: Sum(rhs),rhsMax =  -1.44207732853617E+02  1.03160808483230E+00
(PID.TID 0000.0001)  ploadbar=  1.01028312116635E+05
 cg2d: Sum(rhs),rhsMax =  -1.44471623440077E+02  1.02962119426246E+00
(PID.TID 0000.0001)  ploadbar=  1.01029778726038E+05
 cg2d: Sum(rhs),rhsMax =  -1.44778635255157E+02  1.02736986141666E+00
(PID.TID 0000.0001)  ploadbar=  1.01031245335442E+05
 cg2d: Sum(rhs),rhsMax =  -1.45102850865097E+02  1.02504133440749E+00
(PID.TID 0000.0001)  ploadbar=  1.01032711944846E+05
 cg2d: Sum(rhs),rhsMax =  -1.45424664459756E+02  1.02277783697688E+00
(PID.TID 0000.0001)  ploadbar=  1.01034178554249E+05
 cg2d: Sum(rhs),rhsMax =  -1.45845853959274E+02  1.01981674420473E+00
(PID.TID 0000.0001)  ploadbar=  1.01035732213261E+05
 cg2d: Sum(rhs),rhsMax =  -1.46341309561145E+02  1.01633838765907E+00
(PID.TID 0000.0001)  ploadbar=  1.01037285872273E+05
 cg2d: Sum(rhs),rhsMax =  -1.46866303932883E+02  1.01265917447866E+00
(PID.TID 0000.0001)  ploadbar=  1.01038839531284E+05
 cg2d: Sum(rhs),rhsMax =  -1.47445855051648E+02  1.00861102073151E+00
(PID.TID 0000.0001)  ploadbar=  1.01040393190296E+05
 cg2d: Sum(rhs),rhsMax =  -1.48068621565997E+02  1.00428034314503E+00
(PID.TID 0000.0001)  ploadbar=  1.01041946849308E+05
 cg2d: Sum(rhs),rhsMax =  -1.48735485894380E+02  9.99666577108811E-01
(PID.TID 0000.0001)  ploadbar=  1.01043500508320E+05
 cg2d: Sum(rhs),rhsMax =  -1.49430063212143E+02  9.94925776219642E-01
(PID.TID 0000.0001)  ploadbar=  1.01045719218831E+05
 cg2d: Sum(rhs),rhsMax =  -1.50143024303356E+02  9.90117516224164E-01
(PID.TID 0000.0001)  ploadbar=  1.01047937929342E+05
 cg2d: Sum(rhs),rhsMax =  -1.50866633062824E+02  9.85293807416307E-01
(PID.TID 0000.0001)  ploadbar=  1.01050156639854E+05
 cg2d: Sum(rhs),rhsMax =  -1.51579109096783E+02  9.80593355982102E-01
(PID.TID 0000.0001)  ploadbar=  1.01052375350365E+05
 cg2d: Sum(rhs),rhsMax =  -1.52266259571496E+02  9.76100861395411E-01
(PID.TID 0000.0001)  ploadbar=  1.01054594060876E+05
 cg2d: Sum(rhs),rhsMax =  -1.52917301800000E+02  9.71874057171669E-01
(PID.TID 0000.0001)  ploadbar=  1.01056812771388E+05
 cg2d: Sum(rhs),rhsMax =  -1.53517993171792E+02  9.67988891384866E-01
(PID.TID 0000.0001)  ploadbar=  1.01057757440319E+05
 cg2d: Sum(rhs),rhsMax =  -1.54082945842892E+02  9.64343780620400E-01
(PID.TID 0000.0001)  ploadbar=  1.01058702109251E+05
 cg2d: Sum(rhs),rhsMax =  -1.54623098474205E+02  9.60862413264528E-01
(PID.TID 0000.0001)  ploadbar=  1.01059646778183E+05
 cg2d: Sum(rhs),rhsMax =  -1.55137981298998E+02  9.57540927317683E-01
(PID.TID 0000.0001)  ploadbar=  1.01060591447114E+05
 cg2d: Sum(rhs),rhsMax =  -1.55631399952722E+02  9.54348675652496E-01
(PID.TID 0000.0001)  ploadbar=  1.01061536116046E+05
 cg2d: Sum(rhs),rhsMax =  -1.56106743369659E+02  9.51257620125724E-01
(PID.TID 0000.0001)  ploadbar=  1.01062480784978E+05
 cg2d: Sum(rhs),rhsMax =  -1.56553815626529E+02  9.48383619817410E-01
(PID.TID 0000.0001)  ploadbar=  1.01062928345197E+05
 cg2d: Sum(rhs),rhsMax =  -1.56991600875346E+02  9.45601977754147E-01
(PID.TID 0000.0001)  ploadbar=  1.01063375905416E+05
 cg2d: Sum(rhs),rhsMax =  -1.57427423863319E+02  9.42862649981211E-01
(PID.TID 0000.0001)  ploadbar=  1.01063823465635E+05
 cg2d: Sum(rhs),rhsMax =  -1.57861385671443E+02  9.40162295937733E-01
(PID.TID 0000.0001)  ploadbar=  1.01064271025854E+05
 cg2d: Sum(rhs),rhsMax =  -1.58300898333639E+02  9.37456132373453E-01
(PID.TID 0000.0001)  ploadbar=  1.01064718586073E+05
 cg2d: Sum(rhs),rhsMax =  -1.58751930122470E+02  9.34708538477560E-01
(PID.TID 0000.0001)  ploadbar=  1.01065166146292E+05
 cg2d: Sum(rhs),rhsMax =  -1.59224413493696E+02  9.31843871741212E-01
(PID.TID 0000.0001)  ploadbar=  1.01064732826465E+05
 cg2d: Sum(rhs),rhsMax =  -1.59710686349741E+02  9.28902770455965E-01
(PID.TID 0000.0001)  ploadbar=  1.01064299506638E+05
 cg2d: Sum(rhs),rhsMax =  -1.60210968538636E+02  9.25884870304079E-01
(PID.TID 0000.0001)  ploadbar=  1.01063866186812E+05
 cg2d: Sum(rhs),rhsMax =  -1.59400276388100E+02  9.30461558474263E-01
(PID.TID 0000.0001)  ploadbar=  1.01063432866985E+05
 cg2d: Sum(rhs),rhsMax =  -1.58164013875598E+02  9.37585154457963E-01
(PID.TID 0000.0001)  ploadbar=  1.01062999547159E+05
 cg2d: Sum(rhs),rhsMax =  -1.56968206363301E+02  9.44561089051083E-01
(PID.TID 0000.0001)  ploadbar=  1.01062566227332E+05
 cg2d: Sum(rhs),rhsMax =  -1.55786348839280E+02  9.51579316991778E-01
(PID.TID 0000.0001)  ploadbar=  1.01062733130369E+05
 cg2d: Sum(rhs),rhsMax =  -1.54594306258295E+02  9.58782589963768E-01
(PID.TID 0000.0001)  ploadbar=  1.01062900033406E+05
 cg2d: Sum(rhs),rhsMax =  -1.53395849421852E+02  9.66148097864210E-01
(PID.TID 0000.0001)  ploadbar=  1.01063066936443E+05
 cg2d: Sum(rhs),rhsMax =  -1.52191707702584E+02  9.73671763521953E-01
(PID.TID 0000.0001)  ploadbar=  1.01063233839480E+05
 cg2d: Sum(rhs),rhsMax =  -1.50981726111069E+02  9.81351544510187E-01
(PID.TID 0000.0001)  ploadbar=  1.01063400742517E+05
 cg2d: Sum(rhs),rhsMax =  -1.49778186321170E+02  9.89106416390198E-01
(PID.TID 0000.0001)  ploadbar=  1.01063567645554E+05
 cg2d: Sum(rhs),rhsMax =  -1.48510289448557E+02  9.97415171814294E-01
(PID.TID 0000.0001)  ploadbar=  1.01063710337390E+05
 cg2d: Sum(rhs),rhsMax =  -1.47239464475524E+02  1.00587957564150E+00
(PID.TID 0000.0001)  ploadbar=  1.01063853029226E+05
 cg2d: Sum(rhs),rhsMax =  -1.45901486904759E+02  1.01494540149124E+00
(PID.TID 0000.0001)  ploadbar=  1.01063995721062E+05
 cg2d: Sum(rhs),rhsMax =  -1.43357582216643E+02  1.03277542121027E+00
(PID.TID 0000.0001)  ploadbar=  1.01064138412899E+05
 cg2d: Sum(rhs),rhsMax =  -1.40365151918429E+02  1.05458611109573E+00
(PID.TID 0000.0001)  ploadbar=  1.01064281104735E+05
 cg2d: Sum(rhs),rhsMax =  -1.37077466716507E+02  1.07964251329204E+00
(PID.TID 0000.0001)  ploadbar=  1.01064423796571E+05
 cg2d: Sum(rhs),rhsMax =  -1.33686692401473E+02  1.10682376786596E+00
(PID.TID 0000.0001)  ploadbar=  1.01064199611944E+05
 cg2d: Sum(rhs),rhsMax =  -1.30838801829510E+02  1.13073956090814E+00
(PID.TID 0000.0001)  ploadbar=  1.01063975427317E+05
 cg2d: Sum(rhs),rhsMax =  -1.28519484025652E+02  1.15099374816293E+00
(PID.TID 0000.0001)  ploadbar=  1.01063751242690E+05
 cg2d: Sum(rhs),rhsMax =  -1.26565575692361E+02  1.16863475348801E+00
(PID.TID 0000.0001)  ploadbar=  1.01063527058062E+05
 cg2d: Sum(rhs),rhsMax =  -1.24910851869581E+02  1.18401009813720E+00
(PID.TID 0000.0001)  ploadbar=  1.01063302873435E+05
 cg2d: Sum(rhs),rhsMax =  -1.23481733056046E+02  1.19762769471990E+00
(PID.TID 0000.0001)  ploadbar=  1.01063078688808E+05
 cg2d: Sum(rhs),rhsMax =  -1.22270555143092E+02  1.20939722934459E+00
(PID.TID 0000.0001)  ploadbar=  1.01063228955579E+05
 cg2d: Sum(rhs),rhsMax =  -1.21193254709919E+02  1.22004434593047E+00
(PID.TID 0000.0001)  ploadbar=  1.01063379222349E+05
 cg2d: Sum(rhs),rhsMax =  -1.20368855708080E+02  1.22828615114267E+00
(PID.TID 0000.0001)  ploadbar=  1.01063529489120E+05
 cg2d: Sum(rhs),rhsMax =  -1.19434446080785E+02  1.23776937218691E+00
(PID.TID 0000.0001)  ploadbar=  1.01063679755891E+05
 cg2d: Sum(rhs),rhsMax =  -1.18588393559430E+02  1.24646036354023E+00
(PID.TID 0000.0001)  ploadbar=  1.01063830022661E+05
 cg2d: Sum(rhs),rhsMax =  -1.17551087897148E+02  1.25730243027618E+00
(PID.TID 0000.0001)  ploadbar=  1.01063980289432E+05
 cg2d: Sum(rhs),rhsMax =  -1.16307822058658E+02  1.27060335871688E+00
(PID.TID 0000.0001)  ploadbar=  1.01065105563120E+05
 cg2d: Sum(rhs),rhsMax =  -1.14923604075573E+02  1.28577829536182E+00
(PID.TID 0000.0001)  ploadbar=  1.01066230836809E+05
 cg2d: Sum(rhs),rhsMax =  -1.13516964964644E+02  1.30158559545432E+00
(PID.TID 0000.0001)  ploadbar=  1.01067356110497E+05
 cg2d: Sum(rhs),rhsMax =  -1.12150477761677E+02  1.31731362607841E+00
(PID.TID 0000.0001)  ploadbar=  1.01068481384186E+05
 cg2d: Sum(rhs),rhsMax =  -1.10868465933262E+02  1.33240326661756E+00
(PID.TID 0000.0001)  ploadbar=  1.01069606657874E+05
 cg2d: Sum(rhs),rhsMax =  -1.09697420833988E+02  1.34646856786459E+00
(PID.TID 0000.0001)  ploadbar=  1.01070731931563E+05
 cg2d: Sum(rhs),rhsMax =  -1.08631477884919E+02  1.35949891184460E+00
(PID.TID 0000.0001)  ploadbar=  1.01071940415283E+05
 cg2d: Sum(rhs),rhsMax =  -1.07684200467823E+02  1.37124690927896E+00
(PID.TID 0000.0001)  ploadbar=  1.01073148899003E+05
 cg2d: Sum(rhs),rhsMax =  -1.06840274066672E+02  1.38183244232847E+00
(PID.TID 0000.0001)  ploadbar=  1.01074357382723E+05
 cg2d: Sum(rhs),rhsMax =  -1.06079061742703E+02  1.39146130888628E+00
(PID.TID 0000.0001)  ploadbar=  1.01075565866443E+05
 cg2d: Sum(rhs),rhsMax =  -1.05401667209601E+02  1.40007081758070E+00
(PID.TID 0000.0001)  ploadbar=  1.01076774350163E+05
 cg2d: Sum(rhs),rhsMax =  -1.04808625702684E+02  1.40761022468484E+00
(PID.TID 0000.0001)  ploadbar=  1.01077982833884E+05
 cg2d: Sum(rhs),rhsMax =  -1.04420675930817E+02  1.41250852595107E+00
(PID.TID 0000.0001)  ploadbar=  1.01079646893925E+05
 cg2d: Sum(rhs),rhsMax =  -1.04410790156206E+02  1.41235452411576E+00
(PID.TID 0000.0001)  ploadbar=  1.01081310953966E+05
 cg2d: Sum(rhs),rhsMax =  -1.04761726863237E+02  1.40737177066940E+00
(PID.TID 0000.0001)  ploadbar=  1.01082975014007E+05
 cg2d: Sum(rhs),rhsMax =  -1.05472199187780E+02  1.39767400970221E+00
(PID.TID 0000.0001)  ploadbar=  1.01084639074048E+05
 cg2d: Sum(rhs),rhsMax =  -1.06128391093992E+02  1.38884620695365E+00
(PID.TID 0000.0001)  ploadbar=  1.01086303134089E+05
 cg2d: Sum(rhs),rhsMax =  -1.06925960901113E+02  1.37832863853905E+00
(PID.TID 0000.0001)  ploadbar=  1.01087967194131E+05
 cg2d: Sum(rhs),rhsMax =  -1.07762520368811E+02  1.36748441350370E+00
(PID.TID 0000.0001)  ploadbar=  1.01088369761869E+05
 cg2d: Sum(rhs),rhsMax =  -1.08611056624072E+02  1.35666269860368E+00
(PID.TID 0000.0001)  ploadbar=  1.01088772329607E+05
 cg2d: Sum(rhs),rhsMax =  -1.09408251322472E+02  1.34664312867807E+00
(PID.TID 0000.0001)  ploadbar=  1.01089174897345E+05
 cg2d: Sum(rhs),rhsMax =  -1.10158856328947E+02  1.33733696904929E+00
(PID.TID 0000.0001)  ploadbar=  1.01089577465083E+05
 cg2d: Sum(rhs),rhsMax =  -1.10899132390917E+02  1.32828085931294E+00
(PID.TID 0000.0001)  ploadbar=  1.01089980032821E+05
 cg2d: Sum(rhs),rhsMax =  -1.11626773510900E+02  1.31949155749774E+00
(PID.TID 0000.0001)  ploadbar=  1.01090382600559E+05
 cg2d: Sum(rhs),rhsMax =  -1.12386524170590E+02  1.31045460606434E+00
(PID.TID 0000.0001)  ploadbar=  1.01092457940766E+05
 cg2d: Sum(rhs),rhsMax =  -1.13142807889218E+02  1.30158602744639E+00
(PID.TID 0000.0001)  ploadbar=  1.01094533280974E+05
 cg2d: Sum(rhs),rhsMax =  -1.13863918086333E+02  1.29323799756520E+00
(PID.TID 0000.0001)  ploadbar=  1.01096608621181E+05
 cg2d: Sum(rhs),rhsMax =  -1.14541566243748E+02  1.28548519774213E+00
(PID.TID 0000.0001)  ploadbar=  1.01098683961388E+05
 cg2d: Sum(rhs),rhsMax =  -1.14428507134162E+02  1.28665360932101E+00
(PID.TID 0000.0001)  ploadbar=  1.01100759301596E+05
 cg2d: Sum(rhs),rhsMax =  -1.11561930746520E+02  1.31960429955839E+00
(PID.TID 0000.0001)  ploadbar=  1.01102834641803E+05
 cg2d: Sum(rhs),rhsMax =  -1.08923424724135E+02  1.35143689894774E+00
(PID.TID 0000.0001)  ploadbar=  1.01102890618569E+05
 cg2d: Sum(rhs),rhsMax =  -1.06532374858447E+02  1.38160664128715E+00
(PID.TID 0000.0001)  ploadbar=  1.01102946595334E+05
 cg2d: Sum(rhs),rhsMax =  -1.04466452073239E+02  1.40873354579998E+00
(PID.TID 0000.0001)  ploadbar=  1.01103002572099E+05
 cg2d: Sum(rhs),rhsMax =  -1.02725686956948E+02  1.43237281891005E+00
(PID.TID 0000.0001)  ploadbar=  1.01103058548864E+05
 cg2d: Sum(rhs),rhsMax =  -1.01294172394063E+02  1.45234360084029E+00
(PID.TID 0000.0001)  ploadbar=  1.01103114525630E+05
 cg2d: Sum(rhs),rhsMax =  -1.00123948175185E+02  1.46900501884658E+00
(PID.TID 0000.0001)  ploadbar=  1.01103170502395E+05
 cg2d: Sum(rhs),rhsMax =  -9.92897902473124E+01  1.48107916707510E+00
(PID.TID 0000.0001)  ploadbar=  1.01103544903756E+05
 cg2d: Sum(rhs),rhsMax =  -9.86797921041769E+01  1.49000424248781E+00
(PID.TID 0000.0001)  ploadbar=  1.01103919305116E+05
 cg2d: Sum(rhs),rhsMax =  -9.83231947112714E+01  1.49521043945761E+00
(PID.TID 0000.0001)  ploadbar=  1.01104293706477E+05
 cg2d: Sum(rhs),rhsMax =  -9.81681347131369E+01  1.49740568599996E+00
(PID.TID 0000.0001)  ploadbar=  1.01104668107838E+05
 cg2d: Sum(rhs),rhsMax =  -9.81650614971168E+01  1.49731402807898E+00
(PID.TID 0000.0001)  ploadbar=  1.01105042509198E+05
 cg2d: Sum(rhs),rhsMax =  -9.82518351960035E+01  1.49587903178784E+00
(PID.TID 0000.0001)  ploadbar=  1.01105416910559E+05
 cg2d: Sum(rhs),rhsMax =  -9.85328140486677E+01  1.49150349494761E+00
(PID.TID 0000.0001)  ploadbar=  1.01105568663324E+05
 cg2d: Sum(rhs),rhsMax =  -9.90656227367897E+01  1.48336754116067E+00
(PID.TID 0000.0001)  ploadbar=  1.01105720416089E+05
 cg2d: Sum(rhs),rhsMax =  -9.98159081060656E+01  1.47209632136034E+00
(PID.TID 0000.0001)  ploadbar=  1.01105872168854E+05
 cg2d: Sum(rhs),rhsMax =  -1.00780330638228E+02  1.45787837321402E+00
(PID.TID 0000.0001)  ploadbar=  1.01106023921619E+05
 cg2d: Sum(rhs),rhsMax =  -1.01964037607855E+02  1.44081148898424E+00
(PID.TID 0000.0001)  ploadbar=  1.01106175674384E+05
 cg2d: Sum(rhs),rhsMax =  -1.03348979816547E+02  1.42134909588043E+00
(PID.TID 0000.0001)  ploadbar=  1.01106327427149E+05
 cg2d: Sum(rhs),rhsMax =  -1.04923626692654E+02  1.39987221598769E+00
(PID.TID 0000.0001)  ploadbar=  1.01104888624172E+05
 cg2d: Sum(rhs),rhsMax =  -1.06687863468232E+02  1.37658218564881E+00
(PID.TID 0000.0001)  ploadbar=  1.01103449821195E+05
 cg2d: Sum(rhs),rhsMax =  -1.08637463293274E+02  1.35174022076900E+00
(PID.TID 0000.0001)  ploadbar=  1.01102011018218E+05
 cg2d: Sum(rhs),rhsMax =  -1.10773839709056E+02  1.32553241657336E+00
(PID.TID 0000.0001)  ploadbar=  1.01100572215241E+05
 cg2d: Sum(rhs),rhsMax =  -1.13098120079120E+02  1.29814645248262E+00
(PID.TID 0000.0001)  ploadbar=  1.01099133412264E+05
 cg2d: Sum(rhs),rhsMax =  -1.15606883339379E+02  1.26981773354558E+00
(PID.TID 0000.0001)  ploadbar=  1.01097694609287E+05
 cg2d: Sum(rhs),rhsMax =  -1.18204485562254E+02  1.24175552554665E+00
(PID.TID 0000.0001)  ploadbar=  1.01097200519244E+05
 cg2d: Sum(rhs),rhsMax =  -1.20389021967160E+02  1.21906122430277E+00
(PID.TID 0000.0001)  ploadbar=  1.01096706429201E+05
 cg2d: Sum(rhs),rhsMax =  -1.22322209675126E+02  1.19962494027143E+00
(PID.TID 0000.0001)  ploadbar=  1.01096212339158E+05
 cg2d: Sum(rhs),rhsMax =  -1.22420786724238E+02  1.19847543316425E+00
(PID.TID 0000.0001)  ploadbar=  1.01095718249115E+05
 cg2d: Sum(rhs),rhsMax =  -1.21884360382730E+02  1.20354945759069E+00
(PID.TID 0000.0001)  ploadbar=  1.01095224159073E+05
 cg2d: Sum(rhs),rhsMax =  -1.20877555026140E+02  1.21335278466110E+00
(PID.TID 0000.0001)  ploadbar=  1.01094730069030E+05
 cg2d: Sum(rhs),rhsMax =  -1.20008647867312E+02  1.22195685413282E+00
(PID.TID 0000.0001)  ploadbar=  1.01094464128534E+05
 cg2d: Sum(rhs),rhsMax =  -1.19195833064144E+02  1.23013882362803E+00
(PID.TID 0000.0001)  ploadbar=  1.01094198188038E+05
 cg2d: Sum(rhs),rhsMax =  -1.18495145784477E+02  1.23728731170396E+00
(PID.TID 0000.0001)  ploadbar=  1.01093932247542E+05
 cg2d: Sum(rhs),rhsMax =  -1.17947957177266E+02  1.24292334120753E+00
(PID.TID 0000.0001)  ploadbar=  1.01093666307047E+05
 cg2d: Sum(rhs),rhsMax =  -1.17569125936283E+02  1.24684490542212E+00
(PID.TID 0000.0001)  ploadbar=  1.01093400366551E+05
 cg2d: Sum(rhs),rhsMax =  -1.17616661959229E+02  1.24627829328365E+00
(PID.TID 0000.0001)  ploadbar=  1.01093134426055E+05
 cg2d: Sum(rhs),rhsMax =  -1.17918731312629E+02  1.24301483171425E+00
(PID.TID 0000.0001)  ploadbar=  1.01092087910628E+05
 cg2d: Sum(rhs),rhsMax =  -1.18410426487192E+02  1.23776896007138E+00
(PID.TID 0000.0001)  ploadbar=  1.01091041395200E+05
 cg2d: Sum(rhs),rhsMax =  -1.19190393184185E+02  1.22957046711463E+00
(PID.TID 0000.0001)  ploadbar=  1.01089994879773E+05
 cg2d: Sum(rhs),rhsMax =  -1.20257249424941E+02  1.21854865553858E+00
(PID.TID 0000.0001)  ploadbar=  1.01088948364346E+05
 cg2d: Sum(rhs),rhsMax =  -1.21581782157307E+02  1.20514467794979E+00
(PID.TID 0000.0001)  ploadbar=  1.01087901848918E+05
 cg2d: Sum(rhs),rhsMax =  -1.23175317621553E+02  1.18940693017876E+00
(PID.TID 0000.0001)  ploadbar=  1.01086855333491E+05
 cg2d: Sum(rhs),rhsMax =  -1.25362161353893E+02  1.16853983115970E+00
(PID.TID 0000.0001)  ploadbar=  1.01086152259401E+05
 cg2d: Sum(rhs),rhsMax =  -1.26232922102967E+02  1.16038048576901E+00
(PID.TID 0000.0001)  ploadbar=  1.01085449185310E+05
 cg2d: Sum(rhs),rhsMax =  -1.26746826540617E+02  1.15559022152084E+00
(PID.TID 0000.0001)  ploadbar=  1.01084746111220E+05
 cg2d: Sum(rhs),rhsMax =  -1.27241902393556E+02  1.15101956315793E+00
(PID.TID 0000.0001)  ploadbar=  1.01084043037130E+05
 cg2d: Sum(rhs),rhsMax =  -1.27705289941942E+02  1.14677739361126E+00
(PID.TID 0000.0001)  ploadbar=  1.01083339963040E+05
 cg2d: Sum(rhs),rhsMax =  -1.28135301212158E+02  1.14286804169724E+00
(PID.TID 0000.0001)  ploadbar=  1.01082636888949E+05
 cg2d: Sum(rhs),rhsMax =  -1.28574217962992E+02  1.13890171538803E+00
(PID.TID 0000.0001)  ploadbar=  1.01082141762511E+05
 cg2d: Sum(rhs),rhsMax =  -1.28988674013095E+02  1.13516908857394E+00
(PID.TID 0000.0001)  ploadbar=  1.01081646636072E+05
 cg2d: Sum(rhs),rhsMax =  -1.29358425371182E+02  1.13183797313002E+00
(PID.TID 0000.0001)  ploadbar=  1.01081151509633E+05
 cg2d: Sum(rhs),rhsMax =  -1.29702686708342E+02  1.12873257548203E+00
(PID.TID 0000.0001)  ploadbar=  1.01080656383194E+05
 cg2d: Sum(rhs),rhsMax =  -1.30013739213962E+02  1.12591138688375E+00
(PID.TID 0000.0001)  ploadbar=  1.01080161256755E+05
 cg2d: Sum(rhs),rhsMax =  -1.30287587299714E+02  1.12340095824021E+00
(PID.TID 0000.0001)  ploadbar=  1.01079666130316E+05
 cg2d: Sum(rhs),rhsMax =  -1.30574612379147E+02  1.12082439954094E+00
(PID.TID 0000.0001)  ploadbar=  1.01080247046265E+05
 cg2d: Sum(rhs),rhsMax =  -1.30845489444967E+02  1.11842437679933E+00
(PID.TID 0000.0001)  ploadbar=  1.01080827962213E+05
 cg2d: Sum(rhs),rhsMax =  -1.31074286730461E+02  1.11641415528316E+00
(PID.TID 0000.0001)  ploadbar=  1.01081408878162E+05
 cg2d: Sum(rhs),rhsMax =  -1.31284390036339E+02  1.11458801211173E+00
(PID.TID 0000.0001)  ploadbar=  1.01081989794110E+05
 cg2d: Sum(rhs),rhsMax =  -1.31483995302373E+02  1.11287386075490E+00
(PID.TID 0000.0001)  ploadbar=  1.01082570710059E+05
 cg2d: Sum(rhs),rhsMax =  -1.31678212986911E+02  1.11122792168304E+00
(PID.TID 0000.0001)  ploadbar=  1.01083151626007E+05
 cg2d: Sum(rhs),rhsMax =  -1.31820051122363E+02  1.11003204259247E+00
(PID.TID 0000.0001)  ploadbar=  1.01083746491382E+05
 cg2d: Sum(rhs),rhsMax =  -1.32010560441987E+02  1.10842995918071E+00
(PID.TID 0000.0001)  ploadbar=  1.01084341356756E+05
 cg2d: Sum(rhs),rhsMax =  -1.32250577886586E+02  1.10641599994480E+00
(PID.TID 0000.0001)  ploadbar=  1.01084936222130E+05
 cg2d: Sum(rhs),rhsMax =  -1.27355432079179E+02  1.14893635735172E+00
(PID.TID 0000.0001)  ploadbar=  1.01085531087504E+05
 cg2d: Sum(rhs),rhsMax =  -1.18675842868907E+02  1.23294747595866E+00
(PID.TID 0000.0001)  ploadbar=  1.01086125952878E+05
 cg2d: Sum(rhs),rhsMax =  -1.08860764718304E+02  1.34407314219378E+00
(PID.TID 0000.0001)  ploadbar=  1.01086720818252E+05
 cg2d: Sum(rhs),rhsMax =  -1.00952436600064E+02  1.44932754223920E+00
(PID.TID 0000.0001)  ploadbar=  1.01086936905711E+05
 cg2d: Sum(rhs),rhsMax =  -9.43052398853958E+01  1.55144589076481E+00
(PID.TID 0000.0001)  ploadbar=  1.01087152993169E+05
 cg2d: Sum(rhs),rhsMax =  -8.87635355762701E+01  1.64826447203816E+00
(PID.TID 0000.0001)  ploadbar=  1.01087369080627E+05
 cg2d: Sum(rhs),rhsMax =  -8.43891087161147E+01  1.73366119081149E+00
(PID.TID 0000.0001)  ploadbar=  1.01087585168085E+05
 cg2d: Sum(rhs),rhsMax =  -8.11060124573357E+01  1.80379394729961E+00
(PID.TID 0000.0001)  ploadbar=  1.01087801255544E+05
 cg2d: Sum(rhs),rhsMax =  -7.86042898547401E+01  1.86115592526648E+00
(PID.TID 0000.0001)  ploadbar=  1.01088017343002E+05
 cg2d: Sum(rhs),rhsMax =  -7.67725756741102E+01  1.90550036736206E+00
(PID.TID 0000.0001)  ploadbar=  1.01089048266768E+05
 cg2d: Sum(rhs),rhsMax =  -7.53664733899813E+01  1.94096884399147E+00
(PID.TID 0000.0001)  ploadbar=  1.01090079190534E+05
 cg2d: Sum(rhs),rhsMax =  -7.42483015224371E+01  1.97009141460239E+00
(PID.TID 0000.0001)  ploadbar=  1.01091110114300E+05
 cg2d: Sum(rhs),rhsMax =  -7.33962700868225E+01  1.99282003191476E+00
(PID.TID 0000.0001)  ploadbar=  1.01092141038066E+05
 cg2d: Sum(rhs),rhsMax =  -7.28192413071675E+01  2.00842954998922E+00
(PID.TID 0000.0001)  ploadbar=  1.01093171961832E+05
 cg2d: Sum(rhs),rhsMax =  -7.25711270406055E+01  2.01506788176067E+00
(PID.TID 0000.0001)  ploadbar=  1.01094202885598E+05
 cg2d: Sum(rhs),rhsMax =  -7.24916764226200E+01  2.01710695513714E+00
(PID.TID 0000.0001)  ploadbar=  1.01095507053321E+05
 cg2d: Sum(rhs),rhsMax =  -7.26008904969777E+01  2.01394861241167E+00
(PID.TID 0000.0001)  ploadbar=  1.01096811221043E+05
 cg2d: Sum(rhs),rhsMax =  -7.29088060524611E+01  2.00535561041200E+00
(PID.TID 0000.0001)  ploadbar=  1.01098115388765E+05
 cg2d: Sum(rhs),rhsMax =  -7.34935334776642E+01  1.98934607498535E+00
(PID.TID 0000.0001)  ploadbar=  1.01099419556487E+05
 cg2d: Sum(rhs),rhsMax =  -7.43845648889595E+01  1.96549196001722E+00
(PID.TID 0000.0001)  ploadbar=  1.01100723724210E+05
 cg2d: Sum(rhs),rhsMax =  -7.52647870151343E+01  1.94251194991952E+00
(PID.TID 0000.0001)  ploadbar=  1.01102027891932E+05
 cg2d: Sum(rhs),rhsMax =  -7.61091421188767E+01  1.92098455416916E+00
(PID.TID 0000.0001)  ploadbar=  1.01102211716343E+05
 cg2d: Sum(rhs),rhsMax =  -7.69299893616134E+01  1.90051899003423E+00
(PID.TID 0000.0001)  ploadbar=  1.01102395540753E+05
 cg2d: Sum(rhs),rhsMax =  -7.76896885140281E+01  1.88197065440287E+00
(PID.TID 0000.0001)  ploadbar=  1.01102579365164E+05
 cg2d: Sum(rhs),rhsMax =  -7.82348741219346E+01  1.86889270545425E+00
(PID.TID 0000.0001)  ploadbar=  1.01102763189575E+05
 cg2d: Sum(rhs),rhsMax =  -7.84453890322097E+01  1.86390230921219E+00
(PID.TID 0000.0001)  ploadbar=  1.01102947013985E+05
 cg2d: Sum(rhs),rhsMax =  -7.83724603742608E+01  1.86563168455537E+00
(PID.TID 0000.0001)  ploadbar=  1.01103130838396E+05
 cg2d: Sum(rhs),rhsMax =  -7.79289782909098E+01  1.87626074219130E+00
(PID.TID 0000.0001)  ploadbar=  1.01103085610394E+05
 cg2d: Sum(rhs),rhsMax =  -7.72496699393707E+01  1.89278240777539E+00
(PID.TID 0000.0001)  ploadbar=  1.01103040382392E+05
 cg2d: Sum(rhs),rhsMax =  -7.63978494022671E+01  1.91391660691823E+00
(PID.TID 0000.0001)  ploadbar=  1.01102995154389E+05
 cg2d: Sum(rhs),rhsMax =  -7.53933668405498E+01  1.93944935598073E+00
(PID.TID 0000.0001)  ploadbar=  1.01102949926387E+05
 cg2d: Sum(rhs),rhsMax =  -7.41874131984009E+01  1.97100756467414E+00
(PID.TID 0000.0001)  ploadbar=  1.01102904698385E+05
 cg2d: Sum(rhs),rhsMax =  -7.27872454252696E+01  2.00894395730771E+00
(PID.TID 0000.0001)  ploadbar=  1.01102859470383E+05
 cg2d: Sum(rhs),rhsMax =  -7.10545853203770E+01  2.05797678645267E+00
(PID.TID 0000.0001)  ploadbar=  1.01103357440469E+05
 cg2d: Sum(rhs),rhsMax =  -6.89768413091480E+01  2.12003061317798E+00
(PID.TID 0000.0001)  ploadbar=  1.01103855410554E+05
 cg2d: Sum(rhs),rhsMax =  -6.65522806291873E+01  2.19733825443859E+00
(PID.TID 0000.0001)  ploadbar=  1.01104353380640E+05
 cg2d: Sum(rhs),rhsMax =  -6.38751696919277E+01  2.28950923246543E+00
(PID.TID 0000.0001)  ploadbar=  1.01104851350725E+05
 cg2d: Sum(rhs),rhsMax =  -6.13930769360854E+01  2.38214738374248E+00
(PID.TID 0000.0001)  ploadbar=  1.01105349320811E+05
 cg2d: Sum(rhs),rhsMax =  -5.92813694426991E+01  2.46706797044234E+00
(PID.TID 0000.0001)  ploadbar=  1.01105847290896E+05
 cg2d: Sum(rhs),rhsMax =  -5.73846652714385E+01  2.54873881817253E+00
(PID.TID 0000.0001)  ploadbar=  1.01105635493592E+05
 cg2d: Sum(rhs),rhsMax =  -5.55335980794246E+01  2.63386931848357E+00
(PID.TID 0000.0001)  ploadbar=  1.01105423696287E+05
 cg2d: Sum(rhs),rhsMax =  -5.37192201812821E+01  2.72305162532411E+00
(PID.TID 0000.0001)  ploadbar=  1.01105211898983E+05
 cg2d: Sum(rhs),rhsMax =  -5.21566453715617E+01  2.80490382613470E+00
(PID.TID 0000.0001)  ploadbar=  1.01105000101678E+05
 cg2d: Sum(rhs),rhsMax =  -5.11255720439903E+01  2.86180260763414E+00
(PID.TID 0000.0001)  ploadbar=  1.01104788304374E+05
 cg2d: Sum(rhs),rhsMax =  -5.01433908897225E+01  2.91825566768163E+00
(PID.TID 0000.0001)  ploadbar=  1.01104576507069E+05
 cg2d: Sum(rhs),rhsMax =  -4.92004794556423E+01  2.97455231858278E+00
(PID.TID 0000.0001)  ploadbar=  1.01104022299264E+05
 cg2d: Sum(rhs),rhsMax =  -4.82961640542108E+01  3.03055874685741E+00
(PID.TID 0000.0001)  ploadbar=  1.01103468091459E+05
 cg2d: Sum(rhs),rhsMax =  -4.74369417989440E+01  3.08568150867500E+00
(PID.TID 0000.0001)  ploadbar=  1.01102913883654E+05
 cg2d: Sum(rhs),rhsMax =  -4.66242063316738E+01  3.13961096458547E+00
(PID.TID 0000.0001)  ploadbar=  1.01102359675849E+05
 cg2d: Sum(rhs),rhsMax =  -4.58477851444116E+01  3.19280782045551E+00
(PID.TID 0000.0001)  ploadbar=  1.01101805468043E+05
 cg2d: Sum(rhs),rhsMax =  -4.50938329580511E+01  3.24609381072353E+00
(PID.TID 0000.0001)  ploadbar=  1.01101251260238E+05
 cg2d: Sum(rhs),rhsMax =  -4.43850171649383E+01  3.29786246504560E+00
(PID.TID 0000.0001)  ploadbar=  1.01101508482923E+05
 cg2d: Sum(rhs),rhsMax =  -4.37118072404571E+01  3.34859143254754E+00
(PID.TID 0000.0001)  ploadbar=  1.01101765705607E+05
 cg2d: Sum(rhs),rhsMax =  -4.30820577761208E+01  3.39747683866990E+00
(PID.TID 0000.0001)  ploadbar=  1.01102022928292E+05
 cg2d: Sum(rhs),rhsMax =  -4.25036482610295E+01  3.44364748650259E+00
(PID.TID 0000.0001)  ploadbar=  1.01102280150977E+05
 cg2d: Sum(rhs),rhsMax =  -4.19934087167124E+01  3.48541561910108E+00
(PID.TID 0000.0001)  ploadbar=  1.01102537373661E+05
 cg2d: Sum(rhs),rhsMax =  -4.15500871589891E+01  3.52250791520384E+00
(PID.TID 0000.0001)  ploadbar=  1.01102794596346E+05
 cg2d: Sum(rhs),rhsMax =  -4.11676144363222E+01  3.55511657262016E+00
(PID.TID 0000.0001)  ploadbar=  1.01101603175734E+05
 cg2d: Sum(rhs),rhsMax =  -4.08420708817726E+01  3.58330427228723E+00
(PID.TID 0000.0001)  ploadbar=  1.01100411755121E+05
 cg2d: Sum(rhs),rhsMax =  -4.05696168868317E+01  3.60717653683941E+00
(PID.TID 0000.0001)  ploadbar=  1.01099220334509E+05
 cg2d: Sum(rhs),rhsMax =  -4.03462379756014E+01  3.62689948330345E+00
(PID.TID 0000.0001)  ploadbar=  1.01098028913896E+05
 cg2d: Sum(rhs),rhsMax =  -4.01758156714154E+01  3.64196549660891E+00
(PID.TID 0000.0001)  ploadbar=  1.01096837493284E+05
 cg2d: Sum(rhs),rhsMax =  -4.00907992197487E+01  3.64929139617306E+00
(PID.TID 0000.0001)  ploadbar=  1.01095646072671E+05
 cg2d: Sum(rhs),rhsMax =  -4.00527626749896E+01  3.65247763554465E+00
(PID.TID 0000.0001)  ploadbar=  1.01095405107830E+05
 cg2d: Sum(rhs),rhsMax =  -4.00382650164311E+01  3.65361453131433E+00
(PID.TID 0000.0001)  ploadbar=  1.01095164142988E+05
 cg2d: Sum(rhs),rhsMax =  -4.00445534745293E+01  3.65293329481403E+00
(PID.TID 0000.0001)  ploadbar=  1.01094923178147E+05
 cg2d: Sum(rhs),rhsMax =  -4.00787037655846E+01  3.64978368623716E+00
(PID.TID 0000.0001)  ploadbar=  1.01094682213305E+05
 cg2d: Sum(rhs),rhsMax =  -4.01362343195570E+01  3.64458085804453E+00
(PID.TID 0000.0001)  ploadbar=  1.01094441248463E+05
 cg2d: Sum(rhs),rhsMax =  -4.02027744991650E+01  3.63865374496863E+00
(PID.TID 0000.0001)  ploadbar=  1.01094200283622E+05
 cg2d: Sum(rhs),rhsMax =  -4.02868447160791E+01  3.63116236688240E+00
(PID.TID 0000.0001)  ploadbar=  1.01092317698985E+05
 cg2d: Sum(rhs),rhsMax =  -4.06359784005885E+01  3.60002108666658E+00
(PID.TID 0000.0001)  ploadbar=  1.01090435114349E+05
 cg2d: Sum(rhs),rhsMax =  -4.12256349816034E+01  3.54853158927612E+00
(PID.TID 0000.0001)  ploadbar=  1.01088552529712E+05
 cg2d: Sum(rhs),rhsMax =  -4.20237566818947E+01  3.48109128548262E+00
(PID.TID 0000.0001)  ploadbar=  1.01086669945075E+05
 cg2d: Sum(rhs),rhsMax =  -4.31449136541884E+01  3.39053626508556E+00
(PID.TID 0000.0001)  ploadbar=  1.01084787360439E+05
 cg2d: Sum(rhs),rhsMax =  -4.43625549611104E+01  3.29732564761048E+00
(PID.TID 0000.0001)  ploadbar=  1.01082904775802E+05
 cg2d: Sum(rhs),rhsMax =  -4.50489994859743E+01  3.24694470597461E+00
(PID.TID 0000.0001)  ploadbar=  1.01080933697335E+05
 cg2d: Sum(rhs),rhsMax =  -4.57436408696591E+01  3.19749387610464E+00
(PID.TID 0000.0001)  ploadbar=  1.01078962618868E+05
 cg2d: Sum(rhs),rhsMax =  -4.64013505748421E+01  3.15201515809985E+00
(PID.TID 0000.0001)  ploadbar=  1.01076991540400E+05
 cg2d: Sum(rhs),rhsMax =  -4.70021370797229E+01  3.11155057069008E+00
(PID.TID 0000.0001)  ploadbar=  1.01075020461933E+05
 cg2d: Sum(rhs),rhsMax =  -4.75386374454351E+01  3.07622772110079E+00
(PID.TID 0000.0001)  ploadbar=  1.01073049383465E+05
 cg2d: Sum(rhs),rhsMax =  -4.80093822321329E+01  3.04580643507334E+00
(PID.TID 0000.0001)  ploadbar=  1.01071078304998E+05
 cg2d: Sum(rhs),rhsMax =  -4.84227780481045E+01  3.01953224392764E+00
(PID.TID 0000.0001)  ploadbar=  1.01069680016471E+05
 cg2d: Sum(rhs),rhsMax =  -4.88040298830017E+01  2.99564731504785E+00
(PID.TID 0000.0001)  ploadbar=  1.01068281727943E+05
 cg2d: Sum(rhs),rhsMax =  -4.91538619422603E+01  2.97399716586228E+00
(PID.TID 0000.0001)  ploadbar=  1.01066883439416E+05
 cg2d: Sum(rhs),rhsMax =  -4.94742074926449E+01  2.95437419434312E+00
(PID.TID 0000.0001)  ploadbar=  1.01065485150889E+05
 cg2d: Sum(rhs),rhsMax =  -4.97691386647718E+01  2.93645892494352E+00
(PID.TID 0000.0001)  ploadbar=  1.01064086862361E+05
 cg2d: Sum(rhs),rhsMax =  -5.00381552923193E+01  2.92021982927615E+00
(PID.TID 0000.0001)  ploadbar=  1.01062688573834E+05
 cg2d: Sum(rhs),rhsMax =  -5.03281310756039E+01  2.90305004953140E+00
(PID.TID 0000.0001)  ploadbar=  1.01061131135178E+05
 cg2d: Sum(rhs),rhsMax =  -5.06590458982307E+01  2.88381407122964E+00
(PID.TID 0000.0001)  ploadbar=  1.01059573696522E+05
 cg2d: Sum(rhs),rhsMax =  -5.10333113999399E+01  2.86244852416214E+00
(PID.TID 0000.0001)  ploadbar=  1.01058016257866E+05
 cg2d: Sum(rhs),rhsMax =  -5.14451555424256E+01  2.83935996310011E+00
(PID.TID 0000.0001)  ploadbar=  1.01056458819210E+05
 cg2d: Sum(rhs),rhsMax =  -5.18917896394687E+01  2.81478444393897E+00
(PID.TID 0000.0001)  ploadbar=  1.01054901380554E+05
 cg2d: Sum(rhs),rhsMax =  -5.23739363499491E+01  2.78876802570584E+00
(PID.TID 0000.0001)  ploadbar=  1.01053343941898E+05
 cg2d: Sum(rhs),rhsMax =  -5.28898823948394E+01  2.76146010051075E+00
(PID.TID 0000.0001)  ploadbar=  1.01052850953448E+05
 cg2d: Sum(rhs),rhsMax =  -5.34532966659996E+01  2.73223504280203E+00
(PID.TID 0000.0001)  ploadbar=  1.01052357964998E+05
 cg2d: Sum(rhs),rhsMax =  -5.40887928865059E+01  2.69999328535116E+00
(PID.TID 0000.0001)  ploadbar=  1.01051864976549E+05
 cg2d: Sum(rhs),rhsMax =  -5.48067237922220E+01  2.66445768865875E+00
(PID.TID 0000.0001)  ploadbar=  1.01051371988099E+05
 cg2d: Sum(rhs),rhsMax =  -5.56128274304356E+01  2.62563132204692E+00
(PID.TID 0000.0001)  ploadbar=  1.01050878999649E+05
 cg2d: Sum(rhs),rhsMax =  -5.65085976023780E+01  2.58375716888890E+00
(PID.TID 0000.0001)  ploadbar=  1.01050386011199E+05
 cg2d: Sum(rhs),rhsMax =  -5.75062404974469E+01  2.53872403346772E+00
(PID.TID 0000.0001)  ploadbar=  1.01049376001530E+05
 cg2d: Sum(rhs),rhsMax =  -5.85899876539115E+01  2.49158631665396E+00
(PID.TID 0000.0001)  ploadbar=  1.01048365991861E+05
 cg2d: Sum(rhs),rhsMax =  -5.97562919007619E+01  2.44279837262292E+00
(PID.TID 0000.0001)  ploadbar=  1.01047355982192E+05
 cg2d: Sum(rhs),rhsMax =  -6.10007402925671E+01  2.39282014275432E+00
(PID.TID 0000.0001)  ploadbar=  1.01046345972523E+05
 cg2d: Sum(rhs),rhsMax =  -6.23135700083129E+01  2.34226335946874E+00
(PID.TID 0000.0001)  ploadbar=  1.01045335962854E+05
 cg2d: Sum(rhs),rhsMax =  -6.36921573171315E+01  2.29140263975443E+00
(PID.TID 0000.0001)  ploadbar=  1.01044325953185E+05
 cg2d: Sum(rhs),rhsMax =  -6.50647304498893E+01  2.24289925667891E+00
(PID.TID 0000.0001)  ploadbar=  1.01044375167352E+05
 cg2d: Sum(rhs),rhsMax =  -6.63670444598212E+01  2.19871035905962E+00
(PID.TID 0000.0001)  ploadbar=  1.01044424381518E+05
 cg2d: Sum(rhs),rhsMax =  -6.75120834482712E+01  2.16122046978184E+00
(PID.TID 0000.0001)  ploadbar=  1.01044473595685E+05
 cg2d: Sum(rhs),rhsMax =  -6.84741156370061E+01  2.13062584880486E+00
(PID.TID 0000.0001)  ploadbar=  1.01044522809852E+05
 cg2d: Sum(rhs),rhsMax =  -6.92727661380954E+01  2.10579435771543E+00
(PID.TID 0000.0001)  ploadbar=  1.01044572024018E+05
 cg2d: Sum(rhs),rhsMax =  -6.99468723411308E+01  2.08519162796112E+00
(PID.TID 0000.0001)  ploadbar=  1.01044621238185E+05
 cg2d: Sum(rhs),rhsMax =  -7.06139713599813E+01  2.06528502030012E+00
(PID.TID 0000.0001)  ploadbar=  1.01044958477107E+05
 cg2d: Sum(rhs),rhsMax =  -7.13373991057113E+01  2.04420664571416E+00
(PID.TID 0000.0001)  ploadbar=  1.01045295716029E+05
 cg2d: Sum(rhs),rhsMax =  -7.21199754947421E+01  2.02195109568437E+00
(PID.TID 0000.0001)  ploadbar=  1.01045632954951E+05
 cg2d: Sum(rhs),rhsMax =  -7.29674335361696E+01  1.99844273011301E+00
(PID.TID 0000.0001)  ploadbar=  1.01045970193874E+05
 cg2d: Sum(rhs),rhsMax =  -7.38512785547720E+01  1.97454179255420E+00
(PID.TID 0000.0001)  ploadbar=  1.01046307432796E+05
 cg2d: Sum(rhs),rhsMax =  -7.47573943990216E+01  1.95066832682372E+00
(PID.TID 0000.0001)  ploadbar=  1.01046644671718E+05
 cg2d: Sum(rhs),rhsMax =  -7.57878913138875E+01  1.92416604932504E+00
(PID.TID 0000.0001)  ploadbar=  1.01047837092339E+05
 cg2d: Sum(rhs),rhsMax =  -7.70534248527351E+01  1.89253025623007E+00
(PID.TID 0000.0001)  ploadbar=  1.01049029512959E+05
 cg2d: Sum(rhs),rhsMax =  -7.83922834432846E+01  1.86012413678359E+00
(PID.TID 0000.0001)  ploadbar=  1.01050221933580E+05
 cg2d: Sum(rhs),rhsMax =  -7.83360419028099E+01  1.86132345986510E+00
(PID.TID 0000.0001)  ploadbar=  1.01051414354200E+05
 cg2d: Sum(rhs),rhsMax =  -7.83214412463233E+01  1.86147583859269E+00
(PID.TID 0000.0001)  ploadbar=  1.01052606774821E+05
 cg2d: Sum(rhs),rhsMax =  -7.83372060416809E+01  1.86083762315287E+00
(PID.TID 0000.0001)  ploadbar=  1.01053799195441E+05
 cg2d: Sum(rhs),rhsMax =  -7.84044727875979E+01  1.85899605009159E+00
(PID.TID 0000.0001)  ploadbar=  1.01054367768320E+05
 cg2d: Sum(rhs),rhsMax =  -7.84906526333803E+01  1.85672124386860E+00
(PID.TID 0000.0001)  ploadbar=  1.01054936341199E+05
 cg2d: Sum(rhs),rhsMax =  -7.85869245788632E+01  1.85421847392186E+00
(PID.TID 0000.0001)  ploadbar=  1.01055504914078E+05
 cg2d: Sum(rhs),rhsMax =  -7.86815581007291E+01  1.85175844685278E+00
(PID.TID 0000.0001)  ploadbar=  1.01056073486957E+05
 cg2d: Sum(rhs),rhsMax =  -7.87652696343131E+01  1.84955115337887E+00
(PID.TID 0000.0001)  ploadbar=  1.01056642059836E+05
 cg2d: Sum(rhs),rhsMax =  -7.88505650639320E+01  1.84728758037030E+00
(PID.TID 0000.0001)  ploadbar=  1.01057210632715E+05
 cg2d: Sum(rhs),rhsMax =  -7.88933038507517E+01  1.84603094705714E+00
(PID.TID 0000.0001)  ploadbar=  1.01057925722987E+05
 cg2d: Sum(rhs),rhsMax =  -7.89248359218522E+01  1.84503223019020E+00
(PID.TID 0000.0001)  ploadbar=  1.01058640813258E+05
 cg2d: Sum(rhs),rhsMax =  -7.89571739496512E+01  1.84400152106028E+00
(PID.TID 0000.0001)  ploadbar=  1.01059355903529E+05
 cg2d: Sum(rhs),rhsMax =  -7.89903824526751E+01  1.84293289892285E+00
(PID.TID 0000.0001)  ploadbar=  1.01060070993800E+05
 cg2d: Sum(rhs),rhsMax =  -7.90253677811359E+01  1.84180168522294E+00
(PID.TID 0000.0001)  ploadbar=  1.01060786084071E+05
 cg2d: Sum(rhs),rhsMax =  -7.90592922540448E+01  1.84067157362467E+00
(PID.TID 0000.0001)  ploadbar=  1.01061501174342E+05
 cg2d: Sum(rhs),rhsMax =  -7.91051910114904E+01  1.83936627305199E+00
(PID.TID 0000.0001)  ploadbar=  1.01062763897719E+05
 cg2d: Sum(rhs),rhsMax =  -7.91600328271570E+01  1.83792829127362E+00
(PID.TID 0000.0001)  ploadbar=  1.01064026621096E+05
 cg2d: Sum(rhs),rhsMax =  -7.92244567024903E+01  1.83633131117905E+00
(PID.TID 0000.0001)  ploadbar=  1.01065289344474E+05
 cg2d: Sum(rhs),rhsMax =  -7.92914249595476E+01  1.83473307644482E+00
(PID.TID 0000.0001)  ploadbar=  1.01066552067851E+05
 cg2d: Sum(rhs),rhsMax =  -7.93461225368689E+01  1.83347001519784E+00
(PID.TID 0000.0001)  ploadbar=  1.01067814791228E+05
 cg2d: Sum(rhs),rhsMax =  -7.93885784396083E+01  1.83254081756549E+00
(PID.TID 0000.0001)  ploadbar=  1.01069077514605E+05
 cg2d: Sum(rhs),rhsMax =  -7.94214899493636E+01  1.83180776110525E+00
(PID.TID 0000.0001)  ploadbar=  1.01069568281169E+05
 cg2d: Sum(rhs),rhsMax =  -7.94553218466308E+01  1.83101839203838E+00
(PID.TID 0000.0001)  ploadbar=  1.01070059047733E+05
 cg2d: Sum(rhs),rhsMax =  -7.94809502804396E+01  1.83038223393245E+00
(PID.TID 0000.0001)  ploadbar=  1.01070549814297E+05
 cg2d: Sum(rhs),rhsMax =  -7.95042719331942E+01  1.82975928164968E+00
(PID.TID 0000.0001)  ploadbar=  1.01071040580861E+05
 cg2d: Sum(rhs),rhsMax =  -7.95294104855596E+01  1.82904994296689E+00
(PID.TID 0000.0001)  ploadbar=  1.01071531347425E+05
 cg2d: Sum(rhs),rhsMax =  -7.95567407054433E+01  1.82822967448279E+00
(PID.TID 0000.0001)  ploadbar=  1.01072022113989E+05
 cg2d: Sum(rhs),rhsMax =  -7.95969342661442E+01  1.82712315264324E+00
(PID.TID 0000.0001)  ploadbar=  1.01071307574006E+05
 cg2d: Sum(rhs),rhsMax =  -7.96468945566826E+01  1.82579111687032E+00
(PID.TID 0000.0001)  ploadbar=  1.01070593034022E+05
 cg2d: Sum(rhs),rhsMax =  -7.96899650043786E+01  1.82460479665070E+00
(PID.TID 0000.0001)  ploadbar=  1.01069878494039E+05
 cg2d: Sum(rhs),rhsMax =  -7.97290690729969E+01  1.82348931830435E+00
(PID.TID 0000.0001)  ploadbar=  1.01069163954056E+05
 cg2d: Sum(rhs),rhsMax =  -7.97645611173192E+01  1.82242425393448E+00
(PID.TID 0000.0001)  ploadbar=  1.01068449414072E+05
 cg2d: Sum(rhs),rhsMax =  -7.97918805511404E+01  1.82150422033957E+00
(PID.TID 0000.0001)  ploadbar=  1.01067734874089E+05
 cg2d: Sum(rhs),rhsMax =  -7.98147661154173E+01  1.82066995278156E+00
(PID.TID 0000.0001)  ploadbar=  1.01067195335303E+05
 cg2d: Sum(rhs),rhsMax =  -7.98215857648939E+01  1.82017628298480E+00
(PID.TID 0000.0001)  ploadbar=  1.01066655796518E+05
 cg2d: Sum(rhs),rhsMax =  -7.98163985312910E+01  1.81992093687483E+00
(PID.TID 0000.0001)  ploadbar=  1.01066116257732E+05
 cg2d: Sum(rhs),rhsMax =  -7.98036110658660E+01  1.81979821211964E+00
(PID.TID 0000.0001)  ploadbar=  1.01065576718946E+05
 cg2d: Sum(rhs),rhsMax =  -7.97885316518141E+01  1.81968323678743E+00
(PID.TID 0000.0001)  ploadbar=  1.01065037180161E+05
 cg2d: Sum(rhs),rhsMax =  -7.97748520678025E+01  1.81948838355137E+00
(PID.TID 0000.0001)  ploadbar=  1.01064497641375E+05
 cg2d: Sum(rhs),rhsMax =  -7.97874429259899E+01  1.81879799563919E+00
(PID.TID 0000.0001)  ploadbar=  1.01063545672679E+05
 cg2d: Sum(rhs),rhsMax =  -7.98020150157628E+01  1.81814638086037E+00
(PID.TID 0000.0001)  ploadbar=  1.01062593703983E+05
 cg2d: Sum(rhs),rhsMax =  -7.98153697872466E+01  1.81758375244319E+00
(PID.TID 0000.0001)  ploadbar=  1.01061641735286E+05
 cg2d: Sum(rhs),rhsMax =  -7.98304362485598E+01  1.81703226137066E+00
(PID.TID 0000.0001)  ploadbar=  1.01060689766590E+05
 cg2d: Sum(rhs),rhsMax =  -7.98393149017456E+01  1.81667074069466E+00
(PID.TID 0000.0001)  ploadbar=  1.01059737797894E+05
 cg2d: Sum(rhs),rhsMax =  -7.98464141434092E+01  1.81639437647593E+00
(PID.TID 0000.0001)  ploadbar=  1.01058785829197E+05
 cg2d: Sum(rhs),rhsMax =  -7.98306340602594E+01  1.81663980318544E+00
(PID.TID 0000.0001)  ploadbar=  1.01057181167340E+05
 cg2d: Sum(rhs),rhsMax =  -7.97994594905185E+01  1.81722690640376E+00
(PID.TID 0000.0001)  ploadbar=  1.01055576505482E+05
 cg2d: Sum(rhs),rhsMax =  -7.97604087099539E+01  1.81798546010175E+00
(PID.TID 0000.0001)  ploadbar=  1.01053971843624E+05
 cg2d: Sum(rhs),rhsMax =  -7.97158075344998E+01  1.81886505696664E+00
(PID.TID 0000.0001)  ploadbar=  1.01052367181766E+05
 cg2d: Sum(rhs),rhsMax =  -7.96826538703047E+01  1.81947520199243E+00
(PID.TID 0000.0001)  ploadbar=  1.01050762519908E+05
 cg2d: Sum(rhs),rhsMax =  -7.96674359230053E+01  1.81965526626552E+00
(PID.TID 0000.0001)  ploadbar=  1.01049157858051E+05
 cg2d: Sum(rhs),rhsMax =  -7.96473886723960E+01  1.81997468623397E+00
(PID.TID 0000.0001)  ploadbar=  1.01046704035204E+05
 cg2d: Sum(rhs),rhsMax =  -7.96355914820998E+01  1.82012093576391E+00
(PID.TID 0000.0001)  ploadbar=  1.01044250212357E+05
 cg2d: Sum(rhs),rhsMax =  -7.96368909213007E+01  1.81997573358625E+00
(PID.TID 0000.0001)  ploadbar=  1.01041796389510E+05
 cg2d: Sum(rhs),rhsMax =  -7.96358754159908E+01  1.81988043034033E+00
(PID.TID 0000.0001)  ploadbar=  1.01039342566663E+05
 cg2d: Sum(rhs),rhsMax =  -7.96269326501345E+01  1.81995051393212E+00
(PID.TID 0000.0001)  ploadbar=  1.01036888743816E+05
 cg2d: Sum(rhs),rhsMax =  -7.96123601977914E+01  1.82011989970919E+00
(PID.TID 0000.0001)  ploadbar=  1.01034434920969E+05
 cg2d: Sum(rhs),rhsMax =  -7.95707326990228E+01  1.82089039305292E+00
(PID.TID 0000.0001)  ploadbar=  1.01033036701948E+05
 cg2d: Sum(rhs),rhsMax =  -7.95129680264750E+01  1.82200375965794E+00
(PID.TID 0000.0001)  ploadbar=  1.01031638482926E+05
 cg2d: Sum(rhs),rhsMax =  -7.94434352194898E+01  1.82335002032887E+00
(PID.TID 0000.0001)  ploadbar=  1.01030240263905E+05
 cg2d: Sum(rhs),rhsMax =  -7.93574260147827E+01  1.82502672146766E+00
(PID.TID 0000.0001)  ploadbar=  1.01028842044884E+05
 cg2d: Sum(rhs),rhsMax =  -7.92547787990709E+01  1.82703562502664E+00
(PID.TID 0000.0001)  ploadbar=  1.01027443825863E+05
 cg2d: Sum(rhs),rhsMax =  -7.91378428480953E+01  1.82932332552780E+00
(PID.TID 0000.0001)  ploadbar=  1.01026045606842E+05
 cg2d: Sum(rhs),rhsMax =  -7.90359873838373E+01  1.83134910080090E+00
(PID.TID 0000.0001)  ploadbar=  1.01025639326636E+05
 cg2d: Sum(rhs),rhsMax =  -7.89375811592083E+01  1.83336470549040E+00
(PID.TID 0000.0001)  ploadbar=  1.01025233046430E+05
 cg2d: Sum(rhs),rhsMax =  -7.88414722659174E+01  1.83538262859812E+00
(PID.TID 0000.0001)  ploadbar=  1.01024826766224E+05
 cg2d: Sum(rhs),rhsMax =  -7.87550535425950E+01  1.83721684028995E+00
(PID.TID 0000.0001)  ploadbar=  1.01024420486018E+05
 cg2d: Sum(rhs),rhsMax =  -7.86772014619923E+01  1.83887943094537E+00
(PID.TID 0000.0001)  ploadbar=  1.01024014205811E+05
 cg2d: Sum(rhs),rhsMax =  -7.86065768323026E+01  1.84039444494206E+00
(PID.TID 0000.0001)  ploadbar=  1.01023607925605E+05
 cg2d: Sum(rhs),rhsMax =  -7.85971884496032E+01  1.84044930128361E+00
(PID.TID 0000.0001)  ploadbar=  1.01024084654608E+05
 cg2d: Sum(rhs),rhsMax =  -7.86051170843448E+01  1.84006269890053E+00
(PID.TID 0000.0001)  ploadbar=  1.01024561383611E+05
 cg2d: Sum(rhs),rhsMax =  -7.86151651241470E+01  1.83958732321263E+00
(PID.TID 0000.0001)  ploadbar=  1.01025038112614E+05
 cg2d: Sum(rhs),rhsMax =  -7.86260138251100E+01  1.83905081132110E+00
(PID.TID 0000.0001)  ploadbar=  1.01025514841617E+05
 cg2d: Sum(rhs),rhsMax =  -7.86382453406412E+01  1.83843000825922E+00
(PID.TID 0000.0001)  ploadbar=  1.01025991570620E+05
 cg2d: Sum(rhs),rhsMax =  -7.86565979815197E+01  1.83760257653839E+00
(PID.TID 0000.0001)  ploadbar=  1.01026468299623E+05
 cg2d: Sum(rhs),rhsMax =  -7.87342852420431E+01  1.83543484985848E+00
(PID.TID 0000.0001)  ploadbar=  1.01026349296720E+05
 cg2d: Sum(rhs),rhsMax =  -7.88685155100761E+01  1.83199099276145E+00
(PID.TID 0000.0001)  ploadbar=  1.01026230293816E+05
 cg2d: Sum(rhs),rhsMax =  -7.90284653966171E+01  1.82799048023277E+00
(PID.TID 0000.0001)  ploadbar=  1.01026111290913E+05
 cg2d: Sum(rhs),rhsMax =  -7.92066162229414E+01  1.82360350309163E+00
(PID.TID 0000.0001)  ploadbar=  1.01025992288010E+05
 cg2d: Sum(rhs),rhsMax =  -7.94051827097572E+01  1.81876720102978E+00
(PID.TID 0000.0001)  ploadbar=  1.01025873285106E+05
 cg2d: Sum(rhs),rhsMax =  -7.96228806745157E+01  1.81350012622230E+00
(PID.TID 0000.0001)  ploadbar=  1.01025754282203E+05
 cg2d: Sum(rhs),rhsMax =  -7.98425945228695E+01  1.80819709122965E+00
(PID.TID 0000.0001)  ploadbar=  1.01024567189430E+05
 cg2d: Sum(rhs),rhsMax =  -8.00869427745772E+01  1.80233470966489E+00
(PID.TID 0000.0001)  ploadbar=  1.01023380096656E+05
 cg2d: Sum(rhs),rhsMax =  -8.03312392382199E+01  1.79646796020415E+00
(PID.TID 0000.0001)  ploadbar=  1.01022193003883E+05
 cg2d: Sum(rhs),rhsMax =  -8.05820444004277E+01  1.79044443867493E+00
(PID.TID 0000.0001)  ploadbar=  1.01021005911110E+05
 cg2d: Sum(rhs),rhsMax =  -8.08320313242659E+01  1.78442456670959E+00
(PID.TID 0000.0001)  ploadbar=  1.01019818818337E+05
 cg2d: Sum(rhs),rhsMax =  -8.10793984626708E+01  1.77844405386073E+00
(PID.TID 0000.0001)  ploadbar=  1.01018631725563E+05
 cg2d: Sum(rhs),rhsMax =  -8.12615543448018E+01  1.77402598136734E+00
(PID.TID 0000.0001)  ploadbar=  1.01017490181641E+05
 cg2d: Sum(rhs),rhsMax =  -8.14419210413091E+01  1.76975266885312E+00
(PID.TID 0000.0001)  ploadbar=  1.01016348637719E+05
 cg2d: Sum(rhs),rhsMax =  -8.16113948340049E+01  1.76580569031413E+00
(PID.TID 0000.0001)  ploadbar=  1.01015207093797E+05
 cg2d: Sum(rhs),rhsMax =  -8.17604938068154E+01  1.76237096308930E+00
(PID.TID 0000.0001)  ploadbar=  1.01014065549875E+05
 cg2d: Sum(rhs),rhsMax =  -8.18909273998869E+01  1.75939939090149E+00
(PID.TID 0000.0001)  ploadbar=  1.01012924005953E+05
 cg2d: Sum(rhs),rhsMax =  -8.20188700925305E+01  1.75653776527127E+00
(PID.TID 0000.0001)  ploadbar=  1.01011782462030E+05
 cg2d: Sum(rhs),rhsMax =  -8.20189207490448E+01  1.75644366887998E+00
(PID.TID 0000.0001)  ploadbar=  1.01010438487729E+05
 cg2d: Sum(rhs),rhsMax =  -8.19444235965873E+01  1.75796097980630E+00
(PID.TID 0000.0001)  ploadbar=  1.01009094513427E+05
 cg2d: Sum(rhs),rhsMax =  -8.18810844462974E+01  1.75925219141323E+00
(PID.TID 0000.0001)  ploadbar=  1.01007750539125E+05
 cg2d: Sum(rhs),rhsMax =  -8.19369595692682E+01  1.75799353554028E+00
(PID.TID 0000.0001)  ploadbar=  1.01006406564824E+05
 cg2d: Sum(rhs),rhsMax =  -8.22085657117482E+01  1.75213153461880E+00
(PID.TID 0000.0001)  ploadbar=  1.01005062590522E+05
 cg2d: Sum(rhs),rhsMax =  -8.26940661336182E+01  1.74178491671336E+00
(PID.TID 0000.0001)  ploadbar=  1.01003718616220E+05
 cg2d: Sum(rhs),rhsMax =  -8.32342869759919E+01  1.73045940154393E+00
(PID.TID 0000.0001)  ploadbar=  1.01002344153537E+05
 cg2d: Sum(rhs),rhsMax =  -8.37651166425112E+01  1.71950024141084E+00
(PID.TID 0000.0001)  ploadbar=  1.01000969690853E+05
 cg2d: Sum(rhs),rhsMax =  -8.42219126903569E+01  1.71019724289094E+00
(PID.TID 0000.0001)  ploadbar=  1.00999595228169E+05
 cg2d: Sum(rhs),rhsMax =  -8.46076159687090E+01  1.70242647932029E+00
(PID.TID 0000.0001)  ploadbar=  1.00998220765486E+05
 cg2d: Sum(rhs),rhsMax =  -8.50047499968506E+01  1.69448789497380E+00
(PID.TID 0000.0001)  ploadbar=  1.00996846302802E+05
 cg2d: Sum(rhs),rhsMax =  -8.52176855293956E+01  1.69024490215729E+00
(PID.TID 0000.0001)  ploadbar=  1.00995471840118E+05
 cg2d: Sum(rhs),rhsMax =  -8.51557072269678E+01  1.69144513739236E+00
(PID.TID 0000.0001)  ploadbar=  1.00994495286885E+05
 cg2d: Sum(rhs),rhsMax =  -8.51419202983679E+01  1.69166040820780E+00
(PID.TID 0000.0001)  ploadbar=  1.00993518733651E+05
 cg2d: Sum(rhs),rhsMax =  -8.51164198000583E+01  1.69207341141792E+00
(PID.TID 0000.0001)  ploadbar=  1.00992542180417E+05
 cg2d: Sum(rhs),rhsMax =  -8.50361953743999E+01  1.69353522701643E+00
(PID.TID 0000.0001)  ploadbar=  1.00991565627183E+05
 cg2d: Sum(rhs),rhsMax =  -8.49185753073014E+01  1.69569930569769E+00
(PID.TID 0000.0001)  ploadbar=  1.00990589073949E+05
 cg2d: Sum(rhs),rhsMax =  -8.47760061965723E+01  1.69831793811387E+00
(PID.TID 0000.0001)  ploadbar=  1.00989612520715E+05
 cg2d: Sum(rhs),rhsMax =  -8.47403454670060E+01  1.69890529804058E+00
(PID.TID 0000.0001)  ploadbar=  1.00989429139621E+05
 cg2d: Sum(rhs),rhsMax =  -8.47255974294100E+01  1.69916352832021E+00
(PID.TID 0000.0001)  ploadbar=  1.00989245758527E+05
 cg2d: Sum(rhs),rhsMax =  -8.47199515392760E+01  1.69931284103689E+00
(PID.TID 0000.0001)  ploadbar=  1.00989062377432E+05
 cg2d: Sum(rhs),rhsMax =  -8.47067574354157E+01  1.69967421636006E+00
(PID.TID 0000.0001)  ploadbar=  1.00988878996338E+05
 cg2d: Sum(rhs),rhsMax =  -8.46705777653272E+01  1.70053970386444E+00
(PID.TID 0000.0001)  ploadbar=  1.00988695615244E+05
 cg2d: Sum(rhs),rhsMax =  -8.46041522734815E+01  1.70205100171505E+00
(PID.TID 0000.0001)  ploadbar=  1.00988512234150E+05
 cg2d: Sum(rhs),rhsMax =  -8.43309950123356E+01  1.70773076855111E+00
(PID.TID 0000.0001)  ploadbar=  1.00989081207214E+05
 cg2d: Sum(rhs),rhsMax =  -8.39653286792929E+01  1.71531768641207E+00
(PID.TID 0000.0001)  ploadbar=  1.00989650180279E+05
 cg2d: Sum(rhs),rhsMax =  -8.34912296304199E+01  1.72518783419346E+00
(PID.TID 0000.0001)  ploadbar=  1.00990219153343E+05
 cg2d: Sum(rhs),rhsMax =  -8.29487385675120E+01  1.73657813152651E+00
(PID.TID 0000.0001)  ploadbar=  1.00990788126408E+05
 cg2d: Sum(rhs),rhsMax =  -8.23604579790083E+01  1.74906297309420E+00
(PID.TID 0000.0001)  ploadbar=  1.00991357099472E+05
 cg2d: Sum(rhs),rhsMax =  -8.17431359606402E+01  1.76231779797942E+00
(PID.TID 0000.0001)  ploadbar=  1.00991926072537E+05
 cg2d: Sum(rhs),rhsMax =  -8.09311519286737E+01  1.78004282117962E+00
(PID.TID 0000.0001)  ploadbar=  1.00993028721019E+05
 cg2d: Sum(rhs),rhsMax =  -7.99823560065099E+01  1.80118726734035E+00
(PID.TID 0000.0001)  ploadbar=  1.00994131369501E+05
 cg2d: Sum(rhs),rhsMax =  -7.89358809642650E+01  1.82506392611758E+00
(PID.TID 0000.0001)  ploadbar=  1.00995234017984E+05
 cg2d: Sum(rhs),rhsMax =  -7.79084246498781E+01  1.84908765819953E+00
(PID.TID 0000.0001)  ploadbar=  1.00996336666466E+05
 cg2d: Sum(rhs),rhsMax =  -7.69133369123186E+01  1.87290713803293E+00
(PID.TID 0000.0001)  ploadbar=  1.00997439314948E+05
 cg2d: Sum(rhs),rhsMax =  -7.59600467427959E+01  1.89623811747543E+00
(PID.TID 0000.0001)  ploadbar=  1.00998541963430E+05
 cg2d: Sum(rhs),rhsMax =  -7.51519462905742E+01  1.91642386555498E+00
(PID.TID 0000.0001)  ploadbar=  1.01001164703723E+05
 cg2d: Sum(rhs),rhsMax =  -7.44901979625784E+01  1.93320511399782E+00
(PID.TID 0000.0001)  ploadbar=  1.01003787444017E+05
 cg2d: Sum(rhs),rhsMax =  -7.39543601352826E+01  1.94691935948749E+00
(PID.TID 0000.0001)  ploadbar=  1.01006410184310E+05
 cg2d: Sum(rhs),rhsMax =  -7.34943568371753E+01  1.95875331036795E+00
(PID.TID 0000.0001)  ploadbar=  1.01009032924603E+05
 cg2d: Sum(rhs),rhsMax =  -7.31603232893379E+01  1.96727278066698E+00
(PID.TID 0000.0001)  ploadbar=  1.01011655664897E+05
 cg2d: Sum(rhs),rhsMax =  -6.86397476738103E+01  2.09630370028200E+00
(PID.TID 0000.0001)  ploadbar=  1.01014278405190E+05
 cg2d: Sum(rhs),rhsMax =  -6.46400766097779E+01  2.22558425024580E+00
(PID.TID 0000.0001)  ploadbar=  1.01016545521486E+05
 cg2d: Sum(rhs),rhsMax =  -6.08018520920473E+01  2.36574124220726E+00
(PID.TID 0000.0001)  ploadbar=  1.01018812637782E+05
 cg2d: Sum(rhs),rhsMax =  -5.70332992619264E+01  2.52178201415013E+00
(PID.TID 0000.0001)  ploadbar=  1.01021079754078E+05
 cg2d: Sum(rhs),rhsMax =  -5.34638887991113E+01  2.68989727879006E+00
(PID.TID 0000.0001)  ploadbar=  1.01023346870374E+05
 cg2d: Sum(rhs),rhsMax =  -5.01426422975507E+01  2.86785728393913E+00
(PID.TID 0000.0001)  ploadbar=  1.01025613986670E+05
 cg2d: Sum(rhs),rhsMax =  -4.70975890093636E+01  3.05311368660984E+00
(PID.TID 0000.0001)  ploadbar=  1.01027881102966E+05
 cg2d: Sum(rhs),rhsMax =  -4.43780318182134E+01  3.24007592610820E+00
(PID.TID 0000.0001)  ploadbar=  1.01030789601110E+05
 cg2d: Sum(rhs),rhsMax =  -4.19743131025719E+01  3.42548465754719E+00
(PID.TID 0000.0001)  ploadbar=  1.01033698099253E+05
 cg2d: Sum(rhs),rhsMax =  -3.98802224317718E+01  3.60518077221311E+00
(PID.TID 0000.0001)  ploadbar=  1.01036606597397E+05
 cg2d: Sum(rhs),rhsMax =  -3.80529860471558E+01  3.77807272198801E+00
(PID.TID 0000.0001)  ploadbar=  1.01039515095541E+05
 cg2d: Sum(rhs),rhsMax =  -3.64412903904851E+01  3.94487898753750E+00
(PID.TID 0000.0001)  ploadbar=  1.01042423593685E+05
 cg2d: Sum(rhs),rhsMax =  -3.50120657166575E+01  4.10553913444622E+00
(PID.TID 0000.0001)  ploadbar=  1.01045332091829E+05
 cg2d: Sum(rhs),rhsMax =  -3.38162680071528E+01  4.25034300378617E+00
(PID.TID 0000.0001)  ploadbar=  1.01047107492887E+05
 cg2d: Sum(rhs),rhsMax =  -3.28483887101414E+01  4.37517725264211E+00
(PID.TID 0000.0001)  ploadbar=  1.01048882893945E+05
 cg2d: Sum(rhs),rhsMax =  -3.21110076812899E+01  4.47518413642517E+00
(PID.TID 0000.0001)  ploadbar=  1.01050658295004E+05
 cg2d: Sum(rhs),rhsMax =  -3.15735684984569E+01  4.55079515430088E+00
(PID.TID 0000.0001)  ploadbar=  1.01052433696062E+05
 cg2d: Sum(rhs),rhsMax =  -3.11919063097709E+01  4.60577525208878E+00
(PID.TID 0000.0001)  ploadbar=  1.01054209097120E+05
 cg2d: Sum(rhs),rhsMax =  -3.09185076936124E+01  4.64562750552190E+00
(PID.TID 0000.0001)  ploadbar=  1.01055984498178E+05
 cg2d: Sum(rhs),rhsMax =  -3.06939558228224E+01  4.67870147771261E+00
(PID.TID 0000.0001)  ploadbar=  1.01058338061934E+05
 cg2d: Sum(rhs),rhsMax =  -3.05129986395812E+01  4.70546594441800E+00
(PID.TID 0000.0001)  ploadbar=  1.01060691625691E+05
 cg2d: Sum(rhs),rhsMax =  -3.03727951904191E+01  4.72611375361291E+00
(PID.TID 0000.0001)  ploadbar=  1.01063045189447E+05
 cg2d: Sum(rhs),rhsMax =  -3.02680058066026E+01  4.74129817849632E+00
(PID.TID 0000.0001)  ploadbar=  1.01065398753203E+05
 cg2d: Sum(rhs),rhsMax =  -3.02052478869482E+01  4.74985310604091E+00
(PID.TID 0000.0001)  ploadbar=  1.01067752316959E+05
 cg2d: Sum(rhs),rhsMax =  -3.02115587661523E+01  4.74744608895100E+00
(PID.TID 0000.0001)  ploadbar=  1.01070105880715E+05
 cg2d: Sum(rhs),rhsMax =  -3.04218194740274E+01  4.71348895996010E+00
(PID.TID 0000.0001)  ploadbar=  1.01071310237694E+05
 cg2d: Sum(rhs),rhsMax =  -3.07274285270053E+01  4.66568357127695E+00
(PID.TID 0000.0001)  ploadbar=  1.01072514594673E+05
 cg2d: Sum(rhs),rhsMax =  -3.11130227425828E+01  4.60710517870872E+00
(PID.TID 0000.0001)  ploadbar=  1.01073718951651E+05
 cg2d: Sum(rhs),rhsMax =  -3.15761176062863E+01  4.53890939730544E+00
(PID.TID 0000.0001)  ploadbar=  1.01074923308630E+05
 cg2d: Sum(rhs),rhsMax =  -3.21195000771439E+01  4.46160102412241E+00
(PID.TID 0000.0001)  ploadbar=  1.01076127665609E+05
 cg2d: Sum(rhs),rhsMax =  -3.27241707438867E+01  4.37872253519034E+00
(PID.TID 0000.0001)  ploadbar=  1.01077332022588E+05
 cg2d: Sum(rhs),rhsMax =  -3.28875020814009E+01  4.35657874158584E+00
(PID.TID 0000.0001)  ploadbar=  1.01077887013803E+05
 cg2d: Sum(rhs),rhsMax =  -3.30305917993177E+01  4.33732834499173E+00
(PID.TID 0000.0001)  ploadbar=  1.01078442005018E+05
 cg2d: Sum(rhs),rhsMax =  -3.31382792893398E+01  4.32284988707197E+00
(PID.TID 0000.0001)  ploadbar=  1.01078996996234E+05
 cg2d: Sum(rhs),rhsMax =  -3.31909389830065E+01  4.31558368416993E+00
(PID.TID 0000.0001)  ploadbar=  1.01079551987449E+05
 cg2d: Sum(rhs),rhsMax =  -3.31541449715980E+01  4.31991742840728E+00
(PID.TID 0000.0001)  ploadbar=  1.01080106978665E+05
 cg2d: Sum(rhs),rhsMax =  -3.31121349206750E+01  4.32486159864169E+00
(PID.TID 0000.0001)  ploadbar=  1.01080661969880E+05
 cg2d: Sum(rhs),rhsMax =  -3.32819699248955E+01  4.30223682953579E+00
(PID.TID 0000.0001)  ploadbar=  1.01080982710045E+05
 cg2d: Sum(rhs),rhsMax =  -3.35373344019779E+01  4.26888241364147E+00
(PID.TID 0000.0001)  ploadbar=  1.01081303450210E+05
 cg2d: Sum(rhs),rhsMax =  -3.38096531460154E+01  4.23382543790009E+00
(PID.TID 0000.0001)  ploadbar=  1.01081624190374E+05
 cg2d: Sum(rhs),rhsMax =  -3.40723467101438E+01  4.20040740910312E+00
(PID.TID 0000.0001)  ploadbar=  1.01081944930539E+05
 cg2d: Sum(rhs),rhsMax =  -3.43267150549804E+01  4.16838824506500E+00
(PID.TID 0000.0001)  ploadbar=  1.01082265670704E+05
 cg2d: Sum(rhs),rhsMax =  -3.45763482800731E+01  4.13727509711378E+00
(PID.TID 0000.0001)  ploadbar=  1.01082586410869E+05
 cg2d: Sum(rhs),rhsMax =  -3.48581445547609E+01  4.10283700851436E+00
(PID.TID 0000.0001)  ploadbar=  1.01082160799389E+05
 cg2d: Sum(rhs),rhsMax =  -3.51592487903510E+01  4.06670880225819E+00
(PID.TID 0000.0001)  ploadbar=  1.01081735187909E+05
 cg2d: Sum(rhs),rhsMax =  -3.54239330269725E+01  4.03531777227883E+00
(PID.TID 0000.0001)  ploadbar=  1.01081309576430E+05
 cg2d: Sum(rhs),rhsMax =  -3.56558066809268E+01  4.00805146333627E+00
(PID.TID 0000.0001)  ploadbar=  1.01080883964950E+05
 cg2d: Sum(rhs),rhsMax =  -3.60412863943322E+01  3.96414333365350E+00
(PID.TID 0000.0001)  ploadbar=  1.01080458353470E+05
 cg2d: Sum(rhs),rhsMax =  -3.64068331338903E+01  3.92326533438315E+00
(PID.TID 0000.0001)  ploadbar=  1.01080032741991E+05
 cg2d: Sum(rhs),rhsMax =  -3.68331441923021E+01  3.87698890700517E+00
(PID.TID 0000.0001)  ploadbar=  1.01079199508022E+05
 cg2d: Sum(rhs),rhsMax =  -3.72313037621334E+01  3.83483642535776E+00
(PID.TID 0000.0001)  ploadbar=  1.01078366274053E+05
 cg2d: Sum(rhs),rhsMax =  -3.75321600014717E+01  3.80355661557199E+00
(PID.TID 0000.0001)  ploadbar=  1.01077533040084E+05
 cg2d: Sum(rhs),rhsMax =  -3.77374432633298E+01  3.78244712664746E+00
(PID.TID 0000.0001)  ploadbar=  1.01076699806115E+05
 cg2d: Sum(rhs),rhsMax =  -3.78693489306687E+01  3.76894830887349E+00
(PID.TID 0000.0001)  ploadbar=  1.01075866572146E+05
 cg2d: Sum(rhs),rhsMax =  -3.79350709688229E+01  3.76217175110263E+00
(PID.TID 0000.0001)  ploadbar=  1.01075033338178E+05
 cg2d: Sum(rhs),rhsMax =  -3.80370335542801E+01  3.75186771911319E+00
(PID.TID 0000.0001)  ploadbar=  1.01074550733611E+05
 cg2d: Sum(rhs),rhsMax =  -3.82311847391888E+01  3.73260202132230E+00
(PID.TID 0000.0001)  ploadbar=  1.01074068129044E+05
 cg2d: Sum(rhs),rhsMax =  -3.85937808937893E+01  3.69731157672418E+00
(PID.TID 0000.0001)  ploadbar=  1.01073585524477E+05
 cg2d: Sum(rhs),rhsMax =  -3.91463663522372E+01  3.64487141575965E+00
(PID.TID 0000.0001)  ploadbar=  1.01073102919911E+05
 cg2d: Sum(rhs),rhsMax =  -3.97946318228378E+01  3.58520347132540E+00
(PID.TID 0000.0001)  ploadbar=  1.01072620315344E+05
 cg2d: Sum(rhs),rhsMax =  -4.05267518527920E+01  3.52008648246715E+00
(PID.TID 0000.0001)  ploadbar=  1.01072137710777E+05
 cg2d: Sum(rhs),rhsMax =  -4.13529821860695E+01  3.44945958477423E+00
(PID.TID 0000.0001)  ploadbar=  1.01072105149548E+05
 cg2d: Sum(rhs),rhsMax =  -4.22575309387704E+01  3.37536336329119E+00
(PID.TID 0000.0001)  ploadbar=  1.01072072588319E+05
 cg2d: Sum(rhs),rhsMax =  -4.32298982793981E+01  3.29919260190646E+00
(PID.TID 0000.0001)  ploadbar=  1.01072040027090E+05
 cg2d: Sum(rhs),rhsMax =  -4.42654898888042E+01  3.22173371459563E+00
(PID.TID 0000.0001)  ploadbar=  1.01072007465861E+05
 cg2d: Sum(rhs),rhsMax =  -4.53620507259347E+01  3.14353844125220E+00
(PID.TID 0000.0001)  ploadbar=  1.01071974904631E+05
 cg2d: Sum(rhs),rhsMax =  -4.65255102942900E+01  3.06456194625214E+00
(PID.TID 0000.0001)  ploadbar=  1.01071942343402E+05
 cg2d: Sum(rhs),rhsMax =  -4.76910933844213E+01  2.98927747218799E+00
(PID.TID 0000.0001)  ploadbar=  1.01071327913834E+05
 cg2d: Sum(rhs),rhsMax =  -4.88255162901653E+01  2.91940035135218E+00
(PID.TID 0000.0001)  ploadbar=  1.01070713484266E+05
 cg2d: Sum(rhs),rhsMax =  -4.98796766163530E+01  2.85723179961241E+00
(PID.TID 0000.0001)  ploadbar=  1.01070099054698E+05
 cg2d: Sum(rhs),rhsMax =  -5.08206984543012E+01  2.80379134730347E+00
(PID.TID 0000.0001)  ploadbar=  1.01069484625130E+05
 cg2d: Sum(rhs),rhsMax =  -5.16263558794317E+01  2.75943294184900E+00
(PID.TID 0000.0001)  ploadbar=  1.01068870195562E+05
 cg2d: Sum(rhs),rhsMax =  -5.22629819536342E+01  2.72513884789518E+00
(PID.TID 0000.0001)  ploadbar=  1.01068255765994E+05
 cg2d: Sum(rhs),rhsMax =  -5.27780166646497E+01  2.69802891265901E+00
(PID.TID 0000.0001)  ploadbar=  1.01068073246127E+05
 cg2d: Sum(rhs),rhsMax =  -5.32120035678156E+01  2.67564271760369E+00
(PID.TID 0000.0001)  ploadbar=  1.01067890726261E+05
 cg2d: Sum(rhs),rhsMax =  -5.35926908073145E+01  2.65636235185703E+00
(PID.TID 0000.0001)  ploadbar=  1.01067708206394E+05
 cg2d: Sum(rhs),rhsMax =  -5.39090518004780E+01  2.64056863208677E+00
(PID.TID 0000.0001)  ploadbar=  1.01067525686527E+05
 cg2d: Sum(rhs),rhsMax =  -5.41597876763667E+01  2.62819232358737E+00
(PID.TID 0000.0001)  ploadbar=  1.01067343166661E+05
 cg2d: Sum(rhs),rhsMax =  -5.43381298143461E+01  2.61946639376387E+00
(PID.TID 0000.0001)  ploadbar=  1.01067160646794E+05
 cg2d: Sum(rhs),rhsMax =  -5.44426992752938E+01  2.61434790249472E+00
(PID.TID 0000.0001)  ploadbar=  1.01067361060294E+05
 cg2d: Sum(rhs),rhsMax =  -5.44983148946529E+01  2.61158522017391E+00
(PID.TID 0000.0001)  ploadbar=  1.01067561473795E+05
 cg2d: Sum(rhs),rhsMax =  -5.45086911104408E+01  2.61098149224470E+00
(PID.TID 0000.0001)  ploadbar=  1.01067761887296E+05
 cg2d: Sum(rhs),rhsMax =  -5.44795799500402E+01  2.61225492202783E+00
(PID.TID 0000.0001)  ploadbar=  1.01067962300796E+05
 cg2d: Sum(rhs),rhsMax =  -5.44203089093212E+01  2.61495597109073E+00
(PID.TID 0000.0001)  ploadbar=  1.01068162714297E+05
 cg2d: Sum(rhs),rhsMax =  -5.43259230286500E+01  2.61932399912724E+00
(PID.TID 0000.0001)  ploadbar=  1.01068363127797E+05
 cg2d: Sum(rhs),rhsMax =  -5.42532417884917E+01  2.62269955646855E+00
(PID.TID 0000.0001)  ploadbar=  1.01069265232358E+05
 cg2d: Sum(rhs),rhsMax =  -5.42045003716609E+01  2.62494607282033E+00
(PID.TID 0000.0001)  ploadbar=  1.01070167336919E+05
 cg2d: Sum(rhs),rhsMax =  -5.41815246354694E+01  2.62594461195011E+00
(PID.TID 0000.0001)  ploadbar=  1.01071069441480E+05
 cg2d: Sum(rhs),rhsMax =  -5.41744125953369E+01  2.62614905268078E+00
(PID.TID 0000.0001)  ploadbar=  1.01071971546040E+05
 cg2d: Sum(rhs),rhsMax =  -5.41765347626550E+01  2.62585459828995E+00
(PID.TID 0000.0001)  ploadbar=  1.01072873650601E+05
 cg2d: Sum(rhs),rhsMax =  -5.41853770408582E+01  2.62516290819785E+00
(PID.TID 0000.0001)  ploadbar=  1.01073775755162E+05
 cg2d: Sum(rhs),rhsMax =  -5.41982275573472E+01  2.62425421178649E+00
(PID.TID 0000.0001)  ploadbar=  1.01074422790850E+05
 cg2d: Sum(rhs),rhsMax =  -5.42139328038312E+01  2.62317352899998E+00
(PID.TID 0000.0001)  ploadbar=  1.01075069826538E+05
 cg2d: Sum(rhs),rhsMax =  -5.42469377192278E+01  2.62121299464452E+00
(PID.TID 0000.0001)  ploadbar=  1.01075716862226E+05
 cg2d: Sum(rhs),rhsMax =  -5.42931268496958E+01  2.61856518884428E+00
(PID.TID 0000.0001)  ploadbar=  1.01076363897914E+05
 cg2d: Sum(rhs),rhsMax =  -5.43493301743721E+01  2.61538122726845E+00
(PID.TID 0000.0001)  ploadbar=  1.01077010933602E+05
 cg2d: Sum(rhs),rhsMax =  -5.44168120244389E+01  2.61159471343921E+00
(PID.TID 0000.0001)  ploadbar=  1.01077657969290E+05
 cg2d: Sum(rhs),rhsMax =  -5.45228227434846E+01  2.60612010211038E+00
(PID.TID 0000.0001)  ploadbar=  1.01077651943103E+05
 cg2d: Sum(rhs),rhsMax =  -5.46702929841167E+01  2.59880586717659E+00
(PID.TID 0000.0001)  ploadbar=  1.01077645916916E+05
 cg2d: Sum(rhs),rhsMax =  -5.48694890810640E+01  2.58916437927423E+00
(PID.TID 0000.0001)  ploadbar=  1.01077639890730E+05
 cg2d: Sum(rhs),rhsMax =  -5.51196848082438E+01  2.57727527490932E+00
(PID.TID 0000.0001)  ploadbar=  1.01077633864543E+05
 cg2d: Sum(rhs),rhsMax =  -5.54195946656956E+01  2.56325805153543E+00
(PID.TID 0000.0001)  ploadbar=  1.01077627838356E+05
 cg2d: Sum(rhs),rhsMax =  -5.57887058838521E+01  2.54629603429759E+00
(PID.TID 0000.0001)  ploadbar=  1.01077621812170E+05
 cg2d: Sum(rhs),rhsMax =  -5.62477618947652E+01  2.52548970550982E+00
(PID.TID 0000.0001)  ploadbar=  1.01079009584848E+05
 cg2d: Sum(rhs),rhsMax =  -5.68070288079920E+01  2.50056032646641E+00
(PID.TID 0000.0001)  ploadbar=  1.01080397357527E+05
 cg2d: Sum(rhs),rhsMax =  -5.74915735078541E+01  2.47067873731987E+00
(PID.TID 0000.0001)  ploadbar=  1.01081785130205E+05
 cg2d: Sum(rhs),rhsMax =  -5.83128187738622E+01  2.43573268308833E+00
(PID.TID 0000.0001)  ploadbar=  1.01083172902884E+05
 cg2d: Sum(rhs),rhsMax =  -5.92802374992100E+01  2.39578491254297E+00
(PID.TID 0000.0001)  ploadbar=  1.01084560675563E+05
 cg2d: Sum(rhs),rhsMax =  -6.04000712877587E+01  2.35110947222755E+00
(PID.TID 0000.0001)  ploadbar=  1.01085948448241E+05
 cg2d: Sum(rhs),rhsMax =  -6.15959096137685E+01  2.30524085904813E+00
(PID.TID 0000.0001)  ploadbar=  1.01086925408154E+05
 cg2d: Sum(rhs),rhsMax =  -6.28384072578274E+01  2.25945398783919E+00
(PID.TID 0000.0001)  ploadbar=  1.01087902368067E+05
 cg2d: Sum(rhs),rhsMax =  -6.41150600204125E+01  2.21426421633520E+00
(PID.TID 0000.0001)  ploadbar=  1.01088879327979E+05
 cg2d: Sum(rhs),rhsMax =  -6.54236110215022E+01  2.16975992968153E+00
(PID.TID 0000.0001)  ploadbar=  1.01089856287892E+05
 cg2d: Sum(rhs),rhsMax =  -6.67596212946900E+01  2.12607551649048E+00
(PID.TID 0000.0001)  ploadbar=  1.01090833247805E+05
 cg2d: Sum(rhs),rhsMax =  -6.81128070248589E+01  2.08351930834184E+00
(PID.TID 0000.0001)  ploadbar=  1.01091810207718E+05
 cg2d: Sum(rhs),rhsMax =  -6.94686115009223E+01  2.04256509546564E+00
(PID.TID 0000.0001)  ploadbar=  1.01091670770936E+05
 cg2d: Sum(rhs),rhsMax =  -7.08324906999256E+01  2.00295241477278E+00
(PID.TID 0000.0001)  ploadbar=  1.01091531334153E+05
 cg2d: Sum(rhs),rhsMax =  -7.21957421084811E+01  1.96484291006747E+00
(PID.TID 0000.0001)  ploadbar=  1.01091391897371E+05
 cg2d: Sum(rhs),rhsMax =  -7.35568007896939E+01  1.92817982340873E+00
(PID.TID 0000.0001)  ploadbar=  1.01091252460589E+05
 cg2d: Sum(rhs),rhsMax =  -7.49166763055396E+01  1.89284777131586E+00
(PID.TID 0000.0001)  ploadbar=  1.01091113023807E+05
 cg2d: Sum(rhs),rhsMax =  -7.62761822668312E+01  1.85874562763655E+00
(PID.TID 0000.0001)  ploadbar=  1.01090973587025E+05
 cg2d: Sum(rhs),rhsMax =  -7.77890202078921E+01  1.82234417708665E+00
(PID.TID 0000.0001)  ploadbar=  1.01090315171361E+05
 cg2d: Sum(rhs),rhsMax =  -7.95273259580445E+01  1.78234755005657E+00
(PID.TID 0000.0001)  ploadbar=  1.01089656755698E+05
 cg2d: Sum(rhs),rhsMax =  -8.15480064563708E+01  1.73808028608314E+00
(PID.TID 0000.0001)  ploadbar=  1.01088998340035E+05
 cg2d: Sum(rhs),rhsMax =  -8.39736167024011E+01  1.68782194354649E+00
(PID.TID 0000.0001)  ploadbar=  1.01088339924371E+05
 cg2d: Sum(rhs),rhsMax =  -8.68152118441207E+01  1.63256677267567E+00
(PID.TID 0000.0001)  ploadbar=  1.01087681508708E+05
 cg2d: Sum(rhs),rhsMax =  -8.94549553321798E+01  1.58441233126863E+00
(PID.TID 0000.0001)  ploadbar=  1.01087023093044E+05
 cg2d: Sum(rhs),rhsMax =  -8.73027015094880E+01  1.62350398422426E+00
(PID.TID 0000.0001)  ploadbar=  1.01087268087877E+05
 cg2d: Sum(rhs),rhsMax =  -8.52363933550977E+01  1.66289693712988E+00
(PID.TID 0000.0001)  ploadbar=  1.01087513082710E+05
 cg2d: Sum(rhs),rhsMax =  -8.33541424500960E+01  1.70048482028863E+00
(PID.TID 0000.0001)  ploadbar=  1.01087758077542E+05
 cg2d: Sum(rhs),rhsMax =  -8.16451841669131E+01  1.73611670892198E+00
(PID.TID 0000.0001)  ploadbar=  1.01088003072375E+05
 cg2d: Sum(rhs),rhsMax =  -8.00614531894812E+01  1.77048539680922E+00
(PID.TID 0000.0001)  ploadbar=  1.01088248067208E+05
 cg2d: Sum(rhs),rhsMax =  -7.85678758046244E+01  1.80414619815050E+00
(PID.TID 0000.0001)  ploadbar=  1.01088493062040E+05
 cg2d: Sum(rhs),rhsMax =  -7.72590297153376E+01  1.83474426125438E+00
(PID.TID 0000.0001)  ploadbar=  1.01088111225146E+05
 cg2d: Sum(rhs),rhsMax =  -7.61475317519798E+01  1.86157204416720E+00
(PID.TID 0000.0001)  ploadbar=  1.01087729388251E+05
 cg2d: Sum(rhs),rhsMax =  -7.52351791628023E+01  1.88419176477514E+00
(PID.TID 0000.0001)  ploadbar=  1.01087347551357E+05
 cg2d: Sum(rhs),rhsMax =  -7.45101995310450E+01  1.90255185491947E+00
(PID.TID 0000.0001)  ploadbar=  1.01086965714463E+05
 cg2d: Sum(rhs),rhsMax =  -7.39620089073766E+01  1.91664441599144E+00
(PID.TID 0000.0001)  ploadbar=  1.01086583877568E+05
 cg2d: Sum(rhs),rhsMax =  -7.35729929998922E+01  1.92672386215560E+00
(PID.TID 0000.0001)  ploadbar=  1.01086202040674E+05
 cg2d: Sum(rhs),rhsMax =  -7.32932495943678E+01  1.93403876230396E+00
(PID.TID 0000.0001)  ploadbar=  1.01086535921007E+05
 cg2d: Sum(rhs),rhsMax =  -7.30834834662048E+01  1.93955487818899E+00
(PID.TID 0000.0001)  ploadbar=  1.01086869801341E+05
 cg2d: Sum(rhs),rhsMax =  -7.29195668024112E+01  1.94387702014486E+00
(PID.TID 0000.0001)  ploadbar=  1.01087203681674E+05
 cg2d: Sum(rhs),rhsMax =  -7.27793351209548E+01  1.94757186644938E+00
(PID.TID 0000.0001)  ploadbar=  1.01087537562008E+05
 cg2d: Sum(rhs),rhsMax =  -7.26448286011048E+01  1.95110039731879E+00
(PID.TID 0000.0001)  ploadbar=  1.01087871442341E+05
 cg2d: Sum(rhs),rhsMax =  -7.25069436545048E+01  1.95469908416765E+00
(PID.TID 0000.0001)  ploadbar=  1.01088205322675E+05
 cg2d: Sum(rhs),rhsMax =  -7.22879741358709E+01  1.96058638880427E+00
(PID.TID 0000.0001)  ploadbar=  1.01087725972229E+05
 cg2d: Sum(rhs),rhsMax =  -7.19088208727939E+01  1.97094665707991E+00
(PID.TID 0000.0001)  ploadbar=  1.01087246621782E+05
 cg2d: Sum(rhs),rhsMax =  -7.13605368900844E+01  1.98613721965982E+00
(PID.TID 0000.0001)  ploadbar=  1.01086767271336E+05
 cg2d: Sum(rhs),rhsMax =  -7.07448764075774E+01  2.00347905244387E+00
(PID.TID 0000.0001)  ploadbar=  1.01086287920889E+05
 cg2d: Sum(rhs),rhsMax =  -7.02680234737144E+01  2.01712423518954E+00
(PID.TID 0000.0001)  ploadbar=  1.01085808570443E+05
 cg2d: Sum(rhs),rhsMax =  -7.02791894863660E+01  2.01683198683077E+00
(PID.TID 0000.0001)  ploadbar=  1.01085329219996E+05
 cg2d: Sum(rhs),rhsMax =  -7.03676337117803E+01  2.01431271832743E+00
(PID.TID 0000.0001)  ploadbar=  1.01085317849964E+05
 cg2d: Sum(rhs),rhsMax =  -7.04629206135667E+01  2.01157933600375E+00
(PID.TID 0000.0001)  ploadbar=  1.01085306479932E+05
 cg2d: Sum(rhs),rhsMax =  -7.05086091096468E+01  2.01023548600121E+00
(PID.TID 0000.0001)  ploadbar=  1.01085295109901E+05
 cg2d: Sum(rhs),rhsMax =  -7.04655026337088E+01  2.01138904248972E+00
(PID.TID 0000.0001)  ploadbar=  1.01085283739869E+05
 cg2d: Sum(rhs),rhsMax =  -7.03094165472440E+01  2.01573113198860E+00
(PID.TID 0000.0001)  ploadbar=  1.01085272369837E+05
 cg2d: Sum(rhs),rhsMax =  -7.00279292450374E+01  2.02364930719988E+00
(PID.TID 0000.0001)  ploadbar=  1.01085260999805E+05
 cg2d: Sum(rhs),rhsMax =  -6.96582091485405E+01  2.03422475424582E+00
(PID.TID 0000.0001)  ploadbar=  1.01083852654049E+05
 cg2d: Sum(rhs),rhsMax =  -6.92250671332356E+01  2.04679162352720E+00
(PID.TID 0000.0001)  ploadbar=  1.01082444308292E+05
 cg2d: Sum(rhs),rhsMax =  -6.87737580349336E+01  2.06005591802074E+00
(PID.TID 0000.0001)  ploadbar=  1.01081035962535E+05
 cg2d: Sum(rhs),rhsMax =  -6.83404933981618E+01  2.07292796022621E+00
(PID.TID 0000.0001)  ploadbar=  1.01079627616778E+05
 cg2d: Sum(rhs),rhsMax =  -6.79413606138836E+01  2.08487706516726E+00
(PID.TID 0000.0001)  ploadbar=  1.01078219271022E+05
 cg2d: Sum(rhs),rhsMax =  -6.75864909696904E+01  2.09554146588015E+00
(PID.TID 0000.0001)  ploadbar=  1.01076810925265E+05
 cg2d: Sum(rhs),rhsMax =  -6.72963128080920E+01  2.10431981701187E+00
(PID.TID 0000.0001)  ploadbar=  1.01076020861471E+05
 cg2d: Sum(rhs),rhsMax =  -6.70833957340479E+01  2.11075807211217E+00
(PID.TID 0000.0001)  ploadbar=  1.01075230797678E+05
 cg2d: Sum(rhs),rhsMax =  -6.69415151469741E+01  2.11500199478709E+00
(PID.TID 0000.0001)  ploadbar=  1.01074440733885E+05
 cg2d: Sum(rhs),rhsMax =  -6.68618796053362E+01  2.11729250228418E+00
(PID.TID 0000.0001)  ploadbar=  1.01073650670091E+05
 cg2d: Sum(rhs),rhsMax =  -6.68377641672374E+01  2.11782196282654E+00
(PID.TID 0000.0001)  ploadbar=  1.01072860606298E+05
 cg2d: Sum(rhs),rhsMax =  -6.68629174586636E+01  2.11677329971875E+00
(PID.TID 0000.0001)  ploadbar=  1.01072070542504E+05
 cg2d: Sum(rhs),rhsMax =  -6.69291627291138E+01  2.11451965533659E+00
(PID.TID 0000.0001)  ploadbar=  1.01072644046058E+05
 cg2d: Sum(rhs),rhsMax =  -6.70302947657467E+01  2.11123261642609E+00
(PID.TID 0000.0001)  ploadbar=  1.01073217549613E+05
 cg2d: Sum(rhs),rhsMax =  -6.71637298054125E+01  2.10697142409470E+00
(PID.TID 0000.0001)  ploadbar=  1.01073791053167E+05
 cg2d: Sum(rhs),rhsMax =  -6.73290843638275E+01  2.10174514029915E+00
(PID.TID 0000.0001)  ploadbar=  1.01074364556721E+05
 cg2d: Sum(rhs),rhsMax =  -6.75284270169211E+01  2.09549652667202E+00
(PID.TID 0000.0001)  ploadbar=  1.01074938060275E+05
 cg2d: Sum(rhs),rhsMax =  -6.77609781547061E+01  2.08826532649635E+00
(PID.TID 0000.0001)  ploadbar=  1.01075511563829E+05
 cg2d: Sum(rhs),rhsMax =  -6.79993443610476E+01  2.08091161309896E+00
(PID.TID 0000.0001)  ploadbar=  1.01075732430884E+05
 cg2d: Sum(rhs),rhsMax =  -6.82292320102945E+01  2.07387301173402E+00
(PID.TID 0000.0001)  ploadbar=  1.01075953297939E+05
 cg2d: Sum(rhs),rhsMax =  -6.84407127359017E+01  2.06744480056486E+00
(PID.TID 0000.0001)  ploadbar=  1.01076174164994E+05
 cg2d: Sum(rhs),rhsMax =  -6.86360902222346E+01  2.06154441015719E+00
(PID.TID 0000.0001)  ploadbar=  1.01076395032049E+05
 cg2d: Sum(rhs),rhsMax =  -6.88177238064268E+01  2.05607246215436E+00
(PID.TID 0000.0001)  ploadbar=  1.01076615899104E+05
 cg2d: Sum(rhs),rhsMax =  -6.89818085822190E+01  2.05111823406026E+00
(PID.TID 0000.0001)  ploadbar=  1.01076836766159E+05
 cg2d: Sum(rhs),rhsMax =  -6.91440725016033E+01  2.04625394822685E+00
(PID.TID 0000.0001)  ploadbar=  1.01077295934017E+05
 cg2d: Sum(rhs),rhsMax =  -6.93169283862167E+01  2.04109417353454E+00
(PID.TID 0000.0001)  ploadbar=  1.01077755101876E+05
 cg2d: Sum(rhs),rhsMax =  -6.95252599686215E+01  2.03490423324837E+00
(PID.TID 0000.0001)  ploadbar=  1.01078214269735E+05
 cg2d: Sum(rhs),rhsMax =  -6.98005914534142E+01  2.02677581807452E+00
(PID.TID 0000.0001)  ploadbar=  1.01078673437593E+05
 cg2d: Sum(rhs),rhsMax =  -7.01770253343102E+01  2.01576132451210E+00
(PID.TID 0000.0001)  ploadbar=  1.01079132605452E+05
 cg2d: Sum(rhs),rhsMax =  -7.06714764889146E+01  2.00145578427782E+00
(PID.TID 0000.0001)  ploadbar=  1.01079591773311E+05
 cg2d: Sum(rhs),rhsMax =  -7.14018265984165E+01  1.98081555149349E+00
(PID.TID 0000.0001)  ploadbar=  1.01080115811629E+05
 cg2d: Sum(rhs),rhsMax =  -7.23508582231045E+01  1.95468804732711E+00
(PID.TID 0000.0001)  ploadbar=  1.01080639849948E+05
 cg2d: Sum(rhs),rhsMax =  -7.34913169361034E+01  1.92421586611288E+00
(PID.TID 0000.0001)  ploadbar=  1.01081163888266E+05
 cg2d: Sum(rhs),rhsMax =  -7.47895202691955E+01  1.89067245181181E+00
(PID.TID 0000.0001)  ploadbar=  1.01081687926585E+05
 cg2d: Sum(rhs),rhsMax =  -7.62104465507404E+01  1.85527383700034E+00
(PID.TID 0000.0001)  ploadbar=  1.01082211964903E+05
 cg2d: Sum(rhs),rhsMax =  -7.77202265536865E+01  1.81907694800293E+00
(PID.TID 0000.0001)  ploadbar=  1.01082736003221E+05
 cg2d: Sum(rhs),rhsMax =  -7.93485954288437E+01  1.78166623241898E+00
(PID.TID 0000.0001)  ploadbar=  1.01083171392902E+05
 cg2d: Sum(rhs),rhsMax =  -8.11042112331823E+01  1.74305409872820E+00
(PID.TID 0000.0001)  ploadbar=  1.01083606782584E+05
 cg2d: Sum(rhs),rhsMax =  -8.30264604769470E+01  1.70267587638916E+00
(PID.TID 0000.0001)  ploadbar=  1.01084042172265E+05
 cg2d: Sum(rhs),rhsMax =  -8.51658389056778E+01  1.65990297432028E+00
(PID.TID 0000.0001)  ploadbar=  1.01084477561946E+05
 cg2d: Sum(rhs),rhsMax =  -8.75694274574309E+01  1.61435646086756E+00
(PID.TID 0000.0001)  ploadbar=  1.01084912951627E+05
 cg2d: Sum(rhs),rhsMax =  -9.02756392794700E+01  1.56599030310564E+00
(PID.TID 0000.0001)  ploadbar=  1.01085348341308E+05
 cg2d: Sum(rhs),rhsMax =  -9.31451046413959E+01  1.51779466575280E+00
(PID.TID 0000.0001)  ploadbar=  1.01086110034529E+05
 cg2d: Sum(rhs),rhsMax =  -9.60870612072542E+01  1.47138620567193E+00
(PID.TID 0000.0001)  ploadbar=  1.01086871727751E+05
 cg2d: Sum(rhs),rhsMax =  -9.89998481050198E+01  1.42817624492918E+00
(PID.TID 0000.0001)  ploadbar=  1.01087633420972E+05
 cg2d: Sum(rhs),rhsMax =  -1.01711547708893E+02  1.39018785094525E+00
(PID.TID 0000.0001)  ploadbar=  1.01088395114194E+05
 cg2d: Sum(rhs),rhsMax =  -1.04419208030180E+02  1.35421790721731E+00
(PID.TID 0000.0001)  ploadbar=  1.01089156807416E+05
 cg2d: Sum(rhs),rhsMax =  -1.06688787876040E+02  1.32546770057953E+00
(PID.TID 0000.0001)  ploadbar=  1.01089918500637E+05
 cg2d: Sum(rhs),rhsMax =  -1.08812321433427E+02  1.29966456701298E+00
(PID.TID 0000.0001)  ploadbar=  1.01089747346356E+05
 cg2d: Sum(rhs),rhsMax =  -1.10923818440021E+02  1.27498415868716E+00
(PID.TID 0000.0001)  ploadbar=  1.01089576192075E+05
 cg2d: Sum(rhs),rhsMax =  -1.13169005509868E+02  1.24973278490749E+00
(PID.TID 0000.0001)  ploadbar=  1.01089405037794E+05
 cg2d: Sum(rhs),rhsMax =  -1.15685132997979E+02  1.22257089586739E+00
(PID.TID 0000.0001)  ploadbar=  1.01089233883513E+05
 cg2d: Sum(rhs),rhsMax =  -1.18576501825761E+02  1.19275100347639E+00
(PID.TID 0000.0001)  ploadbar=  1.01089062729232E+05
 cg2d: Sum(rhs),rhsMax =  -1.21945824646789E+02  1.15976009406138E+00
(PID.TID 0000.0001)  ploadbar=  1.01088891574952E+05
 cg2d: Sum(rhs),rhsMax =  -1.25103167806553E+02  1.13046438359773E+00
(PID.TID 0000.0001)  ploadbar=  1.01087897234371E+05
 cg2d: Sum(rhs),rhsMax =  -1.25707512286251E+02  1.12500365656519E+00
(PID.TID 0000.0001)  ploadbar=  1.01086902893790E+05
 cg2d: Sum(rhs),rhsMax =  -1.26448576303436E+02  1.11838253710016E+00
(PID.TID 0000.0001)  ploadbar=  1.01085908553209E+05
 cg2d: Sum(rhs),rhsMax =  -1.27244887360629E+02  1.11134439904615E+00
(PID.TID 0000.0001)  ploadbar=  1.01084914212628E+05
 cg2d: Sum(rhs),rhsMax =  -1.27965504936098E+02  1.10502549838855E+00
(PID.TID 0000.0001)  ploadbar=  1.01083919872048E+05
 cg2d: Sum(rhs),rhsMax =  -1.28389887124971E+02  1.10128616897138E+00
(PID.TID 0000.0001)  ploadbar=  1.01082925531467E+05
 cg2d: Sum(rhs),rhsMax =  -1.29107593805561E+02  1.09511161683312E+00
(PID.TID 0000.0001)  ploadbar=  1.01082320228132E+05
 cg2d: Sum(rhs),rhsMax =  -1.29456840325783E+02  1.09211928367663E+00
(PID.TID 0000.0001)  ploadbar=  1.01081714924797E+05
 cg2d: Sum(rhs),rhsMax =  -1.29847644087395E+02  1.08880475054829E+00
(PID.TID 0000.0001)  ploadbar=  1.01081109621463E+05
 cg2d: Sum(rhs),rhsMax =  -1.30369965050210E+02  1.08442539242893E+00
(PID.TID 0000.0001)  ploadbar=  1.01080504318128E+05
 cg2d: Sum(rhs),rhsMax =  -1.31232892491876E+02  1.07728792436089E+00
(PID.TID 0000.0001)  ploadbar=  1.01079899014793E+05
 cg2d: Sum(rhs),rhsMax =  -1.31594133530311E+02  1.07433389876529E+00
(PID.TID 0000.0001)  ploadbar=  1.01079293711459E+05
 cg2d: Sum(rhs),rhsMax =  -1.31691615720401E+02  1.07355768841567E+00
(PID.TID 0000.0001)  ploadbar=  1.01078429904125E+05
 cg2d: Sum(rhs),rhsMax =  -1.31735613822457E+02  1.07322708301244E+00
(PID.TID 0000.0001)  ploadbar=  1.01077566096792E+05
 cg2d: Sum(rhs),rhsMax =  -1.31750927291917E+02  1.07313680088866E+00
(PID.TID 0000.0001)  ploadbar=  1.01076702289458E+05
 cg2d: Sum(rhs),rhsMax =  -1.31748369192235E+02  1.07319515630947E+00
(PID.TID 0000.0001)  ploadbar=  1.01075838482125E+05
 cg2d: Sum(rhs),rhsMax =  -1.30739098982899E+02  1.08151818995933E+00
(PID.TID 0000.0001)  ploadbar=  1.01074974674791E+05
 cg2d: Sum(rhs),rhsMax =  -1.28194271097222E+02  1.10302320279145E+00
(PID.TID 0000.0001)  ploadbar=  1.01074110867458E+05
 cg2d: Sum(rhs),rhsMax =  -1.25433863951339E+02  1.12732410913925E+00
(PID.TID 0000.0001)  ploadbar=  1.01073057279495E+05
 cg2d: Sum(rhs),rhsMax =  -1.22795899063663E+02  1.15154712873619E+00
(PID.TID 0000.0001)  ploadbar=  1.01072003691532E+05
 cg2d: Sum(rhs),rhsMax =  -1.21800172137624E+02  1.16093420303554E+00
(PID.TID 0000.0001)  ploadbar=  1.01070950103569E+05
 cg2d: Sum(rhs),rhsMax =  -1.21181631677905E+02  1.16679646871614E+00
(PID.TID 0000.0001)  ploadbar=  1.01069896515607E+05
 cg2d: Sum(rhs),rhsMax =  -1.20414994667393E+02  1.17412264905302E+00
(PID.TID 0000.0001)  ploadbar=  1.01068842927644E+05
 cg2d: Sum(rhs),rhsMax =  -1.19602318824806E+02  1.18195470491978E+00
(PID.TID 0000.0001)  ploadbar=  1.01067789339681E+05
 cg2d: Sum(rhs),rhsMax =  -1.19552805956931E+02  1.18228963047057E+00
(PID.TID 0000.0001)  ploadbar=  1.01067341780322E+05
 cg2d: Sum(rhs),rhsMax =  -1.19829428907205E+02  1.17939432585677E+00
(PID.TID 0000.0001)  ploadbar=  1.01066894220962E+05
 cg2d: Sum(rhs),rhsMax =  -1.17269288660122E+02  1.20495387306147E+00
(PID.TID 0000.0001)  ploadbar=  1.01066446661603E+05
 cg2d: Sum(rhs),rhsMax =  -1.14628145539813E+02  1.23250182878215E+00
(PID.TID 0000.0001)  ploadbar=  1.01065999102244E+05
 cg2d: Sum(rhs),rhsMax =  -1.12409469703795E+02  1.25658119191784E+00
(PID.TID 0000.0001)  ploadbar=  1.01065551542884E+05
 cg2d: Sum(rhs),rhsMax =  -1.10536711396714E+02  1.27758911668480E+00
(PID.TID 0000.0001)  ploadbar=  1.01065103983525E+05
 cg2d: Sum(rhs),rhsMax =  -1.08862654927219E+02  1.29699449860969E+00
(PID.TID 0000.0001)  ploadbar=  1.01064135629359E+05
 cg2d: Sum(rhs),rhsMax =  -1.07448980404648E+02  1.31384247480172E+00
(PID.TID 0000.0001)  ploadbar=  1.01063167275193E+05
 cg2d: Sum(rhs),rhsMax =  -1.06203823050856E+02  1.32905090074030E+00
(PID.TID 0000.0001)  ploadbar=  1.01062198921027E+05
 cg2d: Sum(rhs),rhsMax =  -1.05109029982429E+02  1.34271515986335E+00
(PID.TID 0000.0001)  ploadbar=  1.01061230566860E+05
 cg2d: Sum(rhs),rhsMax =  -1.04152295070947E+02  1.35488415966594E+00
(PID.TID 0000.0001)  ploadbar=  1.01060262212694E+05
 cg2d: Sum(rhs),rhsMax =  -1.03330526030058E+02  1.36551219248779E+00
(PID.TID 0000.0001)  ploadbar=  1.01059293858528E+05
 cg2d: Sum(rhs),rhsMax =  -1.02659890028796E+02  1.37430604260443E+00
(PID.TID 0000.0001)  ploadbar=  1.01058827564707E+05
 cg2d: Sum(rhs),rhsMax =  -1.02130223640311E+02  1.38132221194581E+00
(PID.TID 0000.0001)  ploadbar=  1.01058361270887E+05
 cg2d: Sum(rhs),rhsMax =  -1.01712298470876E+02  1.38690001463973E+00
(PID.TID 0000.0001)  ploadbar=  1.01057894977066E+05
 cg2d: Sum(rhs),rhsMax =  -1.01379789559473E+02  1.39135849374665E+00
(PID.TID 0000.0001)  ploadbar=  1.01057428683246E+05
 cg2d: Sum(rhs),rhsMax =  -1.01150664837028E+02  1.39442307580445E+00
(PID.TID 0000.0001)  ploadbar=  1.01056962389425E+05
 cg2d: Sum(rhs),rhsMax =  -1.01042192673592E+02  1.39583407850889E+00
(PID.TID 0000.0001)  ploadbar=  1.01056496095605E+05
 cg2d: Sum(rhs),rhsMax =  -1.01102155692021E+02  1.39493595658916E+00
(PID.TID 0000.0001)  ploadbar=  1.01055692146475E+05
 cg2d: Sum(rhs),rhsMax =  -1.01319794073078E+02  1.39187523906751E+00
(PID.TID 0000.0001)  ploadbar=  1.01054888197346E+05
 cg2d: Sum(rhs),rhsMax =  -1.00573237646522E+02  1.40214392621462E+00
(PID.TID 0000.0001)  ploadbar=  1.01054084248216E+05
 cg2d: Sum(rhs),rhsMax =  -9.85866343823838E+01  1.43033684644655E+00
(PID.TID 0000.0001)  ploadbar=  1.01053280299087E+05
 cg2d: Sum(rhs),rhsMax =  -9.66494620442345E+01  1.45894489402152E+00
(PID.TID 0000.0001)  ploadbar=  1.01052476349957E+05
 cg2d: Sum(rhs),rhsMax =  -9.47503971055102E+01  1.48811475883606E+00
(PID.TID 0000.0001)  ploadbar=  1.01051672400828E+05
 cg2d: Sum(rhs),rhsMax =  -9.28840324291345E+01  1.51793774059791E+00
(PID.TID 0000.0001)  ploadbar=  1.01050797868151E+05
 cg2d: Sum(rhs),rhsMax =  -9.11059912539525E+01  1.54746923360477E+00
(PID.TID 0000.0001)  ploadbar=  1.01049923335473E+05
 cg2d: Sum(rhs),rhsMax =  -8.94562659388533E+01  1.57589285912942E+00
(PID.TID 0000.0001)  ploadbar=  1.01049048802796E+05
 cg2d: Sum(rhs),rhsMax =  -8.77113346524597E+01  1.60710709330136E+00
(PID.TID 0000.0001)  ploadbar=  1.01048174270119E+05
 cg2d: Sum(rhs),rhsMax =  -8.61175529939620E+01  1.63669129983640E+00
(PID.TID 0000.0001)  ploadbar=  1.01047299737441E+05
 cg2d: Sum(rhs),rhsMax =  -8.46549842112812E+01  1.66478528054477E+00
(PID.TID 0000.0001)  ploadbar=  1.01046425204764E+05
 cg2d: Sum(rhs),rhsMax =  -8.32757162091408E+01  1.69224183641555E+00
(PID.TID 0000.0001)  ploadbar=  1.01044666812121E+05
 cg2d: Sum(rhs),rhsMax =  -8.19845702634497E+01  1.71881723506426E+00
(PID.TID 0000.0001)  ploadbar=  1.01042908419478E+05
 cg2d: Sum(rhs),rhsMax =  -8.07609255173948E+01  1.74481351549502E+00
(PID.TID 0000.0001)  ploadbar=  1.01041150026835E+05
 cg2d: Sum(rhs),rhsMax =  -7.96012697205050E+01  1.77020878053404E+00
(PID.TID 0000.0001)  ploadbar=  1.01039391634191E+05
 cg2d: Sum(rhs),rhsMax =  -7.85340290453307E+01  1.79425769644040E+00
(PID.TID 0000.0001)  ploadbar=  1.01037633241548E+05
 cg2d: Sum(rhs),rhsMax =  -7.76024634332619E+01  1.81580492197525E+00
(PID.TID 0000.0001)  ploadbar=  1.01035874848905E+05
 cg2d: Sum(rhs),rhsMax =  -7.68385656304458E+01  1.83388099308531E+00
(PID.TID 0000.0001)  ploadbar=  1.01035761598783E+05
 cg2d: Sum(rhs),rhsMax =  -7.62877784213330E+01  1.84715196442455E+00
(PID.TID 0000.0001)  ploadbar=  1.01035648348661E+05
 cg2d: Sum(rhs),rhsMax =  -7.59968272212755E+01  1.85425932350471E+00
(PID.TID 0000.0001)  ploadbar=  1.01035535098540E+05
 cg2d: Sum(rhs),rhsMax =  -7.42361477589317E+01  1.89827181632467E+00
(PID.TID 0000.0001)  ploadbar=  1.01035421848418E+05
 cg2d: Sum(rhs),rhsMax =  -7.19746144170876E+01  1.95795357286094E+00
(PID.TID 0000.0001)  ploadbar=  1.01035308598296E+05
 cg2d: Sum(rhs),rhsMax =  -7.00530592365531E+01  2.01169467061488E+00
(PID.TID 0000.0001)  ploadbar=  1.01035195348174E+05
 cg2d: Sum(rhs),rhsMax =  -6.84329586842845E+01  2.05937817025917E+00
(PID.TID 0000.0001)  ploadbar=  1.01034248035384E+05
 cg2d: Sum(rhs),rhsMax =  -6.70154489050135E+01  2.10300767288467E+00
(PID.TID 0000.0001)  ploadbar=  1.01033300722593E+05
 cg2d: Sum(rhs),rhsMax =  -6.57911562694751E+01  2.14220864368472E+00
(PID.TID 0000.0001)  ploadbar=  1.01032353409803E+05
 cg2d: Sum(rhs),rhsMax =  -6.47288309907257E+01  2.17741122210680E+00
(PID.TID 0000.0001)  ploadbar=  1.01031406097013E+05
 cg2d: Sum(rhs),rhsMax =  -6.38067661357189E+01  2.20888233970550E+00
(PID.TID 0000.0001)  ploadbar=  1.01030458784222E+05
 cg2d: Sum(rhs),rhsMax =  -6.30027471442387E+01  2.23702105292873E+00
(PID.TID 0000.0001)  ploadbar=  1.01029511471432E+05
 cg2d: Sum(rhs),rhsMax =  -6.22593245401543E+01  2.26365793320759E+00
(PID.TID 0000.0001)  ploadbar=  1.01030461059375E+05
 cg2d: Sum(rhs),rhsMax =  -6.15736221955754E+01  2.28875722110437E+00
(PID.TID 0000.0001)  ploadbar=  1.01031410647319E+05
 cg2d: Sum(rhs),rhsMax =  -6.09299791323483E+01  2.31278853411049E+00
(PID.TID 0000.0001)  ploadbar=  1.01032360235262E+05
 cg2d: Sum(rhs),rhsMax =  -6.03253107564198E+01  2.33578005606887E+00
(PID.TID 0000.0001)  ploadbar=  1.01033309823206E+05
 cg2d: Sum(rhs),rhsMax =  -5.98620811212668E+01  2.35361885980371E+00
(PID.TID 0000.0001)  ploadbar=  1.01034259411149E+05
 cg2d: Sum(rhs),rhsMax =  -5.95982275604980E+01  2.36375483528991E+00
(PID.TID 0000.0001)  ploadbar=  1.01035208999093E+05
 cg2d: Sum(rhs),rhsMax =  -5.94758810878906E+01  2.36841396246301E+00
(PID.TID 0000.0001)  ploadbar=  1.01037263178513E+05
 cg2d: Sum(rhs),rhsMax =  -5.95168718321331E+01  2.36663643511469E+00
(PID.TID 0000.0001)  ploadbar=  1.01039317357933E+05
 cg2d: Sum(rhs),rhsMax =  -5.97000425470413E+01  2.35926792986793E+00
(PID.TID 0000.0001)  ploadbar=  1.01041371537353E+05
 cg2d: Sum(rhs),rhsMax =  -6.00266201556885E+01  2.34634996954301E+00
(PID.TID 0000.0001)  ploadbar=  1.01043425716773E+05
 cg2d: Sum(rhs),rhsMax =  -6.04839778998700E+01  2.32854370878060E+00
(PID.TID 0000.0001)  ploadbar=  1.01045479896193E+05
 cg2d: Sum(rhs),rhsMax =  -6.09990222964467E+01  2.30884120949844E+00
(PID.TID 0000.0001)  ploadbar=  1.01047534075613E+05
 cg2d: Sum(rhs),rhsMax =  -6.14682771482376E+01  2.29118811481268E+00
(PID.TID 0000.0001)  ploadbar=  1.01049022910155E+05
 cg2d: Sum(rhs),rhsMax =  -6.19002197990711E+01  2.27516890946445E+00
(PID.TID 0000.0001)  ploadbar=  1.01050511744697E+05
 cg2d: Sum(rhs),rhsMax =  -6.22935673160363E+01  2.26076566360641E+00
(PID.TID 0000.0001)  ploadbar=  1.01052000579239E+05
 cg2d: Sum(rhs),rhsMax =  -6.26635046050833E+01  2.24738131654163E+00
(PID.TID 0000.0001)  ploadbar=  1.01053489413780E+05
 cg2d: Sum(rhs),rhsMax =  -6.30212511781888E+01  2.23458886166436E+00
(PID.TID 0000.0001)  ploadbar=  1.01054978248322E+05
 cg2d: Sum(rhs),rhsMax =  -6.33592098100376E+01  2.22263355636465E+00
(PID.TID 0000.0001)  ploadbar=  1.01056467082864E+05
 cg2d: Sum(rhs),rhsMax =  -6.35243248842509E+01  2.21688164886064E+00
(PID.TID 0000.0001)  ploadbar=  1.01057784765472E+05
 cg2d: Sum(rhs),rhsMax =  -6.34547632061413E+01  2.21936355916166E+00
(PID.TID 0000.0001)  ploadbar=  1.01059102448081E+05
 cg2d: Sum(rhs),rhsMax =  -6.31227824220535E+01  2.23110044517017E+00
(PID.TID 0000.0001)  ploadbar=  1.01060420130689E+05
 cg2d: Sum(rhs),rhsMax =  -6.25429512900475E+01  2.25185723187885E+00
(PID.TID 0000.0001)  ploadbar=  1.01061737813297E+05
 cg2d: Sum(rhs),rhsMax =  -6.19150108825271E+01  2.27476494611782E+00
(PID.TID 0000.0001)  ploadbar=  1.01063055495906E+05
 cg2d: Sum(rhs),rhsMax =  -6.12570845573861E+01  2.29927228836407E+00
(PID.TID 0000.0001)  ploadbar=  1.01064373178514E+05
 cg2d: Sum(rhs),rhsMax =  -6.05957099015072E+01  2.32444819048388E+00
(PID.TID 0000.0001)  ploadbar=  1.01065924456343E+05
 cg2d: Sum(rhs),rhsMax =  -6.01153718978881E+01  2.34308423255100E+00
(PID.TID 0000.0001)  ploadbar=  1.01067475734173E+05
 cg2d: Sum(rhs),rhsMax =  -5.98145870713499E+01  2.35490226664172E+00
(PID.TID 0000.0001)  ploadbar=  1.01069027012002E+05
 cg2d: Sum(rhs),rhsMax =  -5.96425326827209E+01  2.36170326167205E+00
(PID.TID 0000.0001)  ploadbar=  1.01070578289831E+05
 cg2d: Sum(rhs),rhsMax =  -5.94142453259565E+01  2.37075339179438E+00
(PID.TID 0000.0001)  ploadbar=  1.01072129567661E+05
 cg2d: Sum(rhs),rhsMax =  -5.92463012106509E+01  2.37740824253771E+00
(PID.TID 0000.0001)  ploadbar=  1.01073680845490E+05
 cg2d: Sum(rhs),rhsMax =  -5.91291316408438E+01  2.38216644952736E+00
(PID.TID 0000.0001)  ploadbar=  1.01075478000332E+05
 cg2d: Sum(rhs),rhsMax =  -5.90371491216893E+01  2.38600975802996E+00
(PID.TID 0000.0001)  ploadbar=  1.01077275155173E+05
 cg2d: Sum(rhs),rhsMax =  -5.89874514784421E+01  2.38821754082923E+00
(PID.TID 0000.0001)  ploadbar=  1.01079072310015E+05
 cg2d: Sum(rhs),rhsMax =  -5.89769018367884E+01  2.38889690780907E+00
(PID.TID 0000.0001)  ploadbar=  1.01080869464856E+05
 cg2d: Sum(rhs),rhsMax =  -5.90108070853244E+01  2.38782058603170E+00
(PID.TID 0000.0001)  ploadbar=  1.01082666619698E+05
 cg2d: Sum(rhs),rhsMax =  -5.91034335239166E+01  2.38440864831960E+00
(PID.TID 0000.0001)  ploadbar=  1.01084463774540E+05
 cg2d: Sum(rhs),rhsMax =  -5.92853606572776E+01  2.37740510510944E+00
(PID.TID 0000.0001)  ploadbar=  1.01085328530702E+05
 cg2d: Sum(rhs),rhsMax =  -5.95326688358858E+01  2.36781761431900E+00
(PID.TID 0000.0001)  ploadbar=  1.01086193286865E+05
 cg2d: Sum(rhs),rhsMax =  -5.98474074193674E+01  2.35563416766244E+00
(PID.TID 0000.0001)  ploadbar=  1.01087058043027E+05
 cg2d: Sum(rhs),rhsMax =  -6.02186796123671E+01  2.34135687334646E+00
(PID.TID 0000.0001)  ploadbar=  1.01087922799190E+05
 cg2d: Sum(rhs),rhsMax =  -6.06643205876053E+01  2.32437821198397E+00
(PID.TID 0000.0001)  ploadbar=  1.01088787555352E+05
 cg2d: Sum(rhs),rhsMax =  -6.11743517082492E+01  2.30519380927089E+00
(PID.TID 0000.0001)  ploadbar=  1.01089652311515E+05
 cg2d: Sum(rhs),rhsMax =  -6.17647889302607E+01  2.28340291075136E+00
(PID.TID 0000.0001)  ploadbar=  1.01089881012785E+05
 cg2d: Sum(rhs),rhsMax =  -6.23072847665575E+01  2.26379108262583E+00
(PID.TID 0000.0001)  ploadbar=  1.01090109714055E+05
 cg2d: Sum(rhs),rhsMax =  -6.27704182596204E+01  2.24736256167327E+00
(PID.TID 0000.0001)  ploadbar=  1.01090338415325E+05
 cg2d: Sum(rhs),rhsMax =  -6.31183068968440E+01  2.23524368486328E+00
(PID.TID 0000.0001)  ploadbar=  1.01090567116595E+05
 cg2d: Sum(rhs),rhsMax =  -6.33563793054446E+01  2.22709668483927E+00
(PID.TID 0000.0001)  ploadbar=  1.01090795817864E+05
 cg2d: Sum(rhs),rhsMax =  -6.34744396008485E+01  2.22319059476699E+00
(PID.TID 0000.0001)  ploadbar=  1.01091024519134E+05
 cg2d: Sum(rhs),rhsMax =  -6.34942646009699E+01  2.22269838563874E+00
(PID.TID 0000.0001)  ploadbar=  1.01091407586066E+05
 cg2d: Sum(rhs),rhsMax =  -6.34235727902633E+01  2.22533476517909E+00
(PID.TID 0000.0001)  ploadbar=  1.01091790652997E+05
 cg2d: Sum(rhs),rhsMax =  -6.32521170162790E+01  2.23147911616337E+00
(PID.TID 0000.0001)  ploadbar=  1.01092173719929E+05
 cg2d: Sum(rhs),rhsMax =  -6.30611229801332E+01  2.23829914731651E+00
(PID.TID 0000.0001)  ploadbar=  1.01092556786860E+05
 cg2d: Sum(rhs),rhsMax =  -6.28727513559211E+01  2.24500876301982E+00
(PID.TID 0000.0001)  ploadbar=  1.01092939853791E+05
 cg2d: Sum(rhs),rhsMax =  -6.27115154276477E+01  2.25071824272786E+00
(PID.TID 0000.0001)  ploadbar=  1.01093322920723E+05
 cg2d: Sum(rhs),rhsMax =  -6.25138383358192E+01  2.25785730242810E+00
(PID.TID 0000.0001)  ploadbar=  1.01093234217025E+05
 cg2d: Sum(rhs),rhsMax =  -6.23361856065953E+01  2.26437278121518E+00
(PID.TID 0000.0001)  ploadbar=  1.01093145513328E+05
 cg2d: Sum(rhs),rhsMax =  -6.21776237137720E+01  2.27026834218183E+00
(PID.TID 0000.0001)  ploadbar=  1.01093056809630E+05
 cg2d: Sum(rhs),rhsMax =  -6.20138063208467E+01  2.27641295282730E+00
(PID.TID 0000.0001)  ploadbar=  1.01092968105932E+05
 cg2d: Sum(rhs),rhsMax =  -6.18398525003962E+01  2.28298097167458E+00
(PID.TID 0000.0001)  ploadbar=  1.01092879402235E+05
 cg2d: Sum(rhs),rhsMax =  -6.16356332603028E+01  2.29072751718762E+00
(PID.TID 0000.0001)  ploadbar=  1.01092790698537E+05
 cg2d: Sum(rhs),rhsMax =  -6.14351714084791E+01  2.29833995084062E+00
(PID.TID 0000.0001)  ploadbar=  1.01092998235478E+05
 cg2d: Sum(rhs),rhsMax =  -6.12309619410353E+01  2.30609239416479E+00
(PID.TID 0000.0001)  ploadbar=  1.01093205772418E+05
 cg2d: Sum(rhs),rhsMax =  -6.10010993138760E+01  2.31482169931753E+00
(PID.TID 0000.0001)  ploadbar=  1.01093413309359E+05
 cg2d: Sum(rhs),rhsMax =  -6.07550053371286E+01  2.32418104071230E+00
(PID.TID 0000.0001)  ploadbar=  1.01093620846299E+05
 cg2d: Sum(rhs),rhsMax =  -6.05159532241658E+01  2.33327849609403E+00
(PID.TID 0000.0001)  ploadbar=  1.01093828383239E+05
 cg2d: Sum(rhs),rhsMax =  -6.03058658267118E+01  2.34124969871849E+00
(PID.TID 0000.0001)  ploadbar=  1.01094035920180E+05
 cg2d: Sum(rhs),rhsMax =  -6.00727136776254E+01  2.35016849203340E+00
(PID.TID 0000.0001)  ploadbar=  1.01094666386219E+05
 cg2d: Sum(rhs),rhsMax =  -5.98991961086005E+01  2.35677510853863E+00
(PID.TID 0000.0001)  ploadbar=  1.01095296852258E+05
 cg2d: Sum(rhs),rhsMax =  -5.97981345048751E+01  2.36051112265091E+00
(PID.TID 0000.0001)  ploadbar=  1.01095927318296E+05
 cg2d: Sum(rhs),rhsMax =  -5.97604037577135E+01  2.36170206515746E+00
(PID.TID 0000.0001)  ploadbar=  1.01096557784335E+05
 cg2d: Sum(rhs),rhsMax =  -5.97950228003435E+01  2.35998195039562E+00
(PID.TID 0000.0001)  ploadbar=  1.01097188250374E+05
 cg2d: Sum(rhs),rhsMax =  -5.98951818338066E+01  2.35561995992809E+00
(PID.TID 0000.0001)  ploadbar=  1.01097818716413E+05
 cg2d: Sum(rhs),rhsMax =  -6.00434245234183E+01  2.34938685629032E+00
(PID.TID 0000.0001)  ploadbar=  1.01097639274686E+05
 cg2d: Sum(rhs),rhsMax =  -6.02256341394592E+01  2.34184696456327E+00
(PID.TID 0000.0001)  ploadbar=  1.01097459832959E+05
 cg2d: Sum(rhs),rhsMax =  -6.04659636251227E+01  2.33208379003408E+00
(PID.TID 0000.0001)  ploadbar=  1.01097280391232E+05
 cg2d: Sum(rhs),rhsMax =  -6.07627967922326E+01  2.32020477211189E+00
(PID.TID 0000.0001)  ploadbar=  1.01097100949505E+05
 cg2d: Sum(rhs),rhsMax =  -6.11161366977238E+01  2.30626910434912E+00
(PID.TID 0000.0001)  ploadbar=  1.01096921507778E+05
 cg2d: Sum(rhs),rhsMax =  -6.15240439803316E+01  2.29042057613509E+00
(PID.TID 0000.0001)  ploadbar=  1.01096742066051E+05
 cg2d: Sum(rhs),rhsMax =  -6.20041560556414E+01  2.27223117553999E+00
(PID.TID 0000.0001)  ploadbar=  1.01096834011377E+05
 cg2d: Sum(rhs),rhsMax =  -6.25268267204209E+01  2.25284079368587E+00
(PID.TID 0000.0001)  ploadbar=  1.01096925956702E+05
 cg2d: Sum(rhs),rhsMax =  -6.31055099700585E+01  2.23183058000170E+00
(PID.TID 0000.0001)  ploadbar=  1.01097017902028E+05
 cg2d: Sum(rhs),rhsMax =  -6.37372079439528E+01  2.20939588544449E+00
(PID.TID 0000.0001)  ploadbar=  1.01097109847353E+05
 cg2d: Sum(rhs),rhsMax =  -6.44123879779260E+01  2.18595616605768E+00
(PID.TID 0000.0001)  ploadbar=  1.01097201792679E+05
 cg2d: Sum(rhs),rhsMax =  -6.51294169959226E+01  2.16164778526628E+00
(PID.TID 0000.0001)  ploadbar=  1.01097293738004E+05
 cg2d: Sum(rhs),rhsMax =  -6.58978455702306E+01  2.13621835620370E+00
(PID.TID 0000.0001)  ploadbar=  1.01096573663068E+05
 cg2d: Sum(rhs),rhsMax =  -6.67008078473364E+01  2.11028210728098E+00
(PID.TID 0000.0001)  ploadbar=  1.01095853588132E+05
 cg2d: Sum(rhs),rhsMax =  -6.75349561373536E+01  2.08400450975438E+00
(PID.TID 0000.0001)  ploadbar=  1.01095133513196E+05
 cg2d: Sum(rhs),rhsMax =  -6.84177306705970E+01  2.05690317309128E+00
(PID.TID 0000.0001)  ploadbar=  1.01094413438260E+05
 cg2d: Sum(rhs),rhsMax =  -6.93563540563287E+01  2.02884659926846E+00
(PID.TID 0000.0001)  ploadbar=  1.01093693363324E+05
 cg2d: Sum(rhs),rhsMax =  -7.03609886568171E+01  1.99964525959536E+00
(PID.TID 0000.0001)  ploadbar=  1.01092973288388E+05
 cg2d: Sum(rhs),rhsMax =  -7.14681044791300E+01  1.96844278439029E+00
(PID.TID 0000.0001)  ploadbar=  1.01091358429383E+05
 cg2d: Sum(rhs),rhsMax =  -7.26299132108244E+01  1.93672125350032E+00
(PID.TID 0000.0001)  ploadbar=  1.01089743570377E+05
 cg2d: Sum(rhs),rhsMax =  -7.38240849776219E+01  1.90514998175847E+00
(PID.TID 0000.0001)  ploadbar=  1.01088128711372E+05
 cg2d: Sum(rhs),rhsMax =  -7.50233388360121E+01  1.87444084594414E+00
(PID.TID 0000.0001)  ploadbar=  1.01086513852367E+05
 cg2d: Sum(rhs),rhsMax =  -7.61987126569262E+01  1.84525098414668E+00
(PID.TID 0000.0001)  ploadbar=  1.01084898993362E+05
 cg2d: Sum(rhs),rhsMax =  -7.73228876417264E+01  1.81811142890876E+00
(PID.TID 0000.0001)  ploadbar=  1.01083284134357E+05
 cg2d: Sum(rhs),rhsMax =  -7.83520661362979E+01  1.79392661487971E+00
(PID.TID 0000.0001)  ploadbar=  1.01081496680891E+05
 cg2d: Sum(rhs),rhsMax =  -7.92448538241247E+01  1.77341411504854E+00
(PID.TID 0000.0001)  ploadbar=  1.01079709227424E+05
 cg2d: Sum(rhs),rhsMax =  -8.00155409926021E+01  1.75602301778037E+00
(PID.TID 0000.0001)  ploadbar=  1.01077921773958E+05
 cg2d: Sum(rhs),rhsMax =  -8.06579816984404E+01  1.74170992466242E+00
(PID.TID 0000.0001)  ploadbar=  1.01076134320492E+05
 cg2d: Sum(rhs),rhsMax =  -8.06539694073372E+01  1.74144189822272E+00
(PID.TID 0000.0001)  ploadbar=  1.01074346867026E+05
 cg2d: Sum(rhs),rhsMax =  -8.00028443784553E+01  1.75522328667762E+00
(PID.TID 0000.0001)  ploadbar=  1.01072559413560E+05
 cg2d: Sum(rhs),rhsMax =  -7.95151772042380E+01  1.76566108980177E+00
(PID.TID 0000.0001)  ploadbar=  1.01069915658318E+05
 cg2d: Sum(rhs),rhsMax =  -7.92230379533236E+01  1.77188836116288E+00
(PID.TID 0000.0001)  ploadbar=  1.01067271903075E+05
 cg2d: Sum(rhs),rhsMax =  -7.91287315802822E+01  1.77375176097166E+00
(PID.TID 0000.0001)  ploadbar=  1.01064628147833E+05
 cg2d: Sum(rhs),rhsMax =  -7.91996321130256E+01  1.77194560340211E+00
(PID.TID 0000.0001)  ploadbar=  1.01061984392591E+05
 cg2d: Sum(rhs),rhsMax =  -7.93964418391669E+01  1.76736172961267E+00
(PID.TID 0000.0001)  ploadbar=  1.01059340637349E+05
 cg2d: Sum(rhs),rhsMax =  -7.97258933621637E+01  1.75989844504340E+00
(PID.TID 0000.0001)  ploadbar=  1.01056696882106E+05
 cg2d: Sum(rhs),rhsMax =  -8.02712328511993E+01  1.74782883890768E+00
(PID.TID 0000.0001)  ploadbar=  1.01055037477589E+05
 cg2d: Sum(rhs),rhsMax =  -8.09307836769988E+01  1.73349403494214E+00
(PID.TID 0000.0001)  ploadbar=  1.01053378073072E+05
 cg2d: Sum(rhs),rhsMax =  -8.17028460390398E+01  1.71704034737840E+00
(PID.TID 0000.0001)  ploadbar=  1.01051718668554E+05
 cg2d: Sum(rhs),rhsMax =  -8.25948819180723E+01  1.69843397080392E+00
(PID.TID 0000.0001)  ploadbar=  1.01050059264037E+05
 cg2d: Sum(rhs),rhsMax =  -8.36300548754105E+01  1.67735451621348E+00
(PID.TID 0000.0001)  ploadbar=  1.01048399859520E+05
 cg2d: Sum(rhs),rhsMax =  -8.47751359056523E+01  1.65464348747204E+00
(PID.TID 0000.0001)  ploadbar=  1.01046740455003E+05
 cg2d: Sum(rhs),rhsMax =  -8.59804930486806E+01  1.63141814149379E+00
(PID.TID 0000.0001)  ploadbar=  1.01044243121800E+05
 cg2d: Sum(rhs),rhsMax =  -8.71653277646411E+01  1.60922336329049E+00
(PID.TID 0000.0001)  ploadbar=  1.01041745788598E+05
 cg2d: Sum(rhs),rhsMax =  -8.82858408625952E+01  1.58877812394680E+00
(PID.TID 0000.0001)  ploadbar=  1.01039248455395E+05
 cg2d: Sum(rhs),rhsMax =  -8.93241942916963E+01  1.57027867846304E+00
(PID.TID 0000.0001)  ploadbar=  1.01036751122193E+05
 cg2d: Sum(rhs),rhsMax =  -9.02851753741109E+01  1.55351854561837E+00
(PID.TID 0000.0001)  ploadbar=  1.01034253788990E+05
 cg2d: Sum(rhs),rhsMax =  -9.11828146268999E+01  1.53815719674577E+00
(PID.TID 0000.0001)  ploadbar=  1.01031756455788E+05
 cg2d: Sum(rhs),rhsMax =  -9.20965037555244E+01  1.52281636431350E+00
(PID.TID 0000.0001)  ploadbar=  1.01029637118681E+05
 cg2d: Sum(rhs),rhsMax =  -9.30364702418103E+01  1.50733141380782E+00
(PID.TID 0000.0001)  ploadbar=  1.01027517781575E+05
 cg2d: Sum(rhs),rhsMax =  -9.40116110171637E+01  1.49157235217769E+00
(PID.TID 0000.0001)  ploadbar=  1.01025398444468E+05
 cg2d: Sum(rhs),rhsMax =  -9.50246179859124E+01  1.47551906078805E+00
(PID.TID 0000.0001)  ploadbar=  1.01023279107362E+05
 cg2d: Sum(rhs),rhsMax =  -9.61705640467183E+01  1.45775398722550E+00
(PID.TID 0000.0001)  ploadbar=  1.01021159770255E+05
 cg2d: Sum(rhs),rhsMax =  -9.74135971782853E+01  1.43893918902356E+00
(PID.TID 0000.0001)  ploadbar=  1.01019040433148E+05
 cg2d: Sum(rhs),rhsMax =  -9.73663996893300E+01  1.43947457371904E+00
(PID.TID 0000.0001)  ploadbar=  1.01018256923231E+05
 cg2d: Sum(rhs),rhsMax =  -9.72953486617571E+01  1.44039018770875E+00
(PID.TID 0000.0001)  ploadbar=  1.01017473413314E+05
 cg2d: Sum(rhs),rhsMax =  -9.73565062374761E+01  1.43936080454770E+00
(PID.TID 0000.0001)  ploadbar=  1.01016689903397E+05
 cg2d: Sum(rhs),rhsMax =  -9.75104630369900E+01  1.43697258924210E+00
(PID.TID 0000.0001)  ploadbar=  1.01015906393480E+05
 cg2d: Sum(rhs),rhsMax =  -9.77520128431561E+01  1.43331575992680E+00
(PID.TID 0000.0001)  ploadbar=  1.01015122883563E+05
 cg2d: Sum(rhs),rhsMax =  -9.81088656867738E+01  1.42800654524068E+00
(PID.TID 0000.0001)  ploadbar=  1.01014339373646E+05
 cg2d: Sum(rhs),rhsMax =  -9.84646181162057E+01  1.42276761959643E+00
(PID.TID 0000.0001)  ploadbar=  1.01013563305015E+05
 cg2d: Sum(rhs),rhsMax =  -9.88840190323345E+01  1.41666639540931E+00
(PID.TID 0000.0001)  ploadbar=  1.01012787236384E+05
 cg2d: Sum(rhs),rhsMax =  -9.93601264968843E+01  1.40982416052626E+00
(PID.TID 0000.0001)  ploadbar=  1.01012011167753E+05
 cg2d: Sum(rhs),rhsMax =  -9.99004221108436E+01  1.40215459927437E+00
(PID.TID 0000.0001)  ploadbar=  1.01011235099122E+05
 cg2d: Sum(rhs),rhsMax =  -1.00511865810769E+02  1.39358245198213E+00
(PID.TID 0000.0001)  ploadbar=  1.01010459030491E+05
 cg2d: Sum(rhs),rhsMax =  -1.01198246991191E+02  1.38408246848804E+00
(PID.TID 0000.0001)  ploadbar=  1.01009682961859E+05
 cg2d: Sum(rhs),rhsMax =  -1.02036873091466E+02  1.37267559184029E+00
(PID.TID 0000.0001)  ploadbar=  1.01009900955962E+05
 cg2d: Sum(rhs),rhsMax =  -1.03023619890480E+02  1.35950012138975E+00
(PID.TID 0000.0001)  ploadbar=  1.01010118950065E+05
 cg2d: Sum(rhs),rhsMax =  -1.04064851883950E+02  1.34586949974415E+00
(PID.TID 0000.0001)  ploadbar=  1.01010336944168E+05
 cg2d: Sum(rhs),rhsMax =  -1.05088332863658E+02  1.33273022708217E+00
(PID.TID 0000.0001)  ploadbar=  1.01010554938271E+05
 cg2d: Sum(rhs),rhsMax =  -1.06096167473914E+02  1.32002813002778E+00
(PID.TID 0000.0001)  ploadbar=  1.01010772932374E+05
 cg2d: Sum(rhs),rhsMax =  -1.07080157887923E+02  1.30784130157759E+00
(PID.TID 0000.0001)  ploadbar=  1.01010990926477E+05
 cg2d: Sum(rhs),rhsMax =  -1.07865258817883E+02  1.29828237361306E+00
(PID.TID 0000.0001)  ploadbar=  1.01010086997080E+05
 cg2d: Sum(rhs),rhsMax =  -1.08434664085117E+02  1.29143260964150E+00
(PID.TID 0000.0001)  ploadbar=  1.01009183067684E+05
 cg2d: Sum(rhs),rhsMax =  -1.08871344675081E+02  1.28622370370324E+00
(PID.TID 0000.0001)  ploadbar=  1.01008279138287E+05
 cg2d: Sum(rhs),rhsMax =  -1.09259404345960E+02  1.28162768370540E+00
(PID.TID 0000.0001)  ploadbar=  1.01007375208891E+05
 cg2d: Sum(rhs),rhsMax =  -1.09646473227284E+02  1.27707520374026E+00
(PID.TID 0000.0001)  ploadbar=  1.01006471279494E+05
 cg2d: Sum(rhs),rhsMax =  -1.10054598840376E+02  1.27230772747398E+00
(PID.TID 0000.0001)  ploadbar=  1.01005567350098E+05
 cg2d: Sum(rhs),rhsMax =  -1.10611929927465E+02  1.26590801314311E+00
(PID.TID 0000.0001)  ploadbar=  1.01004998860418E+05
 cg2d: Sum(rhs),rhsMax =  -1.11362283799312E+02  1.25740912889479E+00
(PID.TID 0000.0001)  ploadbar=  1.01004430370738E+05
 cg2d: Sum(rhs),rhsMax =  -1.12323146721845E+02  1.24669739958299E+00
(PID.TID 0000.0001)  ploadbar=  1.01003861881058E+05
 cg2d: Sum(rhs),rhsMax =  -1.13437050547161E+02  1.23451046963618E+00
(PID.TID 0000.0001)  ploadbar=  1.01003293391378E+05
 cg2d: Sum(rhs),rhsMax =  -1.12585173367863E+02  1.24392004050136E+00
(PID.TID 0000.0001)  ploadbar=  1.01002724901698E+05
 cg2d: Sum(rhs),rhsMax =  -1.10602179801740E+02  1.26631566639451E+00
(PID.TID 0000.0001)  ploadbar=  1.01002156412018E+05
 cg2d: Sum(rhs),rhsMax =  -1.08351618594635E+02  1.29272287809151E+00
(PID.TID 0000.0001)  ploadbar=  1.01001961978017E+05
 cg2d: Sum(rhs),rhsMax =  -1.06064551912339E+02  1.32070553795663E+00
(PID.TID 0000.0001)  ploadbar=  1.01001767544015E+05
 cg2d: Sum(rhs),rhsMax =  -1.04277778928015E+02  1.34344516966133E+00
(PID.TID 0000.0001)  ploadbar=  1.01001573110014E+05
 cg2d: Sum(rhs),rhsMax =  -1.02861572801819E+02  1.36204985287299E+00
(PID.TID 0000.0001)  ploadbar=  1.01001378676013E+05
 cg2d: Sum(rhs),rhsMax =  -1.01810599284771E+02  1.37620767197392E+00
(PID.TID 0000.0001)  ploadbar=  1.01001184242011E+05
 cg2d: Sum(rhs),rhsMax =  -1.01036451945641E+02  1.38683077805226E+00
(PID.TID 0000.0001)  ploadbar=  1.01000989808010E+05
 cg2d: Sum(rhs),rhsMax =  -1.00445901972470E+02  1.39507560280382E+00
(PID.TID 0000.0001)  ploadbar=  1.01002179554155E+05
 cg2d: Sum(rhs),rhsMax =  -9.99558554256574E+01  1.40201202985865E+00
(PID.TID 0000.0001)  ploadbar=  1.01003369300300E+05
 cg2d: Sum(rhs),rhsMax =  -9.95352036647847E+01  1.40804192007374E+00
(PID.TID 0000.0001)  ploadbar=  1.01004559046446E+05
 cg2d: Sum(rhs),rhsMax =  -9.91503743211757E+01  1.41362679701038E+00
(PID.TID 0000.0001)  ploadbar=  1.01005748792591E+05
 cg2d: Sum(rhs),rhsMax =  -9.87901552658350E+01  1.41891951108269E+00
(PID.TID 0000.0001)  ploadbar=  1.01006938538736E+05
 cg2d: Sum(rhs),rhsMax =  -9.84624547534297E+01  1.42378952527224E+00
(PID.TID 0000.0001)  ploadbar=  1.01008128284881E+05
 cg2d: Sum(rhs),rhsMax =  -9.80691846487543E+01  1.42963178492034E+00
(PID.TID 0000.0001)  ploadbar=  1.01008532541168E+05
 cg2d: Sum(rhs),rhsMax =  -9.77009061131447E+01  1.43512082281833E+00
(PID.TID 0000.0001)  ploadbar=  1.01008936797454E+05
 cg2d: Sum(rhs),rhsMax =  -9.73768763979432E+01  1.43995743430714E+00
(PID.TID 0000.0001)  ploadbar=  1.01009341053741E+05
 cg2d: Sum(rhs),rhsMax =  -9.70724910252561E+01  1.44448844051048E+00
(PID.TID 0000.0001)  ploadbar=  1.01009745310027E+05
 cg2d: Sum(rhs),rhsMax =  -9.67756918199068E+01  1.44888682004005E+00
(PID.TID 0000.0001)  ploadbar=  1.01010149566314E+05
 cg2d: Sum(rhs),rhsMax =  -9.64870406260438E+01  1.45313800956253E+00
(PID.TID 0000.0001)  ploadbar=  1.01010553822600E+05
 cg2d: Sum(rhs),rhsMax =  -9.61610447525034E+01  1.45801079448466E+00
(PID.TID 0000.0001)  ploadbar=  1.01011167914075E+05
 cg2d: Sum(rhs),rhsMax =  -9.57781980760503E+01  1.46379651889523E+00
(PID.TID 0000.0001)  ploadbar=  1.01011782005549E+05
 cg2d: Sum(rhs),rhsMax =  -9.54138539615739E+01  1.46934656574637E+00
(PID.TID 0000.0001)  ploadbar=  1.01012396097023E+05
 cg2d: Sum(rhs),rhsMax =  -9.50831661969363E+01  1.47441827905212E+00
(PID.TID 0000.0001)  ploadbar=  1.01013010188498E+05
 cg2d: Sum(rhs),rhsMax =  -9.47703128379843E+01  1.47925092416336E+00
(PID.TID 0000.0001)  ploadbar=  1.01013624279972E+05
 cg2d: Sum(rhs),rhsMax =  -9.45002859323295E+01  1.48345408498300E+00
(PID.TID 0000.0001)  ploadbar=  1.01014238371447E+05
 cg2d: Sum(rhs),rhsMax =  -9.42680140034511E+01  1.48709660742464E+00
(PID.TID 0000.0001)  ploadbar=  1.01015712500994E+05
 cg2d: Sum(rhs),rhsMax =  -9.40967260533637E+01  1.48979626223451E+00
(PID.TID 0000.0001)  ploadbar=  1.01017186630542E+05
 cg2d: Sum(rhs),rhsMax =  -9.39758744336011E+01  1.49171146969529E+00
(PID.TID 0000.0001)  ploadbar=  1.01018660760089E+05
 cg2d: Sum(rhs),rhsMax =  -9.38972065366558E+01  1.49296755337755E+00
(PID.TID 0000.0001)  ploadbar=  1.01020134889637E+05
 cg2d: Sum(rhs),rhsMax =  -9.38664342522361E+01  1.49346459932791E+00
(PID.TID 0000.0001)  ploadbar=  1.01021609019184E+05
 cg2d: Sum(rhs),rhsMax =  -9.39122595176908E+01  1.49273653679236E+00
(PID.TID 0000.0001)  ploadbar=  1.01023083148732E+05
 cg2d: Sum(rhs),rhsMax =  -9.39669965294750E+01  1.49186999765904E+00
(PID.TID 0000.0001)  ploadbar=  1.01024949051396E+05
 cg2d: Sum(rhs),rhsMax =  -9.39765075792990E+01  1.49171437033057E+00
(PID.TID 0000.0001)  ploadbar=  1.01026814954059E+05
 cg2d: Sum(rhs),rhsMax =  -9.39601930208857E+01  1.49195978413032E+00
(PID.TID 0000.0001)  ploadbar=  1.01028680856723E+05
 cg2d: Sum(rhs),rhsMax =  -9.39703416863027E+01  1.49177802906934E+00
(PID.TID 0000.0001)  ploadbar=  1.01030546759387E+05
 cg2d: Sum(rhs),rhsMax =  -9.40418627983424E+01  1.49061221735347E+00
(PID.TID 0000.0001)  ploadbar=  1.01032412662050E+05
 cg2d: Sum(rhs),rhsMax =  -9.42425894829478E+01  1.48739037107363E+00
(PID.TID 0000.0001)  ploadbar=  1.01034278564714E+05
 cg2d: Sum(rhs),rhsMax =  -9.45521219735543E+01  1.48245113129542E+00
(PID.TID 0000.0001)  ploadbar=  1.01034960584166E+05
 cg2d: Sum(rhs),rhsMax =  -9.49672502701155E+01  1.47585907645102E+00
(PID.TID 0000.0001)  ploadbar=  1.01035642603617E+05
 cg2d: Sum(rhs),rhsMax =  -9.54674422525127E+01  1.46796777951420E+00
(PID.TID 0000.0001)  ploadbar=  1.01036324623069E+05
 cg2d: Sum(rhs),rhsMax =  -9.60031053614878E+01  1.45956850966151E+00
(PID.TID 0000.0001)  ploadbar=  1.01037006642520E+05
 cg2d: Sum(rhs),rhsMax =  -9.65297277910172E+01  1.45134636637572E+00
(PID.TID 0000.0001)  ploadbar=  1.01037688661972E+05
 cg2d: Sum(rhs),rhsMax =  -9.70067648096351E+01  1.44390010071805E+00
(PID.TID 0000.0001)  ploadbar=  1.01038370681424E+05
 cg2d: Sum(rhs),rhsMax =  -9.75720426018597E+01  1.43528949214879E+00
(PID.TID 0000.0001)  ploadbar=  1.01037815520526E+05
 cg2d: Sum(rhs),rhsMax =  -9.82678245964963E+01  1.42492806289428E+00
(PID.TID 0000.0001)  ploadbar=  1.01037260359627E+05
 cg2d: Sum(rhs),rhsMax =  -9.91419441266820E+01  1.41220283551569E+00
(PID.TID 0000.0001)  ploadbar=  1.01036705198729E+05
 cg2d: Sum(rhs),rhsMax =  -1.00223938395927E+02  1.39683335240341E+00
(PID.TID 0000.0001)  ploadbar=  1.01036150037831E+05
 cg2d: Sum(rhs),rhsMax =  -1.01524011701319E+02  1.37886489993888E+00
(PID.TID 0000.0001)  ploadbar=  1.01035594876933E+05
 cg2d: Sum(rhs),rhsMax =  -1.03088857733818E+02  1.35790760994479E+00
(PID.TID 0000.0001)  ploadbar=  1.01035039716035E+05
 cg2d: Sum(rhs),rhsMax =  -1.04859888092457E+02  1.33497225727345E+00
(PID.TID 0000.0001)  ploadbar=  1.01035274606822E+05
 cg2d: Sum(rhs),rhsMax =  -1.06762653925439E+02  1.31118921542551E+00
(PID.TID 0000.0001)  ploadbar=  1.01035509497610E+05
 cg2d: Sum(rhs),rhsMax =  -1.08777917895635E+02  1.28691715393400E+00
(PID.TID 0000.0001)  ploadbar=  1.01035744388397E+05
 cg2d: Sum(rhs),rhsMax =  -1.10877374882655E+02  1.26257514765717E+00
(PID.TID 0000.0001)  ploadbar=  1.01035979279184E+05
 cg2d: Sum(rhs),rhsMax =  -1.12857485147628E+02  1.24045106451128E+00
(PID.TID 0000.0001)  ploadbar=  1.01036214169971E+05
 cg2d: Sum(rhs),rhsMax =  -1.13502811713660E+02  1.23342979034668E+00
(PID.TID 0000.0001)  ploadbar=  1.01036449060759E+05
 cg2d: Sum(rhs),rhsMax =  -1.13436719208958E+02  1.23420258141278E+00
(PID.TID 0000.0001)  ploadbar=  1.01034725440858E+05
 cg2d: Sum(rhs),rhsMax =  -1.13374704828804E+02  1.23494357170097E+00
(PID.TID 0000.0001)  ploadbar=  1.01033001820957E+05
 cg2d: Sum(rhs),rhsMax =  -1.13345018260496E+02  1.23534194716454E+00
(PID.TID 0000.0001)  ploadbar=  1.01031278201056E+05
 cg2d: Sum(rhs),rhsMax =  -1.13361727309607E+02  1.23524163958381E+00
(PID.TID 0000.0001)  ploadbar=  1.01029554581155E+05
 cg2d: Sum(rhs),rhsMax =  -1.13433181511829E+02  1.23455072086394E+00
(PID.TID 0000.0001)  ploadbar=  1.01027830961254E+05
 cg2d: Sum(rhs),rhsMax =  -1.13557751380431E+02  1.23327788424912E+00
(PID.TID 0000.0001)  ploadbar=  1.01026107341354E+05
 cg2d: Sum(rhs),rhsMax =  -1.13751878591732E+02  1.23124068471532E+00
(PID.TID 0000.0001)  ploadbar=  1.01024373580336E+05
 cg2d: Sum(rhs),rhsMax =  -1.12898835248730E+02  1.24059051063898E+00
(PID.TID 0000.0001)  ploadbar=  1.01022639819319E+05
 cg2d: Sum(rhs),rhsMax =  -1.11946936809201E+02  1.25116494050629E+00
(PID.TID 0000.0001)  ploadbar=  1.01020906058302E+05
 cg2d: Sum(rhs),rhsMax =  -1.11036018821099E+02  1.26143412976366E+00
(PID.TID 0000.0001)  ploadbar=  1.01019172297285E+05
 cg2d: Sum(rhs),rhsMax =  -1.10167721600904E+02  1.27135790571286E+00
(PID.TID 0000.0001)  ploadbar=  1.01017438536267E+05
 cg2d: Sum(rhs),rhsMax =  -1.09339286345374E+02  1.28094716805171E+00
(PID.TID 0000.0001)  ploadbar=  1.01015704775250E+05
 cg2d: Sum(rhs),rhsMax =  -1.08489436926835E+02  1.29099103128409E+00
(PID.TID 0000.0001)  ploadbar=  1.01013556491227E+05
 cg2d: Sum(rhs),rhsMax =  -1.07683317752130E+02  1.30069327924519E+00
(PID.TID 0000.0001)  ploadbar=  1.01011408207204E+05
 cg2d: Sum(rhs),rhsMax =  -1.06876009868499E+02  1.31057878395648E+00
(PID.TID 0000.0001)  ploadbar=  1.01009259923181E+05
 cg2d: Sum(rhs),rhsMax =  -1.06094350209320E+02  1.32031791081145E+00
(PID.TID 0000.0001)  ploadbar=  1.01007111639157E+05
 cg2d: Sum(rhs),rhsMax =  -1.05358929865583E+02  1.32964502116874E+00
(PID.TID 0000.0001)  ploadbar=  1.01004963355134E+05
 cg2d: Sum(rhs),rhsMax =  -1.04681769445951E+02  1.33839288779464E+00
(PID.TID 0000.0001)  ploadbar=  1.01002815071111E+05
 cg2d: Sum(rhs),rhsMax =  -1.04089975600575E+02  1.34614549154812E+00
(PID.TID 0000.0001)  ploadbar=  1.01002100758710E+05
 cg2d: Sum(rhs),rhsMax =  -1.03559798372147E+02  1.35316160896977E+00
(PID.TID 0000.0001)  ploadbar=  1.01001386446310E+05
 cg2d: Sum(rhs),rhsMax =  -1.03101045898685E+02  1.35928217441075E+00
(PID.TID 0000.0001)  ploadbar=  1.01000672133909E+05
 cg2d: Sum(rhs),rhsMax =  -1.02741161102278E+02  1.36411501655207E+00
(PID.TID 0000.0001)  ploadbar=  1.00999957821509E+05
 cg2d: Sum(rhs),rhsMax =  -1.02500279820858E+02  1.36736321908979E+00
(PID.TID 0000.0001)  ploadbar=  1.00999243509108E+05
 cg2d: Sum(rhs),rhsMax =  -1.02393014090509E+02  1.36880772983319E+00
(PID.TID 0000.0001)  ploadbar=  1.00998529196708E+05
 cg2d: Sum(rhs),rhsMax =  -1.02391385543728E+02  1.36886694267640E+00
(PID.TID 0000.0001)  ploadbar=  1.00996871790978E+05
 cg2d: Sum(rhs),rhsMax =  -1.02541483710055E+02  1.36691874678957E+00
(PID.TID 0000.0001)  ploadbar=  1.00995214385247E+05
 cg2d: Sum(rhs),rhsMax =  -1.02805422902637E+02  1.36347822719219E+00
(PID.TID 0000.0001)  ploadbar=  1.00993556979517E+05
 cg2d: Sum(rhs),rhsMax =  -1.03168427229251E+02  1.35875538815208E+00
(PID.TID 0000.0001)  ploadbar=  1.00991899573787E+05
 cg2d: Sum(rhs),rhsMax =  -1.03607952501563E+02  1.35306452681147E+00
(PID.TID 0000.0001)  ploadbar=  1.00990242168057E+05
 cg2d: Sum(rhs),rhsMax =  -1.04143902866058E+02  1.34616711688807E+00
(PID.TID 0000.0001)  ploadbar=  1.00988584762327E+05
 cg2d: Sum(rhs),rhsMax =  -1.04734183711038E+02  1.33863930468431E+00
(PID.TID 0000.0001)  ploadbar=  1.00986630479484E+05
 cg2d: Sum(rhs),rhsMax =  -1.05395847064954E+02  1.33027811005298E+00
(PID.TID 0000.0001)  ploadbar=  1.00984676196641E+05
 cg2d: Sum(rhs),rhsMax =  -1.06108322161816E+02  1.32137114076567E+00
(PID.TID 0000.0001)  ploadbar=  1.00982721913799E+05
 cg2d: Sum(rhs),rhsMax =  -1.06852730378612E+02  1.31216921146364E+00
(PID.TID 0000.0001)  ploadbar=  1.00980767630956E+05
 cg2d: Sum(rhs),rhsMax =  -1.07626502204109E+02  1.30271230716629E+00
(PID.TID 0000.0001)  ploadbar=  1.00978813348113E+05
 cg2d: Sum(rhs),rhsMax =  -1.08427895248890E+02  1.29302732404134E+00
(PID.TID 0000.0001)  ploadbar=  1.00976859065270E+05
 cg2d: Sum(rhs),rhsMax =  -1.09288079747874E+02  1.28284306801565E+00
(PID.TID 0000.0001)  ploadbar=  1.00975125326769E+05
 cg2d: Sum(rhs),rhsMax =  -1.10186234726055E+02  1.27241316344224E+00
(PID.TID 0000.0001)  ploadbar=  1.00973391588268E+05
 cg2d: Sum(rhs),rhsMax =  -1.11161185508175E+02  1.26131023840658E+00
(PID.TID 0000.0001)  ploadbar=  1.00971657849768E+05
 cg2d: Sum(rhs),rhsMax =  -1.11744242407272E+02  1.25481493885908E+00
(PID.TID 0000.0001)  ploadbar=  1.00969924111267E+05
 cg2d: Sum(rhs),rhsMax =  -1.11761655449953E+02  1.25473787132894E+00
(PID.TID 0000.0001)  ploadbar=  1.00968190372766E+05
 cg2d: Sum(rhs),rhsMax =  -1.11890682839020E+02  1.25344775404496E+00
(PID.TID 0000.0001)  ploadbar=  1.00966456634265E+05
 cg2d: Sum(rhs),rhsMax =  -1.12043672680477E+02  1.25189124033098E+00
(PID.TID 0000.0001)  ploadbar=  1.00965739105134E+05
 cg2d: Sum(rhs),rhsMax =  -1.11287219987674E+02  1.26054603339822E+00
(PID.TID 0000.0001)  ploadbar=  1.00965021576004E+05
 cg2d: Sum(rhs),rhsMax =  -1.10173183670667E+02  1.27342569641024E+00
(PID.TID 0000.0001)  ploadbar=  1.00964304046873E+05
 cg2d: Sum(rhs),rhsMax =  -1.09077436985994E+02  1.28633625274113E+00
(PID.TID 0000.0001)  ploadbar=  1.00963586517742E+05
 cg2d: Sum(rhs),rhsMax =  -1.08046374363558E+02  1.29870971791798E+00
(PID.TID 0000.0001)  ploadbar=  1.00962868988611E+05
 cg2d: Sum(rhs),rhsMax =  -1.06971569540010E+02  1.31183128536456E+00
(PID.TID 0000.0001)  ploadbar=  1.00962151459481E+05
 cg2d: Sum(rhs),rhsMax =  -1.05993099337848E+02  1.32402459006991E+00
(PID.TID 0000.0001)  ploadbar=  1.00962245858398E+05
 cg2d: Sum(rhs),rhsMax =  -1.05146538416575E+02  1.33476954822073E+00
(PID.TID 0000.0001)  ploadbar=  1.00962340257315E+05
 cg2d: Sum(rhs),rhsMax =  -1.04441744212666E+02  1.34385975323946E+00
(PID.TID 0000.0001)  ploadbar=  1.00962434656232E+05
 cg2d: Sum(rhs),rhsMax =  -1.03871755445472E+02  1.35131234209634E+00
(PID.TID 0000.0001)  ploadbar=  1.00962529055148E+05
 cg2d: Sum(rhs),rhsMax =  -1.03427083488087E+02  1.35719740897450E+00
(PID.TID 0000.0001)  ploadbar=  1.00962623454065E+05
 cg2d: Sum(rhs),rhsMax =  -1.03099952132007E+02  1.36157363790867E+00
(PID.TID 0000.0001)  ploadbar=  1.00962717852982E+05
 cg2d: Sum(rhs),rhsMax =  -1.02801030157868E+02  1.36559775336835E+00
(PID.TID 0000.0001)  ploadbar=  1.00962100775949E+05
 cg2d: Sum(rhs),rhsMax =  -1.02503062712096E+02  1.36961702594369E+00
(PID.TID 0000.0001)  ploadbar=  1.00961483698916E+05
 cg2d: Sum(rhs),rhsMax =  -1.02209514953986E+02  1.37357504183372E+00
(PID.TID 0000.0001)  ploadbar=  1.00960866621883E+05
 cg2d: Sum(rhs),rhsMax =  -1.02078644061244E+02  1.37533144509530E+00
(PID.TID 0000.0001)  ploadbar=  1.00960249544850E+05
 cg2d: Sum(rhs),rhsMax =  -1.02214528264159E+02  1.37346584701566E+00
(PID.TID 0000.0001)  ploadbar=  1.00959632467817E+05
 cg2d: Sum(rhs),rhsMax =  -1.02580928874262E+02  1.36848862167420E+00
(PID.TID 0000.0001)  ploadbar=  1.00959015390784E+05
 cg2d: Sum(rhs),rhsMax =  -1.03138362760848E+02  1.36106992220270E+00
(PID.TID 0000.0001)  ploadbar=  1.00958758632445E+05
 cg2d: Sum(rhs),rhsMax =  -1.03752309367516E+02  1.35302735308217E+00
(PID.TID 0000.0001)  ploadbar=  1.00958501874106E+05
 cg2d: Sum(rhs),rhsMax =  -1.04523879334032E+02  1.34307903887367E+00
(PID.TID 0000.0001)  ploadbar=  1.00958245115767E+05
 cg2d: Sum(rhs),rhsMax =  -1.05472060501595E+02  1.33106919406528E+00
(PID.TID 0000.0001)  ploadbar=  1.00957988357429E+05
 cg2d: Sum(rhs),rhsMax =  -1.06559146307232E+02  1.31758285220238E+00
(PID.TID 0000.0001)  ploadbar=  1.00957731599090E+05
 cg2d: Sum(rhs),rhsMax =  -1.07770704718751E+02  1.30289561582273E+00
(PID.TID 0000.0001)  ploadbar=  1.00957474840751E+05
 cg2d: Sum(rhs),rhsMax =  -1.09051794806176E+02  1.28770848913705E+00
(PID.TID 0000.0001)  ploadbar=  1.00958372071887E+05
 cg2d: Sum(rhs),rhsMax =  -1.10403782754363E+02  1.27203161860760E+00
(PID.TID 0000.0001)  ploadbar=  1.00959269303024E+05
 cg2d: Sum(rhs),rhsMax =  -1.11856304256738E+02  1.25558096881303E+00
(PID.TID 0000.0001)  ploadbar=  1.00960166534160E+05
 cg2d: Sum(rhs),rhsMax =  -1.13490222983553E+02  1.23754689730298E+00
(PID.TID 0000.0001)  ploadbar=  1.00961063765297E+05
 cg2d: Sum(rhs),rhsMax =  -1.13660037880907E+02  1.23571294625970E+00
(PID.TID 0000.0001)  ploadbar=  1.00961960996433E+05
 cg2d: Sum(rhs),rhsMax =  -1.13417873015295E+02  1.23833703606322E+00
(PID.TID 0000.0001)  ploadbar=  1.00962858227570E+05
 cg2d: Sum(rhs),rhsMax =  -1.13145287314527E+02  1.24131590994619E+00
(PID.TID 0000.0001)  ploadbar=  1.00963504467155E+05
 cg2d: Sum(rhs),rhsMax =  -1.12836513393276E+02  1.24470906941618E+00
(PID.TID 0000.0001)  ploadbar=  1.00964150706740E+05
 cg2d: Sum(rhs),rhsMax =  -1.12511361977259E+02  1.24830471291070E+00
(PID.TID 0000.0001)  ploadbar=  1.00964796946326E+05
 cg2d: Sum(rhs),rhsMax =  -1.12197381340480E+02  1.25180273486336E+00
(PID.TID 0000.0001)  ploadbar=  1.00965443185911E+05
 cg2d: Sum(rhs),rhsMax =  -1.11920989525238E+02  1.25490334514175E+00
(PID.TID 0000.0001)  ploadbar=  1.00966089425497E+05
 cg2d: Sum(rhs),rhsMax =  -1.11715849893932E+02  1.25721224580267E+00
(PID.TID 0000.0001)  ploadbar=  1.00966735665082E+05
 cg2d: Sum(rhs),rhsMax =  -1.10819618817175E+02  1.26737841305383E+00
(PID.TID 0000.0001)  ploadbar=  1.00967849196375E+05
 cg2d: Sum(rhs),rhsMax =  -1.10026511359016E+02  1.27649030220693E+00
(PID.TID 0000.0001)  ploadbar=  1.00968962727668E+05
 cg2d: Sum(rhs),rhsMax =  -1.09296651300904E+02  1.28496142706096E+00
(PID.TID 0000.0001)  ploadbar=  1.00970076258960E+05
 cg2d: Sum(rhs),rhsMax =  -1.08580035844347E+02  1.29335727293768E+00
(PID.TID 0000.0001)  ploadbar=  1.00971189790253E+05
 cg2d: Sum(rhs),rhsMax =  -1.07872056017008E+02  1.30172814702291E+00
(PID.TID 0000.0001)  ploadbar=  1.00972303321546E+05
 cg2d: Sum(rhs),rhsMax =  -1.07228213227523E+02  1.30939309583166E+00
(PID.TID 0000.0001)  ploadbar=  1.00973416852839E+05
 cg2d: Sum(rhs),rhsMax =  -1.06388069055699E+02  1.31964526784578E+00
(PID.TID 0000.0001)  ploadbar=  1.00974583684650E+05
 cg2d: Sum(rhs),rhsMax =  -1.05401487598800E+02  1.33195989854650E+00
(PID.TID 0000.0001)  ploadbar=  1.00975750516461E+05
 cg2d: Sum(rhs),rhsMax =  -1.04388181201537E+02  1.34489929930977E+00
(PID.TID 0000.0001)  ploadbar=  1.00976917348273E+05
 cg2d: Sum(rhs),rhsMax =  -1.03399760412855E+02  1.35781486829977E+00
(PID.TID 0000.0001)  ploadbar=  1.00978084180084E+05
 cg2d: Sum(rhs),rhsMax =  -1.02485674661569E+02  1.37003624874215E+00
(PID.TID 0000.0001)  ploadbar=  1.00979251011895E+05
 cg2d: Sum(rhs),rhsMax =  -1.01709038366638E+02  1.38066013307231E+00
(PID.TID 0000.0001)  ploadbar=  1.00980417843707E+05
 cg2d: Sum(rhs),rhsMax =  -1.00676913690366E+02  1.39497039270244E+00
(PID.TID 0000.0001)  ploadbar=  1.00981159009481E+05
 cg2d: Sum(rhs),rhsMax =  -9.92052998377990E+01  1.41579838315943E+00
(PID.TID 0000.0001)  ploadbar=  1.00981900175255E+05
 cg2d: Sum(rhs),rhsMax =  -9.77997504122914E+01  1.43625720419937E+00
(PID.TID 0000.0001)  ploadbar=  1.00982641341029E+05
 cg2d: Sum(rhs),rhsMax =  -9.63075064586167E+01  1.45859855108662E+00
(PID.TID 0000.0001)  ploadbar=  1.00983382506803E+05
 cg2d: Sum(rhs),rhsMax =  -9.48753446474418E+01  1.48068024299576E+00
(PID.TID 0000.0001)  ploadbar=  1.00984123672577E+05
 cg2d: Sum(rhs),rhsMax =  -9.34870894033580E+01  1.50270266583796E+00
(PID.TID 0000.0001)  ploadbar=  1.00984864838351E+05
 cg2d: Sum(rhs),rhsMax =  -9.22316584319908E+01  1.52321204389229E+00
(PID.TID 0000.0001)  ploadbar=  1.00985202528938E+05
 cg2d: Sum(rhs),rhsMax =  -9.11656105283568E+01  1.54108718930678E+00
(PID.TID 0000.0001)  ploadbar=  1.00985540219525E+05
 cg2d: Sum(rhs),rhsMax =  -9.02825132793222E+01  1.55622859112713E+00
(PID.TID 0000.0001)  ploadbar=  1.00985877910112E+05
 cg2d: Sum(rhs),rhsMax =  -8.95499350482660E+01  1.56902787558414E+00
(PID.TID 0000.0001)  ploadbar=  1.00986215600699E+05
 cg2d: Sum(rhs),rhsMax =  -8.89337540206106E+01  1.57995792654969E+00
(PID.TID 0000.0001)  ploadbar=  1.00986553291286E+05
 cg2d: Sum(rhs),rhsMax =  -8.84595490222011E+01  1.58845404461253E+00
(PID.TID 0000.0001)  ploadbar=  1.00986890981873E+05
 cg2d: Sum(rhs),rhsMax =  -8.80616886698494E+01  1.59563574235856E+00
(PID.TID 0000.0001)  ploadbar=  1.00987642909215E+05
 cg2d: Sum(rhs),rhsMax =  -8.77464433590565E+01  1.60133761911920E+00
(PID.TID 0000.0001)  ploadbar=  1.00988394836557E+05
 cg2d: Sum(rhs),rhsMax =  -8.75310914371892E+01  1.60520255365160E+00
(PID.TID 0000.0001)  ploadbar=  1.00989146763898E+05
 cg2d: Sum(rhs),rhsMax =  -8.74198989183948E+01  1.60712309003861E+00
(PID.TID 0000.0001)  ploadbar=  1.00989898691240E+05
 cg2d: Sum(rhs),rhsMax =  -8.74198368912202E+01  1.60695920610849E+00
(PID.TID 0000.0001)  ploadbar=  1.00990650618582E+05
 cg2d: Sum(rhs),rhsMax =  -8.75320271968155E+01  1.60469593522818E+00
(PID.TID 0000.0001)  ploadbar=  1.00991402545924E+05
 cg2d: Sum(rhs),rhsMax =  -8.76890494961313E+01  1.60167969730581E+00
(PID.TID 0000.0001)  ploadbar=  1.00992140637129E+05
 cg2d: Sum(rhs),rhsMax =  -8.78664390106331E+01  1.59833596923448E+00
(PID.TID 0000.0001)  ploadbar=  1.00992878728335E+05
 cg2d: Sum(rhs),rhsMax =  -8.80820173503328E+01  1.59433244541302E+00
(PID.TID 0000.0001)  ploadbar=  1.00993616819540E+05
 cg2d: Sum(rhs),rhsMax =  -8.83289620780247E+01  1.58979837430104E+00
(PID.TID 0000.0001)  ploadbar=  1.00994354910746E+05
 cg2d: Sum(rhs),rhsMax =  -8.86116542517956E+01  1.58465998136863E+00
(PID.TID 0000.0001)  ploadbar=  1.00995093001951E+05
 cg2d: Sum(rhs),rhsMax =  -8.89405084112817E+01  1.57874081775234E+00
(PID.TID 0000.0001)  ploadbar=  1.00995831093156E+05
 cg2d: Sum(rhs),rhsMax =  -8.92454746613039E+01  1.57327829287991E+00
(PID.TID 0000.0001)  ploadbar=  1.00997480277912E+05
 cg2d: Sum(rhs),rhsMax =  -8.95662333542292E+01  1.56756066552019E+00
(PID.TID 0000.0001)  ploadbar=  1.00999129462667E+05
 cg2d: Sum(rhs),rhsMax =  -9.00437564207292E+01  1.55914869953501E+00
(PID.TID 0000.0001)  ploadbar=  1.01000778647422E+05
 cg2d: Sum(rhs),rhsMax =  -9.06788169174100E+01  1.54811539213405E+00
(PID.TID 0000.0001)  ploadbar=  1.01002427832178E+05
 cg2d: Sum(rhs),rhsMax =  -9.14719401177358E+01  1.53456089304894E+00
(PID.TID 0000.0001)  ploadbar=  1.01004077016933E+05
 cg2d: Sum(rhs),rhsMax =  -9.24183975803102E+01  1.51869576929632E+00
(PID.TID 0000.0001)  ploadbar=  1.01005726201688E+05
 cg2d: Sum(rhs),rhsMax =  -9.34384705556383E+01  1.50199935260042E+00
(PID.TID 0000.0001)  ploadbar=  1.01006788109150E+05
 cg2d: Sum(rhs),rhsMax =  -9.44750166758626E+01  1.48542166814052E+00
(PID.TID 0000.0001)  ploadbar=  1.01007850016612E+05
 cg2d: Sum(rhs),rhsMax =  -9.55172444195301E+01  1.46913257134480E+00
(PID.TID 0000.0001)  ploadbar=  1.01008911924074E+05
 cg2d: Sum(rhs),rhsMax =  -9.65750675180923E+01  1.45297468477425E+00
(PID.TID 0000.0001)  ploadbar=  1.01009973831536E+05
 cg2d: Sum(rhs),rhsMax =  -9.76432218268752E+01  1.43701946556807E+00
(PID.TID 0000.0001)  ploadbar=  1.01011035738998E+05
 cg2d: Sum(rhs),rhsMax =  -9.87488876320602E+01  1.42085629823916E+00
(PID.TID 0000.0001)  ploadbar=  1.01012097646460E+05
 cg2d: Sum(rhs),rhsMax =  -9.98813530727070E+01  1.40467518457388E+00
(PID.TID 0000.0001)  ploadbar=  1.01013008242109E+05
 cg2d: Sum(rhs),rhsMax =  -1.01045513274852E+02  1.38840691412080E+00
(PID.TID 0000.0001)  ploadbar=  1.01013918837757E+05
 cg2d: Sum(rhs),rhsMax =  -1.02240597814349E+02  1.37207203157659E+00
(PID.TID 0000.0001)  ploadbar=  1.01014829433406E+05
 cg2d: Sum(rhs),rhsMax =  -1.03475514131914E+02  1.35557335909728E+00
(PID.TID 0000.0001)  ploadbar=  1.01015740029055E+05
 cg2d: Sum(rhs),rhsMax =  -1.04745167143723E+02  1.33900052818801E+00
(PID.TID 0000.0001)  ploadbar=  1.01016650624703E+05
 cg2d: Sum(rhs),rhsMax =  -1.06039868014517E+02  1.32249397388137E+00
(PID.TID 0000.0001)  ploadbar=  1.01017561220352E+05
 cg2d: Sum(rhs),rhsMax =  -1.07388685199460E+02  1.30578347582925E+00
(PID.TID 0000.0001)  ploadbar=  1.01018482032866E+05
 cg2d: Sum(rhs),rhsMax =  -1.08746950011099E+02  1.28941313362230E+00
(PID.TID 0000.0001)  ploadbar=  1.01019402845380E+05
 cg2d: Sum(rhs),rhsMax =  -1.10137062281521E+02  1.27310538819955E+00
(PID.TID 0000.0001)  ploadbar=  1.01020323657894E+05
 cg2d: Sum(rhs),rhsMax =  -1.11564454146340E+02  1.25680882661770E+00
(PID.TID 0000.0001)  ploadbar=  1.01021244470408E+05
 cg2d: Sum(rhs),rhsMax =  -1.13037449129458E+02  1.24044882055048E+00
(PID.TID 0000.0001)  ploadbar=  1.01022165282922E+05
 cg2d: Sum(rhs),rhsMax =  -1.13790373094472E+02  1.23228350912768E+00
(PID.TID 0000.0001)  ploadbar=  1.01023086095436E+05
 cg2d: Sum(rhs),rhsMax =  -1.13778539813560E+02  1.23245826282642E+00
(PID.TID 0000.0001)  ploadbar=  1.01023125635523E+05
 cg2d: Sum(rhs),rhsMax =  -1.14111270302844E+02  1.22890694304775E+00
(PID.TID 0000.0001)  ploadbar=  1.01023165175611E+05
 cg2d: Sum(rhs),rhsMax =  -1.14771134534739E+02  1.22188488801301E+00
(PID.TID 0000.0001)  ploadbar=  1.01023204715698E+05
 cg2d: Sum(rhs),rhsMax =  -1.15694533206200E+02  1.21217768082502E+00
(PID.TID 0000.0001)  ploadbar=  1.01023244255786E+05
 cg2d: Sum(rhs),rhsMax =  -1.16828475336143E+02  1.20045425476268E+00
(PID.TID 0000.0001)  ploadbar=  1.01023283795873E+05
 cg2d: Sum(rhs),rhsMax =  -1.18147024808559E+02  1.18709151102462E+00
(PID.TID 0000.0001)  ploadbar=  1.01023323335961E+05
 cg2d: Sum(rhs),rhsMax =  -1.19006629599283E+02  1.17855691855030E+00
(PID.TID 0000.0001)  ploadbar=  1.01023021048700E+05
 cg2d: Sum(rhs),rhsMax =  -1.19198750979655E+02  1.17669430352136E+00
(PID.TID 0000.0001)  ploadbar=  1.01022718761439E+05
 cg2d: Sum(rhs),rhsMax =  -1.19476943393581E+02  1.17398541120596E+00
(PID.TID 0000.0001)  ploadbar=  1.01022416474178E+05
 cg2d: Sum(rhs),rhsMax =  -1.19836271599967E+02  1.17048915185286E+00
(PID.TID 0000.0001)  ploadbar=  1.01022114186918E+05
 cg2d: Sum(rhs),rhsMax =  -1.18387323179162E+02  1.18482525595974E+00
(PID.TID 0000.0001)  ploadbar=  1.01021811899657E+05
 cg2d: Sum(rhs),rhsMax =  -1.17040253534331E+02  1.19846561412275E+00
(PID.TID 0000.0001)  ploadbar=  1.01021509612396E+05
 cg2d: Sum(rhs),rhsMax =  -1.15819968366263E+02  1.21108841209335E+00
(PID.TID 0000.0001)  ploadbar=  1.01021851840618E+05
 cg2d: Sum(rhs),rhsMax =  -1.14740889739585E+02  1.22243661319191E+00
(PID.TID 0000.0001)  ploadbar=  1.01022194068840E+05
 cg2d: Sum(rhs),rhsMax =  -1.13798778482523E+02  1.23247285240749E+00
(PID.TID 0000.0001)  ploadbar=  1.01022536297061E+05
 cg2d: Sum(rhs),rhsMax =  -1.12966228258618E+02  1.24143187325947E+00
(PID.TID 0000.0001)  ploadbar=  1.01022878525283E+05
 cg2d: Sum(rhs),rhsMax =  -1.12231547382949E+02  1.24939687901393E+00
(PID.TID 0000.0001)  ploadbar=  1.01023220753505E+05
 cg2d: Sum(rhs),rhsMax =  -1.11576479705161E+02  1.25653537852918E+00
(PID.TID 0000.0001)  ploadbar=  1.01023562981726E+05
 cg2d: Sum(rhs),rhsMax =  -1.10903488217722E+02  1.26400915960482E+00
(PID.TID 0000.0001)  ploadbar=  1.01023835710298E+05
 cg2d: Sum(rhs),rhsMax =  -1.10172543800147E+02  1.27227225505082E+00
(PID.TID 0000.0001)  ploadbar=  1.01024108438870E+05
 cg2d: Sum(rhs),rhsMax =  -1.09363626103480E+02  1.28158354671773E+00
(PID.TID 0000.0001)  ploadbar=  1.01024381167442E+05
 cg2d: Sum(rhs),rhsMax =  -1.08534428717673E+02  1.29130334390958E+00
(PID.TID 0000.0001)  ploadbar=  1.01024653896013E+05
 cg2d: Sum(rhs),rhsMax =  -1.07730232452593E+02  1.30090018398925E+00
(PID.TID 0000.0001)  ploadbar=  1.01024926624585E+05
 cg2d: Sum(rhs),rhsMax =  -1.06977749982278E+02  1.31003391389188E+00
(PID.TID 0000.0001)  ploadbar=  1.01025199353157E+05
 cg2d: Sum(rhs),rhsMax =  -1.06323756705502E+02  1.31809603760216E+00
(PID.TID 0000.0001)  ploadbar=  1.01026171224154E+05
 cg2d: Sum(rhs),rhsMax =  -1.05778759904263E+02  1.32490143887097E+00
(PID.TID 0000.0001)  ploadbar=  1.01027143095150E+05
 cg2d: Sum(rhs),rhsMax =  -1.05315344664013E+02  1.33075142559826E+00
(PID.TID 0000.0001)  ploadbar=  1.01028114966147E+05
 cg2d: Sum(rhs),rhsMax =  -1.04899378794495E+02  1.33605566253306E+00
(PID.TID 0000.0001)  ploadbar=  1.01029086837144E+05
 cg2d: Sum(rhs),rhsMax =  -1.04486966675490E+02  1.34136369827852E+00
(PID.TID 0000.0001)  ploadbar=  1.01030058708141E+05
 cg2d: Sum(rhs),rhsMax =  -1.04062104599206E+02  1.34687949384893E+00
(PID.TID 0000.0001)  ploadbar=  1.01031030579138E+05
 cg2d: Sum(rhs),rhsMax =  -1.03601776339752E+02  1.35289390023420E+00
(PID.TID 0000.0001)  ploadbar=  1.01031954661854E+05
 cg2d: Sum(rhs),rhsMax =  -1.03086452032628E+02  1.35966555825121E+00
(PID.TID 0000.0001)  ploadbar=  1.01032878744570E+05
 cg2d: Sum(rhs),rhsMax =  -1.02529594429269E+02  1.36703268832515E+00
(PID.TID 0000.0001)  ploadbar=  1.01033802827286E+05
 cg2d: Sum(rhs),rhsMax =  -1.01938531421660E+02  1.37491427006062E+00
(PID.TID 0000.0001)  ploadbar=  1.01034726910001E+05
 cg2d: Sum(rhs),rhsMax =  -1.01337204285176E+02  1.38299114287369E+00
(PID.TID 0000.0001)  ploadbar=  1.01035650992717E+05
 cg2d: Sum(rhs),rhsMax =  -1.00785685836939E+02  1.39043995789394E+00
(PID.TID 0000.0001)  ploadbar=  1.01036575075433E+05
 cg2d: Sum(rhs),rhsMax =  -1.00227875993049E+02  1.39804550357741E+00
(PID.TID 0000.0001)  ploadbar=  1.01037786881868E+05
 cg2d: Sum(rhs),rhsMax =  -9.97496868153239E+01  1.40457707144842E+00
(PID.TID 0000.0001)  ploadbar=  1.01038998688302E+05
 cg2d: Sum(rhs),rhsMax =  -9.93678504710669E+01  1.40975997570132E+00
(PID.TID 0000.0001)  ploadbar=  1.01040210494737E+05
 cg2d: Sum(rhs),rhsMax =  -9.90829527481553E+01  1.41355356554905E+00
(PID.TID 0000.0001)  ploadbar=  1.01041422301172E+05
 cg2d: Sum(rhs),rhsMax =  -9.88665565812900E+01  1.41634395446860E+00
(PID.TID 0000.0001)  ploadbar=  1.01042634107607E+05
 cg2d: Sum(rhs),rhsMax =  -9.86956846325778E+01  1.41845317101907E+00
(PID.TID 0000.0001)  ploadbar=  1.01043845914042E+05
 cg2d: Sum(rhs),rhsMax =  -9.85359567500607E+01  1.42046425971334E+00
(PID.TID 0000.0001)  ploadbar=  1.01044941467327E+05
 cg2d: Sum(rhs),rhsMax =  -9.83903429870613E+01  1.42231302592886E+00
(PID.TID 0000.0001)  ploadbar=  1.01046037020612E+05
 cg2d: Sum(rhs),rhsMax =  -9.82645038415156E+01  1.42391373186490E+00
(PID.TID 0000.0001)  ploadbar=  1.01047132573897E+05
 cg2d: Sum(rhs),rhsMax =  -9.81650229570778E+01  1.42517271195701E+00
(PID.TID 0000.0001)  ploadbar=  1.01048228127181E+05
 cg2d: Sum(rhs),rhsMax =  -9.81057739281346E+01  1.42589741412889E+00
(PID.TID 0000.0001)  ploadbar=  1.01049323680466E+05
 cg2d: Sum(rhs),rhsMax =  -9.81033095769931E+01  1.42585623640145E+00
(PID.TID 0000.0001)  ploadbar=  1.01050419233751E+05
 cg2d: Sum(rhs),rhsMax =  -9.82918704151418E+01  1.42308652614720E+00
(PID.TID 0000.0001)  ploadbar=  1.01050632295125E+05
 cg2d: Sum(rhs),rhsMax =  -9.84603263243607E+01  1.42063740599738E+00
(PID.TID 0000.0001)  ploadbar=  1.01050845356499E+05
 cg2d: Sum(rhs),rhsMax =  -9.86886234297651E+01  1.41735039304063E+00
(PID.TID 0000.0001)  ploadbar=  1.01051058417872E+05
 cg2d: Sum(rhs),rhsMax =  -9.90057487973883E+01  1.41282042382136E+00
(PID.TID 0000.0001)  ploadbar=  1.01051271479246E+05
 cg2d: Sum(rhs),rhsMax =  -9.93553969158389E+01  1.40786395283391E+00
(PID.TID 0000.0001)  ploadbar=  1.01051484540619E+05
 cg2d: Sum(rhs),rhsMax =  -9.97198450220973E+01  1.40273530061853E+00
(PID.TID 0000.0001)  ploadbar=  1.01051697601993E+05
 cg2d: Sum(rhs),rhsMax =  -1.00030117642861E+02  1.39840459424835E+00
(PID.TID 0000.0001)  ploadbar=  1.01052125351764E+05
 cg2d: Sum(rhs),rhsMax =  -1.00224266808874E+02  1.39571035111566E+00
(PID.TID 0000.0001)  ploadbar=  1.01052553101535E+05
 cg2d: Sum(rhs),rhsMax =  -1.00323189802640E+02  1.39434334037011E+00
(PID.TID 0000.0001)  ploadbar=  1.01052980851306E+05
 cg2d: Sum(rhs),rhsMax =  -1.00344204782917E+02  1.39405125987690E+00
(PID.TID 0000.0001)  ploadbar=  1.01053408601077E+05
 cg2d: Sum(rhs),rhsMax =  -1.00318259152980E+02  1.39439884508130E+00
(PID.TID 0000.0001)  ploadbar=  1.01053836350848E+05
 cg2d: Sum(rhs),rhsMax =  -1.00299745397854E+02  1.39462759169673E+00
(PID.TID 0000.0001)  ploadbar=  1.01054264100619E+05
 cg2d: Sum(rhs),rhsMax =  -1.00323124164195E+02  1.39426083254767E+00
(PID.TID 0000.0001)  ploadbar=  1.01054417503460E+05
 cg2d: Sum(rhs),rhsMax =  -1.00404722324605E+02  1.39305507046553E+00
(PID.TID 0000.0001)  ploadbar=  1.01054570906301E+05
 cg2d: Sum(rhs),rhsMax =  -1.00525965733066E+02  1.39126677326506E+00
(PID.TID 0000.0001)  ploadbar=  1.01054724309143E+05
 cg2d: Sum(rhs),rhsMax =  -1.00664567152766E+02  1.38920724759785E+00
(PID.TID 0000.0001)  ploadbar=  1.01054877711984E+05
 cg2d: Sum(rhs),rhsMax =  -1.00790251443875E+02  1.38729313202217E+00
(PID.TID 0000.0001)  ploadbar=  1.01055031114825E+05
 cg2d: Sum(rhs),rhsMax =  -1.00879277687371E+02  1.38584770525940E+00
(PID.TID 0000.0001)  ploadbar=  1.01055184517667E+05
 cg2d: Sum(rhs),rhsMax =  -1.00941964462358E+02  1.38481099825383E+00
(PID.TID 0000.0001)  ploadbar=  1.01055832862900E+05
 cg2d: Sum(rhs),rhsMax =  -1.00918025900090E+02  1.38499129788084E+00
(PID.TID 0000.0001)  ploadbar=  1.01056481208134E+05
 cg2d: Sum(rhs),rhsMax =  -1.00800790845223E+02  1.38648083819559E+00
(PID.TID 0000.0001)  ploadbar=  1.01057129553368E+05
 cg2d: Sum(rhs),rhsMax =  -1.00629959469402E+02  1.38874373604524E+00
(PID.TID 0000.0001)  ploadbar=  1.01057777898602E+05
 cg2d: Sum(rhs),rhsMax =  -1.00442193350505E+02  1.39129236144877E+00
(PID.TID 0000.0001)  ploadbar=  1.01058426243835E+05
 cg2d: Sum(rhs),rhsMax =  -1.00286261605832E+02  1.39346334544821E+00
(PID.TID 0000.0001)  ploadbar=  1.01059074589069E+05
 cg2d: Sum(rhs),rhsMax =  -1.00257577124639E+02  1.39391216882592E+00
(PID.TID 0000.0001)  ploadbar=  1.01060024701810E+05
 cg2d: Sum(rhs),rhsMax =  -1.00340276560926E+02  1.39282460195117E+00
(PID.TID 0000.0001)  ploadbar=  1.01060974814551E+05
 cg2d: Sum(rhs),rhsMax =  -1.00546954289951E+02  1.39003400549286E+00
(PID.TID 0000.0001)  ploadbar=  1.01061924927292E+05
 cg2d: Sum(rhs),rhsMax =  -1.00939606386580E+02  1.38471056051419E+00
(PID.TID 0000.0001)  ploadbar=  1.01062875040033E+05
 cg2d: Sum(rhs),rhsMax =  -1.01515529447661E+02  1.37695129708884E+00
(PID.TID 0000.0001)  ploadbar=  1.01063825152774E+05
 cg2d: Sum(rhs),rhsMax =  -1.02211946856414E+02  1.36766803315013E+00
(PID.TID 0000.0001)  ploadbar=  1.01064775265514E+05
 cg2d: Sum(rhs),rhsMax =  -1.02958790829616E+02  1.35783015745681E+00
(PID.TID 0000.0001)  ploadbar=  1.01065732532221E+05
 cg2d: Sum(rhs),rhsMax =  -1.02872221036721E+02  1.35903268210534E+00
(PID.TID 0000.0001)  ploadbar=  1.01066689798928E+05
 cg2d: Sum(rhs),rhsMax =  -1.01811903042892E+02  1.37322423328860E+00
(PID.TID 0000.0001)  ploadbar=  1.01067647065634E+05
 cg2d: Sum(rhs),rhsMax =  -1.00920729945286E+02  1.38536937538757E+00
(PID.TID 0000.0001)  ploadbar=  1.01068604332341E+05
 cg2d: Sum(rhs),rhsMax =  -1.00191667644157E+02  1.39544714119155E+00
(PID.TID 0000.0001)  ploadbar=  1.01069561599048E+05
 cg2d: Sum(rhs),rhsMax =  -9.96008472187291E+01  1.40369045240260E+00
(PID.TID 0000.0001)  ploadbar=  1.01070518865754E+05
 cg2d: Sum(rhs),rhsMax =  -9.93931509154494E+01  1.40657344153708E+00
(PID.TID 0000.0001)  ploadbar=  1.01071487658011E+05
 cg2d: Sum(rhs),rhsMax =  -9.95271682062932E+01  1.40460147464833E+00
(PID.TID 0000.0001)  ploadbar=  1.01072456450268E+05
 cg2d: Sum(rhs),rhsMax =  -9.99584609528195E+01  1.39843015011487E+00
(PID.TID 0000.0001)  ploadbar=  1.01073425242526E+05
 cg2d: Sum(rhs),rhsMax =  -1.00640963672408E+02  1.38880883144776E+00
(PID.TID 0000.0001)  ploadbar=  1.01074394034783E+05
 cg2d: Sum(rhs),rhsMax =  -1.01531262314728E+02  1.37646987900385E+00
(PID.TID 0000.0001)  ploadbar=  1.01075362827040E+05
 cg2d: Sum(rhs),rhsMax =  -1.02598856699441E+02  1.36196011220918E+00
(PID.TID 0000.0001)  ploadbar=  1.01076331619297E+05
 cg2d: Sum(rhs),rhsMax =  -1.03865538745717E+02  1.34521579577366E+00
(PID.TID 0000.0001)  ploadbar=  1.01077076329857E+05
 cg2d: Sum(rhs),rhsMax =  -1.05419321018770E+02  1.32528508692450E+00
(PID.TID 0000.0001)  ploadbar=  1.01077821040416E+05
 cg2d: Sum(rhs),rhsMax =  -1.07115521256797E+02  1.30422020341603E+00
(PID.TID 0000.0001)  ploadbar=  1.01078565750976E+05
 cg2d: Sum(rhs),rhsMax =  -1.06922735349213E+02  1.30651602015506E+00
(PID.TID 0000.0001)  ploadbar=  1.01079310461536E+05
 cg2d: Sum(rhs),rhsMax =  -1.06545099208168E+02  1.31112906076456E+00
(PID.TID 0000.0001)  ploadbar=  1.01080055172095E+05
 cg2d: Sum(rhs),rhsMax =  -1.06131612333315E+02  1.31628034077938E+00
(PID.TID 0000.0001)  ploadbar=  1.01080799882655E+05
 cg2d: Sum(rhs),rhsMax =  -1.05773699905932E+02  1.32079796042767E+00
(PID.TID 0000.0001)  ploadbar=  1.01081911663028E+05
 cg2d: Sum(rhs),rhsMax =  -1.05531767047954E+02  1.32389205656988E+00
(PID.TID 0000.0001)  ploadbar=  1.01083023443400E+05
 cg2d: Sum(rhs),rhsMax =  -1.05439772235005E+02  1.32511973238512E+00
(PID.TID 0000.0001)  ploadbar=  1.01084135223773E+05
 cg2d: Sum(rhs),rhsMax =  -1.05460516083021E+02  1.32494355894994E+00
(PID.TID 0000.0001)  ploadbar=  1.01085247004145E+05
 cg2d: Sum(rhs),rhsMax =  -1.05537249480671E+02  1.32407407068103E+00
(PID.TID 0000.0001)  ploadbar=  1.01086358784518E+05
 cg2d: Sum(rhs),rhsMax =  -1.05611942792187E+02  1.32323156686123E+00
(PID.TID 0000.0001)  ploadbar=  1.01087470564890E+05
 cg2d: Sum(rhs),rhsMax =  -1.05646005085970E+02  1.32291571474906E+00
(PID.TID 0000.0001)  ploadbar=  1.01088679107958E+05
 cg2d: Sum(rhs),rhsMax =  -1.05586301529890E+02  1.32378407459324E+00
(PID.TID 0000.0001)  ploadbar=  1.01089887651027E+05
 cg2d: Sum(rhs),rhsMax =  -1.05418327390400E+02  1.32602515749708E+00
(PID.TID 0000.0001)  ploadbar=  1.01091096194095E+05
 cg2d: Sum(rhs),rhsMax =  -1.05123570331706E+02  1.32988094669484E+00
(PID.TID 0000.0001)  ploadbar=  1.01092304737163E+05
 cg2d: Sum(rhs),rhsMax =  -1.04767331784923E+02  1.33453883745936E+00
(PID.TID 0000.0001)  ploadbar=  1.01093513280232E+05
 cg2d: Sum(rhs),rhsMax =  -1.04389963120884E+02  1.33948941260115E+00
(PID.TID 0000.0001)  ploadbar=  1.01094721823300E+05
 cg2d: Sum(rhs),rhsMax =  -1.04058536984342E+02  1.34386332154978E+00
(PID.TID 0000.0001)  ploadbar=  1.01095371102940E+05
 cg2d: Sum(rhs),rhsMax =  -1.03789130714185E+02  1.34742790791933E+00
(PID.TID 0000.0001)  ploadbar=  1.01096020382580E+05
 cg2d: Sum(rhs),rhsMax =  -1.03621281953388E+02  1.34964943673969E+00
(PID.TID 0000.0001)  ploadbar=  1.01096669662220E+05
 cg2d: Sum(rhs),rhsMax =  -1.03562202949432E+02  1.35042052468018E+00
(PID.TID 0000.0001)  ploadbar=  1.01097318941861E+05
 cg2d: Sum(rhs),rhsMax =  -1.03580015762184E+02  1.35015337361348E+00
(PID.TID 0000.0001)  ploadbar=  1.01097968221501E+05
 cg2d: Sum(rhs),rhsMax =  -1.03666807586925E+02  1.34895319187207E+00
(PID.TID 0000.0001)  ploadbar=  1.01098617501141E+05
 cg2d: Sum(rhs),rhsMax =  -1.03848675787873E+02  1.34656999967889E+00
(PID.TID 0000.0001)  ploadbar=  1.01099430925222E+05
 cg2d: Sum(rhs),rhsMax =  -1.04060748191907E+02  1.34383238421212E+00
(PID.TID 0000.0001)  ploadbar=  1.01100244349304E+05
 cg2d: Sum(rhs),rhsMax =  -1.04245674691531E+02  1.34148418878066E+00
(PID.TID 0000.0001)  ploadbar=  1.01101057773385E+05
 cg2d: Sum(rhs),rhsMax =  -1.04398356125291E+02  1.33959179743729E+00
(PID.TID 0000.0001)  ploadbar=  1.01101871197466E+05
 cg2d: Sum(rhs),rhsMax =  -1.04508532103407E+02  1.33828773024312E+00
(PID.TID 0000.0001)  ploadbar=  1.01102684621547E+05
 cg2d: Sum(rhs),rhsMax =  -1.04583605128929E+02  1.33747239649252E+00
(PID.TID 0000.0001)  ploadbar=  1.01103498045629E+05
 cg2d: Sum(rhs),rhsMax =  -1.04645613977925E+02  1.33684230657312E+00
(PID.TID 0000.0001)  ploadbar=  1.01103703119546E+05
 cg2d: Sum(rhs),rhsMax =  -1.04703360380136E+02  1.33626774659119E+00
(PID.TID 0000.0001)  ploadbar=  1.01103908193462E+05
 cg2d: Sum(rhs),rhsMax =  -1.04753382704482E+02  1.33579817367771E+00
(PID.TID 0000.0001)  ploadbar=  1.01104113267379E+05
 cg2d: Sum(rhs),rhsMax =  -1.04851149417048E+02  1.33472610597040E+00
(PID.TID 0000.0001)  ploadbar=  1.01104318341296E+05
 cg2d: Sum(rhs),rhsMax =  -1.05056806070586E+02  1.33228618295088E+00
(PID.TID 0000.0001)  ploadbar=  1.01104523415213E+05
 cg2d: Sum(rhs),rhsMax =  -1.05323412124133E+02  1.32908047724202E+00
(PID.TID 0000.0001)  ploadbar=  1.01104728489130E+05
 cg2d: Sum(rhs),rhsMax =  -1.05553572202857E+02  1.32634128361788E+00
(PID.TID 0000.0001)  ploadbar=  1.01105199167165E+05
 cg2d: Sum(rhs),rhsMax =  -1.05737773354514E+02  1.32417328086179E+00
(PID.TID 0000.0001)  ploadbar=  1.01105669845201E+05
 cg2d: Sum(rhs),rhsMax =  -1.05823616626487E+02  1.32322509070439E+00
(PID.TID 0000.0001)  ploadbar=  1.01106140523236E+05
 cg2d: Sum(rhs),rhsMax =  -1.05794426471849E+02  1.32369867279739E+00
(PID.TID 0000.0001)  ploadbar=  1.01106611201272E+05
 cg2d: Sum(rhs),rhsMax =  -1.05650366349867E+02  1.32559061473844E+00
(PID.TID 0000.0001)  ploadbar=  1.01107081879307E+05
 cg2d: Sum(rhs),rhsMax =  -1.05385842991865E+02  1.32897087736152E+00
(PID.TID 0000.0001)  ploadbar=  1.01107552557343E+05
 cg2d: Sum(rhs),rhsMax =  -1.05026926169386E+02  1.33355721850215E+00
(PID.TID 0000.0001)  ploadbar=  1.01107038172342E+05
 cg2d: Sum(rhs),rhsMax =  -1.04688501298196E+02  1.33789547831403E+00
(PID.TID 0000.0001)  ploadbar=  1.01106523787342E+05
 cg2d: Sum(rhs),rhsMax =  -1.04369087096212E+02  1.34199611869993E+00
(PID.TID 0000.0001)  ploadbar=  1.01106009402342E+05
 cg2d: Sum(rhs),rhsMax =  -1.04045862564883E+02  1.34614971110533E+00
(PID.TID 0000.0001)  ploadbar=  1.01105495017342E+05
 cg2d: Sum(rhs),rhsMax =  -1.03737476421172E+02  1.35011439735958E+00
(PID.TID 0000.0001)  ploadbar=  1.01104980632342E+05
 cg2d: Sum(rhs),rhsMax =  -1.03485113225116E+02  1.35334641610158E+00
(PID.TID 0000.0001)  ploadbar=  1.01104466247342E+05
 cg2d: Sum(rhs),rhsMax =  -1.03294145583861E+02  1.35585054755668E+00
(PID.TID 0000.0001)  ploadbar=  1.01104112476018E+05
 cg2d: Sum(rhs),rhsMax =  -1.03135930348904E+02  1.35797070969540E+00
(PID.TID 0000.0001)  ploadbar=  1.01103758704693E+05
 cg2d: Sum(rhs),rhsMax =  -1.03014203759934E+02  1.35965217772952E+00
(PID.TID 0000.0001)  ploadbar=  1.01103404933368E+05
 cg2d: Sum(rhs),rhsMax =  -1.02914564091976E+02  1.36108242209551E+00
(PID.TID 0000.0001)  ploadbar=  1.01103051162044E+05
 cg2d: Sum(rhs),rhsMax =  -1.02833530992424E+02  1.36230747637192E+00
(PID.TID 0000.0001)  ploadbar=  1.01102697390719E+05
 cg2d: Sum(rhs),rhsMax =  -1.02786939161841E+02  1.36313362495038E+00
(PID.TID 0000.0001)  ploadbar=  1.01102343619395E+05
 cg2d: Sum(rhs),rhsMax =  -1.02790466584131E+02  1.36331766658201E+00
(PID.TID 0000.0001)  ploadbar=  1.01101332667425E+05
 cg2d: Sum(rhs),rhsMax =  -1.02838036850225E+02  1.36292368354417E+00
(PID.TID 0000.0001)  ploadbar=  1.01100321715456E+05
 cg2d: Sum(rhs),rhsMax =  -1.02955713590811E+02  1.36160970748511E+00
(PID.TID 0000.0001)  ploadbar=  1.01099310763487E+05
 cg2d: Sum(rhs),rhsMax =  -1.03126388197584E+02  1.35960414606492E+00
(PID.TID 0000.0001)  ploadbar=  1.01098299811517E+05
 cg2d: Sum(rhs),rhsMax =  -1.03324993302139E+02  1.35723259021205E+00
(PID.TID 0000.0001)  ploadbar=  1.01097288859548E+05
 cg2d: Sum(rhs),rhsMax =  -1.03531478703346E+02  1.35475518680709E+00
(PID.TID 0000.0001)  ploadbar=  1.01096277907579E+05
 cg2d: Sum(rhs),rhsMax =  -1.03797546935762E+02  1.35150107339848E+00
(PID.TID 0000.0001)  ploadbar=  1.01094518388269E+05
 cg2d: Sum(rhs),rhsMax =  -1.04041655551493E+02  1.34853051343773E+00
(PID.TID 0000.0001)  ploadbar=  1.01092758868959E+05
 cg2d: Sum(rhs),rhsMax =  -1.04240312410491E+02  1.34614327894060E+00
(PID.TID 0000.0001)  ploadbar=  1.01090999349649E+05
 cg2d: Sum(rhs),rhsMax =  -1.04376502094580E+02  1.34455223921434E+00
(PID.TID 0000.0001)  ploadbar=  1.01089239830339E+05
 cg2d: Sum(rhs),rhsMax =  -1.04463136863841E+02  1.34357862383846E+00
(PID.TID 0000.0001)  ploadbar=  1.01087480311030E+05
 cg2d: Sum(rhs),rhsMax =  -1.04615361692214E+02  1.34173439288597E+00
(PID.TID 0000.0001)  ploadbar=  1.01085720791720E+05
 cg2d: Sum(rhs),rhsMax =  -1.04745339783769E+02  1.34018121052374E+00
(PID.TID 0000.0001)  ploadbar=  1.01084030024133E+05
 cg2d: Sum(rhs),rhsMax =  -1.04825766419062E+02  1.33925552920782E+00
(PID.TID 0000.0001)  ploadbar=  1.01082339256547E+05
 cg2d: Sum(rhs),rhsMax =  -1.04895384251541E+02  1.33845547083303E+00
(PID.TID 0000.0001)  ploadbar=  1.01080648488960E+05
 cg2d: Sum(rhs),rhsMax =  -1.05037441975994E+02  1.33671828338882E+00
(PID.TID 0000.0001)  ploadbar=  1.01078957721374E+05
 cg2d: Sum(rhs),rhsMax =  -1.05280082772551E+02  1.33369094312444E+00
(PID.TID 0000.0001)  ploadbar=  1.01077266953787E+05
 cg2d: Sum(rhs),rhsMax =  -1.05647117429433E+02  1.32908699602174E+00
(PID.TID 0000.0001)  ploadbar=  1.01075576186201E+05
 cg2d: Sum(rhs),rhsMax =  -1.06121875483994E+02  1.32321876753433E+00
(PID.TID 0000.0001)  ploadbar=  1.01074345200349E+05
 cg2d: Sum(rhs),rhsMax =  -1.06467898093820E+02  1.31902184161994E+00
(PID.TID 0000.0001)  ploadbar=  1.01073114214496E+05
 cg2d: Sum(rhs),rhsMax =  -1.05680869405305E+02  1.32897352395965E+00
(PID.TID 0000.0001)  ploadbar=  1.01071883228644E+05
 cg2d: Sum(rhs),rhsMax =  -1.04854426886407E+02  1.33960073977845E+00
(PID.TID 0000.0001)  ploadbar=  1.01070652242792E+05
 cg2d: Sum(rhs),rhsMax =  -1.04083035683753E+02  1.34970169954486E+00
(PID.TID 0000.0001)  ploadbar=  1.01069421256940E+05
 cg2d: Sum(rhs),rhsMax =  -1.03393967716898E+02  1.35889306705672E+00
(PID.TID 0000.0001)  ploadbar=  1.01068190271088E+05
 cg2d: Sum(rhs),rhsMax =  -1.02827339056553E+02  1.36660762780039E+00
(PID.TID 0000.0001)  ploadbar=  1.01068201800849E+05
 cg2d: Sum(rhs),rhsMax =  -1.02403867540487E+02  1.37250584037544E+00
(PID.TID 0000.0001)  ploadbar=  1.01068213330611E+05
 cg2d: Sum(rhs),rhsMax =  -1.02132715793459E+02  1.37641428371429E+00
(PID.TID 0000.0001)  ploadbar=  1.01068224860372E+05
 cg2d: Sum(rhs),rhsMax =  -1.02061468697733E+02  1.37765443489623E+00
(PID.TID 0000.0001)  ploadbar=  1.01068236390134E+05
 cg2d: Sum(rhs),rhsMax =  -1.02155084598033E+02  1.37667887026373E+00
(PID.TID 0000.0001)  ploadbar=  1.01068247919895E+05
 cg2d: Sum(rhs),rhsMax =  -1.02401182534211E+02  1.37365382589337E+00
(PID.TID 0000.0001)  ploadbar=  1.01068259449657E+05
 cg2d: Sum(rhs),rhsMax =  -1.02719011322183E+02  1.36967499578582E+00
(PID.TID 0000.0001)  ploadbar=  1.01067693816830E+05
 cg2d: Sum(rhs),rhsMax =  -1.03056060988824E+02  1.36544450978467E+00
(PID.TID 0000.0001)  ploadbar=  1.01067128184004E+05
 cg2d: Sum(rhs),rhsMax =  -1.03424483368207E+02  1.36080402062788E+00
(PID.TID 0000.0001)  ploadbar=  1.01066562551178E+05
 cg2d: Sum(rhs),rhsMax =  -1.03835445529342E+02  1.35561650993509E+00
(PID.TID 0000.0001)  ploadbar=  1.01065996918351E+05
 cg2d: Sum(rhs),rhsMax =  -1.04287288075653E+02  1.34991252545175E+00
(PID.TID 0000.0001)  ploadbar=  1.01065431285525E+05
 cg2d: Sum(rhs),rhsMax =  -1.04766900802349E+02  1.34387057956682E+00
(PID.TID 0000.0001)  ploadbar=  1.01064865652699E+05
 cg2d: Sum(rhs),rhsMax =  -1.05229148708398E+02  1.33809522223274E+00
(PID.TID 0000.0001)  ploadbar=  1.01065165672544E+05
 cg2d: Sum(rhs),rhsMax =  -1.05612960629453E+02  1.33333496278139E+00
(PID.TID 0000.0001)  ploadbar=  1.01065465692388E+05
 cg2d: Sum(rhs),rhsMax =  -1.05906185134841E+02  1.32971596240529E+00
(PID.TID 0000.0001)  ploadbar=  1.01065765712233E+05
 cg2d: Sum(rhs),rhsMax =  -1.06185062886063E+02  1.32626636660095E+00
(PID.TID 0000.0001)  ploadbar=  1.01066065732078E+05
 cg2d: Sum(rhs),rhsMax =  -1.06557959616971E+02  1.32163465338739E+00
(PID.TID 0000.0001)  ploadbar=  1.01066365751923E+05
 cg2d: Sum(rhs),rhsMax =  -1.07024603165948E+02  1.31584359439546E+00
(PID.TID 0000.0001)  ploadbar=  1.01066665771768E+05
 cg2d: Sum(rhs),rhsMax =  -1.07398306663711E+02  1.31127521935128E+00
(PID.TID 0000.0001)  ploadbar=  1.01067705448289E+05
 cg2d: Sum(rhs),rhsMax =  -1.07622776669024E+02  1.30856911633637E+00
(PID.TID 0000.0001)  ploadbar=  1.01068745124810E+05
 cg2d: Sum(rhs),rhsMax =  -1.07766280266397E+02  1.30687356167356E+00
(PID.TID 0000.0001)  ploadbar=  1.01069784801331E+05
 cg2d: Sum(rhs),rhsMax =  -1.07863678464597E+02  1.30575906741882E+00
(PID.TID 0000.0001)  ploadbar=  1.01070824477851E+05
 cg2d: Sum(rhs),rhsMax =  -1.08002448029842E+02  1.30416128241493E+00
(PID.TID 0000.0001)  ploadbar=  1.01071864154372E+05
 cg2d: Sum(rhs),rhsMax =  -1.08182350923608E+02  1.30208344841219E+00
(PID.TID 0000.0001)  ploadbar=  1.01072903830893E+05
 cg2d: Sum(rhs),rhsMax =  -1.08446422607155E+02  1.29901290690823E+00
(PID.TID 0000.0001)  ploadbar=  1.01073676514122E+05
 cg2d: Sum(rhs),rhsMax =  -1.08782044213080E+02  1.29510650671578E+00
(PID.TID 0000.0001)  ploadbar=  1.01074449197350E+05
 cg2d: Sum(rhs),rhsMax =  -1.09179002539310E+02  1.29049854095092E+00
(PID.TID 0000.0001)  ploadbar=  1.01075221880579E+05
 cg2d: Sum(rhs),rhsMax =  -1.09618192521115E+02  1.28542371674978E+00
(PID.TID 0000.0001)  ploadbar=  1.01075994563807E+05
 cg2d: Sum(rhs),rhsMax =  -1.10098333548763E+02  1.27989880567811E+00
(PID.TID 0000.0001)  ploadbar=  1.01076767247035E+05
 cg2d: Sum(rhs),rhsMax =  -1.10677935938942E+02  1.27325593943618E+00
(PID.TID 0000.0001)  ploadbar=  1.01077539930264E+05
 cg2d: Sum(rhs),rhsMax =  -1.11259992625922E+02  1.26665200699408E+00
(PID.TID 0000.0001)  ploadbar=  1.01077942405293E+05
 cg2d: Sum(rhs),rhsMax =  -1.11786797534532E+02  1.26072843597750E+00
(PID.TID 0000.0001)  ploadbar=  1.01078344880322E+05
 cg2d: Sum(rhs),rhsMax =  -1.12247260823914E+02  1.25559110858544E+00
(PID.TID 0000.0001)  ploadbar=  1.01078747355350E+05
 cg2d: Sum(rhs),rhsMax =  -1.12358254645402E+02  1.25437335288651E+00
(PID.TID 0000.0001)  ploadbar=  1.01079149830379E+05
 cg2d: Sum(rhs),rhsMax =  -1.12474758321284E+02  1.25308103042713E+00
(PID.TID 0000.0001)  ploadbar=  1.01079552305408E+05
 cg2d: Sum(rhs),rhsMax =  -1.12613046398956E+02  1.25152828700768E+00
(PID.TID 0000.0001)  ploadbar=  1.01079954780437E+05
 cg2d: Sum(rhs),rhsMax =  -1.12680119705646E+02  1.25075556562796E+00
(PID.TID 0000.0001)  ploadbar=  1.01080394725756E+05
 cg2d: Sum(rhs),rhsMax =  -1.12764834543016E+02  1.24976219595311E+00
(PID.TID 0000.0001)  ploadbar=  1.01080834671075E+05
 cg2d: Sum(rhs),rhsMax =  -1.12897108161303E+02  1.24821200772416E+00
(PID.TID 0000.0001)  ploadbar=  1.01081274616394E+05
 cg2d: Sum(rhs),rhsMax =  -1.13186018144439E+02  1.24490125936484E+00
(PID.TID 0000.0001)  ploadbar=  1.01081714561713E+05
 cg2d: Sum(rhs),rhsMax =  -1.13586773235849E+02  1.24034310442052E+00
(PID.TID 0000.0001)  ploadbar=  1.01082154507031E+05
 cg2d: Sum(rhs),rhsMax =  -1.14206725995046E+02  1.23340324949873E+00
(PID.TID 0000.0001)  ploadbar=  1.01082594452350E+05
 cg2d: Sum(rhs),rhsMax =  -1.14718782780236E+02  1.22775502845890E+00
(PID.TID 0000.0001)  ploadbar=  1.01082372582597E+05
 cg2d: Sum(rhs),rhsMax =  -1.15113679800142E+02  1.22344654374470E+00
(PID.TID 0000.0001)  ploadbar=  1.01082150712844E+05
 cg2d: Sum(rhs),rhsMax =  -1.15385724574071E+02  1.22050564544054E+00
(PID.TID 0000.0001)  ploadbar=  1.01081928843090E+05
 cg2d: Sum(rhs),rhsMax =  -1.15507885425892E+02  1.21919817445417E+00
(PID.TID 0000.0001)  ploadbar=  1.01081706973337E+05
 cg2d: Sum(rhs),rhsMax =  -1.15304292506855E+02  1.22137035274905E+00
(PID.TID 0000.0001)  ploadbar=  1.01081485103584E+05
 cg2d: Sum(rhs),rhsMax =  -1.15072280723524E+02  1.22388303255496E+00
(PID.TID 0000.0001)  ploadbar=  1.01081263233831E+05
 cg2d: Sum(rhs),rhsMax =  -1.14815916803299E+02  1.22665606067755E+00
(PID.TID 0000.0001)  ploadbar=  1.01081386952650E+05
 cg2d: Sum(rhs),rhsMax =  -1.14520007173519E+02  1.22984247352177E+00
(PID.TID 0000.0001)  ploadbar=  1.01081510671469E+05
 cg2d: Sum(rhs),rhsMax =  -1.14200702230324E+02  1.23326887467111E+00
(PID.TID 0000.0001)  ploadbar=  1.01081634390288E+05
 cg2d: Sum(rhs),rhsMax =  -1.13865368184153E+02  1.23685544152208E+00
(PID.TID 0000.0001)  ploadbar=  1.01081758109107E+05
 cg2d: Sum(rhs),rhsMax =  -1.13539131597360E+02  1.24032917595361E+00
(PID.TID 0000.0001)  ploadbar=  1.01081881827926E+05
 cg2d: Sum(rhs),rhsMax =  -1.13280457941637E+02  1.24305195506010E+00
(PID.TID 0000.0001)  ploadbar=  1.01082005546745E+05
 cg2d: Sum(rhs),rhsMax =  -1.12996099215142E+02  1.24608936463934E+00
(PID.TID 0000.0001)  ploadbar=  1.01082080134388E+05
 cg2d: Sum(rhs),rhsMax =  -1.12697647943309E+02  1.24930023333774E+00
(PID.TID 0000.0001)  ploadbar=  1.01082154722030E+05
 cg2d: Sum(rhs),rhsMax =  -1.12484419848882E+02  1.25158292779884E+00
(PID.TID 0000.0001)  ploadbar=  1.01082229309673E+05
 cg2d: Sum(rhs),rhsMax =  -1.12372611794702E+02  1.25274809203059E+00
(PID.TID 0000.0001)  ploadbar=  1.01082303897315E+05
 cg2d: Sum(rhs),rhsMax =  -1.12352307805269E+02  1.25289794504799E+00
(PID.TID 0000.0001)  ploadbar=  1.01082378484958E+05
 cg2d: Sum(rhs),rhsMax =  -1.12411974263673E+02  1.25215694229120E+00
(PID.TID 0000.0001)  ploadbar=  1.01082453072600E+05
 cg2d: Sum(rhs),rhsMax =  -1.12536251008197E+02  1.25069045396559E+00
(PID.TID 0000.0001)  ploadbar=  1.01081947699879E+05
 cg2d: Sum(rhs),rhsMax =  -1.12690728569645E+02  1.24886106080762E+00
(PID.TID 0000.0001)  ploadbar=  1.01081442327158E+05
 cg2d: Sum(rhs),rhsMax =  -1.12853899000578E+02  1.24690339144109E+00
(PID.TID 0000.0001)  ploadbar=  1.01080936954437E+05
 cg2d: Sum(rhs),rhsMax =  -1.13081358714083E+02  1.24420047888575E+00
(PID.TID 0000.0001)  ploadbar=  1.01080431581715E+05
 cg2d: Sum(rhs),rhsMax =  -1.13459254835090E+02  1.23981658837175E+00
(PID.TID 0000.0001)  ploadbar=  1.01079926208994E+05
 cg2d: Sum(rhs),rhsMax =  -1.13994962121686E+02  1.23370751441380E+00
(PID.TID 0000.0001)  ploadbar=  1.01079420836273E+05
 cg2d: Sum(rhs),rhsMax =  -1.14507254953496E+02  1.22796838531798E+00
(PID.TID 0000.0001)  ploadbar=  1.01077976153326E+05
 cg2d: Sum(rhs),rhsMax =  -1.15014981681383E+02  1.22237567958438E+00
(PID.TID 0000.0001)  ploadbar=  1.01076531470380E+05
 cg2d: Sum(rhs),rhsMax =  -1.15519040051682E+02  1.21690479334929E+00
(PID.TID 0000.0001)  ploadbar=  1.01075086787433E+05
 cg2d: Sum(rhs),rhsMax =  -1.16004509374575E+02  1.21170041194325E+00
(PID.TID 0000.0001)  ploadbar=  1.01073642104487E+05
 cg2d: Sum(rhs),rhsMax =  -1.16459273101044E+02  1.20687618802614E+00
(PID.TID 0000.0001)  ploadbar=  1.01072197421540E+05
 cg2d: Sum(rhs),rhsMax =  -1.16916345679090E+02  1.20207526486002E+00
(PID.TID 0000.0001)  ploadbar=  1.01070752738593E+05
 cg2d: Sum(rhs),rhsMax =  -1.17351821063828E+02  1.19752293090657E+00
(PID.TID 0000.0001)  ploadbar=  1.01069945020714E+05
 cg2d: Sum(rhs),rhsMax =  -1.17767039345806E+02  1.19319246891290E+00
(PID.TID 0000.0001)  ploadbar=  1.01069137302834E+05
 cg2d: Sum(rhs),rhsMax =  -1.18148494184541E+02  1.18921321347053E+00
(PID.TID 0000.0001)  ploadbar=  1.01068329584954E+05
 cg2d: Sum(rhs),rhsMax =  -1.18484669570186E+02  1.18569803321478E+00
(PID.TID 0000.0001)  ploadbar=  1.01067521867074E+05
 cg2d: Sum(rhs),rhsMax =  -1.18780977999764E+02  1.18258609557156E+00
(PID.TID 0000.0001)  ploadbar=  1.01066714149195E+05
 cg2d: Sum(rhs),rhsMax =  -1.19051596714903E+02  1.17972868746585E+00
(PID.TID 0000.0001)  ploadbar=  1.01065906431315E+05
 cg2d: Sum(rhs),rhsMax =  -1.19300991541756E+02  1.17711469327394E+00
(PID.TID 0000.0001)  ploadbar=  1.01066167916094E+05
 cg2d: Sum(rhs),rhsMax =  -1.19511432428020E+02  1.17490113040826E+00
(PID.TID 0000.0001)  ploadbar=  1.01066429400872E+05
 cg2d: Sum(rhs),rhsMax =  -1.19693225325954E+02  1.17298104647519E+00
(PID.TID 0000.0001)  ploadbar=  1.01066690885651E+05
 cg2d: Sum(rhs),rhsMax =  -1.19847820608139E+02  1.17133851557023E+00
(PID.TID 0000.0001)  ploadbar=  1.01066952370430E+05
 cg2d: Sum(rhs),rhsMax =  -1.19557863541615E+02  1.17405515582428E+00
(PID.TID 0000.0001)  ploadbar=  1.01067213855208E+05
 cg2d: Sum(rhs),rhsMax =  -1.18991173535053E+02  1.17951908783987E+00
(PID.TID 0000.0001)  ploadbar=  1.01067475339987E+05
 cg2d: Sum(rhs),rhsMax =  -1.18603143186327E+02  1.18323636438536E+00
(PID.TID 0000.0001)  ploadbar=  1.01067863952598E+05
 cg2d: Sum(rhs),rhsMax =  -1.18259540325482E+02  1.18650336832181E+00
(PID.TID 0000.0001)  ploadbar=  1.01068252565209E+05
 cg2d: Sum(rhs),rhsMax =  -1.17982205493915E+02  1.18908551722643E+00
(PID.TID 0000.0001)  ploadbar=  1.01068641177819E+05
 cg2d: Sum(rhs),rhsMax =  -1.17813300830171E+02  1.19054518757911E+00
(PID.TID 0000.0001)  ploadbar=  1.01069029790430E+05
 cg2d: Sum(rhs),rhsMax =  -1.17747714453026E+02  1.19092445693731E+00
(PID.TID 0000.0001)  ploadbar=  1.01069418403041E+05
 cg2d: Sum(rhs),rhsMax =  -1.17778401996933E+02  1.19029241401339E+00
(PID.TID 0000.0001)  ploadbar=  1.01069807015652E+05
 cg2d: Sum(rhs),rhsMax =  -1.17709008626722E+02  1.19072911396012E+00
(PID.TID 0000.0001)  ploadbar=  1.01069465936345E+05
 cg2d: Sum(rhs),rhsMax =  -1.17700901918409E+02  1.19058248053784E+00
(PID.TID 0000.0001)  ploadbar=  1.01069124857038E+05
 cg2d: Sum(rhs),rhsMax =  -1.17791006877941E+02  1.18946609035556E+00
(PID.TID 0000.0001)  ploadbar=  1.01068783777731E+05
 cg2d: Sum(rhs),rhsMax =  -1.17984208122936E+02  1.18733223826860E+00
(PID.TID 0000.0001)  ploadbar=  1.01068442698424E+05
 cg2d: Sum(rhs),rhsMax =  -1.18273923001910E+02  1.18425716083131E+00
(PID.TID 0000.0001)  ploadbar=  1.01068101619117E+05
 cg2d: Sum(rhs),rhsMax =  -1.18663860829226E+02  1.18021408998498E+00
(PID.TID 0000.0001)  ploadbar=  1.01067760539810E+05
 cg2d: Sum(rhs),rhsMax =  -1.19180683413831E+02  1.17496516681666E+00
(PID.TID 0000.0001)  ploadbar=  1.01067415606829E+05
 cg2d: Sum(rhs),rhsMax =  -1.19804481430945E+02  1.16872993507399E+00
(PID.TID 0000.0001)  ploadbar=  1.01067070673848E+05
 cg2d: Sum(rhs),rhsMax =  -1.20555352051736E+02  1.16134425525301E+00
(PID.TID 0000.0001)  ploadbar=  1.01066725740868E+05
 cg2d: Sum(rhs),rhsMax =  -1.21454697117191E+02  1.15264929584069E+00
(PID.TID 0000.0001)  ploadbar=  1.01066380807887E+05
 cg2d: Sum(rhs),rhsMax =  -1.22529003377180E+02  1.14245417286120E+00
(PID.TID 0000.0001)  ploadbar=  1.01066035874906E+05
 cg2d: Sum(rhs),rhsMax =  -1.22903143945415E+02  1.13888896484779E+00
(PID.TID 0000.0001)  ploadbar=  1.01065690941925E+05
 cg2d: Sum(rhs),rhsMax =  -1.20185381582051E+02  1.16456527962230E+00
(PID.TID 0000.0001)  ploadbar=  1.01065917913285E+05
 cg2d: Sum(rhs),rhsMax =  -1.17590300701902E+02  1.19018523449797E+00
(PID.TID 0000.0001)  ploadbar=  1.01066144884645E+05
 cg2d: Sum(rhs),rhsMax =  -1.15092599376957E+02  1.21592909536640E+00
(PID.TID 0000.0001)  ploadbar=  1.01066371856005E+05
 cg2d: Sum(rhs),rhsMax =  -1.12858698599524E+02  1.23990791244991E+00
(PID.TID 0000.0001)  ploadbar=  1.01066598827366E+05
 cg2d: Sum(rhs),rhsMax =  -1.12100241460719E+02  1.24820125905072E+00
(PID.TID 0000.0001)  ploadbar=  1.01066825798726E+05
 cg2d: Sum(rhs),rhsMax =  -1.11443132518021E+02  1.25544007134912E+00
(PID.TID 0000.0001)  ploadbar=  1.01067052770086E+05
 cg2d: Sum(rhs),rhsMax =  -1.10743970431887E+02  1.26324311694473E+00
(PID.TID 0000.0001)  ploadbar=  1.01066515449449E+05
 cg2d: Sum(rhs),rhsMax =  -1.10020632101372E+02  1.27141227222393E+00
(PID.TID 0000.0001)  ploadbar=  1.01065978128812E+05
 cg2d: Sum(rhs),rhsMax =  -1.09277737826559E+02  1.27989728601077E+00
(PID.TID 0000.0001)  ploadbar=  1.01065440808176E+05
 cg2d: Sum(rhs),rhsMax =  -1.08514524311591E+02  1.28871642360426E+00
(PID.TID 0000.0001)  ploadbar=  1.01064903487539E+05
 cg2d: Sum(rhs),rhsMax =  -1.07737168182815E+02  1.29780622305662E+00
(PID.TID 0000.0001)  ploadbar=  1.01064366166902E+05
 cg2d: Sum(rhs),rhsMax =  -1.06946630782289E+02  1.30716412273753E+00
(PID.TID 0000.0001)  ploadbar=  1.01063828846265E+05
 cg2d: Sum(rhs),rhsMax =  -1.06159616981010E+02  1.31667773903676E+00
(PID.TID 0000.0001)  ploadbar=  1.01062860813403E+05
 cg2d: Sum(rhs),rhsMax =  -1.05344364959232E+02  1.32672723084051E+00
(PID.TID 0000.0001)  ploadbar=  1.01061892780541E+05
 cg2d: Sum(rhs),rhsMax =  -1.04303310787060E+02  1.33985469095365E+00
(PID.TID 0000.0001)  ploadbar=  1.01060924747679E+05
 cg2d: Sum(rhs),rhsMax =  -1.03399371245675E+02  1.35147797531813E+00
(PID.TID 0000.0001)  ploadbar=  1.01059956714817E+05
 cg2d: Sum(rhs),rhsMax =  -1.02352511221648E+02  1.36523566052222E+00
(PID.TID 0000.0001)  ploadbar=  1.01058988681955E+05
 cg2d: Sum(rhs),rhsMax =  -1.01677778663660E+02  1.37425374440155E+00
(PID.TID 0000.0001)  ploadbar=  1.01058020649092E+05
 cg2d: Sum(rhs),rhsMax =  -1.01098014231372E+02  1.38208881270063E+00
(PID.TID 0000.0001)  ploadbar=  1.01056804770489E+05
 cg2d: Sum(rhs),rhsMax =  -1.00579566120224E+02  1.38915771199451E+00
(PID.TID 0000.0001)  ploadbar=  1.01055588891885E+05
 cg2d: Sum(rhs),rhsMax =  -1.00106693199012E+02  1.39565591657798E+00
(PID.TID 0000.0001)  ploadbar=  1.01054373013282E+05
 cg2d: Sum(rhs),rhsMax =  -9.96534949780144E+01  1.40192612245127E+00
(PID.TID 0000.0001)  ploadbar=  1.01053157134678E+05
 cg2d: Sum(rhs),rhsMax =  -9.92191548817986E+01  1.40796794460307E+00
(PID.TID 0000.0001)  ploadbar=  1.01051941256075E+05
 cg2d: Sum(rhs),rhsMax =  -9.88060444536477E+01  1.41373859986397E+00
(PID.TID 0000.0001)  ploadbar=  1.01050725377471E+05
 cg2d: Sum(rhs),rhsMax =  -9.84265096040158E+01  1.41910166988899E+00
(PID.TID 0000.0001)  ploadbar=  1.01050895725358E+05
 cg2d: Sum(rhs),rhsMax =  -9.80636690255971E+01  1.42428063000757E+00
(PID.TID 0000.0001)  ploadbar=  1.01051066073245E+05
 cg2d: Sum(rhs),rhsMax =  -9.77486421346671E+01  1.42881339099795E+00
(PID.TID 0000.0001)  ploadbar=  1.01051236421132E+05
 cg2d: Sum(rhs),rhsMax =  -9.74888743723914E+01  1.43257560740670E+00
(PID.TID 0000.0001)  ploadbar=  1.01051406769019E+05
 cg2d: Sum(rhs),rhsMax =  -9.72679162166883E+01  1.43579157747090E+00
(PID.TID 0000.0001)  ploadbar=  1.01051577116906E+05
 cg2d: Sum(rhs),rhsMax =  -9.71392183971867E+01  1.43764621165796E+00
(PID.TID 0000.0001)  ploadbar=  1.01051747464793E+05
 cg2d: Sum(rhs),rhsMax =  -9.72950564014786E+01  1.43527932473661E+00
(PID.TID 0000.0001)  ploadbar=  1.01051085321649E+05
 cg2d: Sum(rhs),rhsMax =  -9.77332115004935E+01  1.42874474515036E+00
(PID.TID 0000.0001)  ploadbar=  1.01050423178505E+05
 cg2d: Sum(rhs),rhsMax =  -9.84314102794911E+01  1.41846807566336E+00
(PID.TID 0000.0001)  ploadbar=  1.01049761035361E+05
 cg2d: Sum(rhs),rhsMax =  -9.93714705473423E+01  1.40486579996852E+00
(PID.TID 0000.0001)  ploadbar=  1.01049098892217E+05
 cg2d: Sum(rhs),rhsMax =  -1.00552920715155E+02  1.38813555875612E+00
(PID.TID 0000.0001)  ploadbar=  1.01048436749073E+05
 cg2d: Sum(rhs),rhsMax =  -1.01980181834370E+02  1.36844589665808E+00
(PID.TID 0000.0001)  ploadbar=  1.01047774605929E+05
 cg2d: Sum(rhs),rhsMax =  -1.03588402143895E+02  1.34701080249950E+00
(PID.TID 0000.0001)  ploadbar=  1.01046842045512E+05
 cg2d: Sum(rhs),rhsMax =  -1.05335757155026E+02  1.32451946985313E+00
(PID.TID 0000.0001)  ploadbar=  1.01045909485096E+05
 cg2d: Sum(rhs),rhsMax =  -1.07205637588140E+02  1.30130094600111E+00
(PID.TID 0000.0001)  ploadbar=  1.01044976924680E+05
 cg2d: Sum(rhs),rhsMax =  -1.09204279847928E+02  1.27739499196702E+00
(PID.TID 0000.0001)  ploadbar=  1.01044044364264E+05
 cg2d: Sum(rhs),rhsMax =  -1.11335011202135E+02  1.25288135045752E+00
(PID.TID 0000.0001)  ploadbar=  1.01043111803847E+05
 cg2d: Sum(rhs),rhsMax =  -1.13587559300998E+02  1.22798652112526E+00
(PID.TID 0000.0001)  ploadbar=  1.01042179243431E+05
 cg2d: Sum(rhs),rhsMax =  -1.15927425776858E+02  1.20315974721676E+00
(PID.TID 0000.0001)  ploadbar=  1.01042379809552E+05
 cg2d: Sum(rhs),rhsMax =  -1.18357116566740E+02  1.17842299174170E+00
(PID.TID 0000.0001)  ploadbar=  1.01042580375673E+05
 cg2d: Sum(rhs),rhsMax =  -1.20865217939524E+02  1.15393015945956E+00
(PID.TID 0000.0001)  ploadbar=  1.01042780941794E+05
 cg2d: Sum(rhs),rhsMax =  -1.23437925828163E+02  1.12983922403616E+00
(PID.TID 0000.0001)  ploadbar=  1.01042981507914E+05
 cg2d: Sum(rhs),rhsMax =  -1.24869404729139E+02  1.11684348798347E+00
(PID.TID 0000.0001)  ploadbar=  1.01043182074035E+05
 cg2d: Sum(rhs),rhsMax =  -1.24533947193904E+02  1.11979572849028E+00
(PID.TID 0000.0001)  ploadbar=  1.01043382640156E+05
 cg2d: Sum(rhs),rhsMax =  -1.24325170390720E+02  1.12164134162656E+00
(PID.TID 0000.0001)  ploadbar=  1.01043863461879E+05
 cg2d: Sum(rhs),rhsMax =  -1.24231189760180E+02  1.12246643828797E+00
(PID.TID 0000.0001)  ploadbar=  1.01044344283603E+05
 cg2d: Sum(rhs),rhsMax =  -1.24218275471587E+02  1.12256899116611E+00
(PID.TID 0000.0001)  ploadbar=  1.01044825105326E+05
 cg2d: Sum(rhs),rhsMax =  -1.24210529615642E+02  1.12263218065430E+00
(PID.TID 0000.0001)  ploadbar=  1.01045305927050E+05
 cg2d: Sum(rhs),rhsMax =  -1.24126317718002E+02  1.12338546769128E+00
(PID.TID 0000.0001)  ploadbar=  1.01045786748773E+05
 cg2d: Sum(rhs),rhsMax =  -1.23910781656012E+02  1.12531514367772E+00
(PID.TID 0000.0001)  ploadbar=  1.01046267570497E+05
 cg2d: Sum(rhs),rhsMax =  -1.23582482185073E+02  1.12827296274023E+00
(PID.TID 0000.0001)  ploadbar=  1.01045805334902E+05
 cg2d: Sum(rhs),rhsMax =  -1.23124090908134E+02  1.13242140044244E+00
(PID.TID 0000.0001)  ploadbar=  1.01045343099307E+05
 cg2d: Sum(rhs),rhsMax =  -1.22557566038667E+02  1.13757616064541E+00
(PID.TID 0000.0001)  ploadbar=  1.01044880863712E+05
 cg2d: Sum(rhs),rhsMax =  -1.21964585836605E+02  1.14299713308121E+00
(PID.TID 0000.0001)  ploadbar=  1.01044418628118E+05
 cg2d: Sum(rhs),rhsMax =  -1.21533872232920E+02  1.14690661070455E+00
(PID.TID 0000.0001)  ploadbar=  1.01043956392523E+05
 cg2d: Sum(rhs),rhsMax =  -1.21276862024012E+02  1.14916548201261E+00
(PID.TID 0000.0001)  ploadbar=  1.01043494156928E+05
 cg2d: Sum(rhs),rhsMax =  -1.21284362975151E+02  1.14899752213266E+00
(PID.TID 0000.0001)  ploadbar=  1.01043132874117E+05
 cg2d: Sum(rhs),rhsMax =  -1.21062813617837E+02  1.15105334993583E+00
(PID.TID 0000.0001)  ploadbar=  1.01042771591305E+05
 cg2d: Sum(rhs),rhsMax =  -1.20842376864761E+02  1.15313890950684E+00
(PID.TID 0000.0001)  ploadbar=  1.01042410308493E+05
 cg2d: Sum(rhs),rhsMax =  -1.20729235777685E+02  1.15423469885335E+00
(PID.TID 0000.0001)  ploadbar=  1.01042049025682E+05
 cg2d: Sum(rhs),rhsMax =  -1.20669125431271E+02  1.15485531975686E+00
(PID.TID 0000.0001)  ploadbar=  1.01041687742870E+05
 cg2d: Sum(rhs),rhsMax =  -1.20595028688165E+02  1.15563641114720E+00
(PID.TID 0000.0001)  ploadbar=  1.01041326460059E+05
 cg2d: Sum(rhs),rhsMax =  -1.20380667542880E+02  1.15776440939428E+00
(PID.TID 0000.0001)  ploadbar=  1.01040417344321E+05
 cg2d: Sum(rhs),rhsMax =  -1.19973615635725E+02  1.16175759465066E+00
(PID.TID 0000.0001)  ploadbar=  1.01039508228583E+05
 cg2d: Sum(rhs),rhsMax =  -1.19389166613735E+02  1.16750216973015E+00
(PID.TID 0000.0001)  ploadbar=  1.01038599112845E+05
 cg2d: Sum(rhs),rhsMax =  -1.18611499851562E+02  1.17520872319609E+00
(PID.TID 0000.0001)  ploadbar=  1.01037689997107E+05
 cg2d: Sum(rhs),rhsMax =  -1.17665991559274E+02  1.18469651509363E+00
(PID.TID 0000.0001)  ploadbar=  1.01036780881369E+05
 cg2d: Sum(rhs),rhsMax =  -1.16597218660230E+02  1.19558420155336E+00
(PID.TID 0000.0001)  ploadbar=  1.01035871765631E+05
 cg2d: Sum(rhs),rhsMax =  -1.15332390055404E+02  1.20873076305347E+00
(PID.TID 0000.0001)  ploadbar=  1.01036080816239E+05
 cg2d: Sum(rhs),rhsMax =  -1.14052012018662E+02  1.22232870382064E+00
(PID.TID 0000.0001)  ploadbar=  1.01036289866848E+05
 cg2d: Sum(rhs),rhsMax =  -1.12819329394478E+02  1.23570405791146E+00
(PID.TID 0000.0001)  ploadbar=  1.01036498917456E+05
 cg2d: Sum(rhs),rhsMax =  -1.11703222058209E+02  1.24805722001102E+00
(PID.TID 0000.0001)  ploadbar=  1.01036707968065E+05
 cg2d: Sum(rhs),rhsMax =  -1.10734143625449E+02  1.25896653665140E+00
(PID.TID 0000.0001)  ploadbar=  1.01036917018674E+05
 cg2d: Sum(rhs),rhsMax =  -1.09922740127399E+02  1.26821724847112E+00
(PID.TID 0000.0001)  ploadbar=  1.01037126069282E+05
 cg2d: Sum(rhs),rhsMax =  -1.09278523777162E+02  1.27564848774067E+00
(PID.TID 0000.0001)  ploadbar=  1.01036922753219E+05
 cg2d: Sum(rhs),rhsMax =  -1.08752569243848E+02  1.28175656189928E+00
(PID.TID 0000.0001)  ploadbar=  1.01036719437157E+05
 cg2d: Sum(rhs),rhsMax =  -1.08293600288396E+02  1.28710541639677E+00
(PID.TID 0000.0001)  ploadbar=  1.01036516121094E+05
 cg2d: Sum(rhs),rhsMax =  -1.07902261695625E+02  1.29166442739289E+00
(PID.TID 0000.0001)  ploadbar=  1.01036312805031E+05
 cg2d: Sum(rhs),rhsMax =  -1.07638490892801E+02  1.29469276343546E+00
(PID.TID 0000.0001)  ploadbar=  1.01036109488968E+05
 cg2d: Sum(rhs),rhsMax =  -1.07495038374083E+02  1.29625984997763E+00
(PID.TID 0000.0001)  ploadbar=  1.01035906172906E+05
 cg2d: Sum(rhs),rhsMax =  -1.07253748113284E+02  1.29908604342467E+00
(PID.TID 0000.0001)  ploadbar=  1.01036618913281E+05
 cg2d: Sum(rhs),rhsMax =  -1.06961335063396E+02  1.30259542806854E+00
(PID.TID 0000.0001)  ploadbar=  1.01037331653657E+05
 cg2d: Sum(rhs),rhsMax =  -1.06666023893082E+02  1.30618974433004E+00
(PID.TID 0000.0001)  ploadbar=  1.01038044394032E+05
 cg2d: Sum(rhs),rhsMax =  -1.06394381524954E+02  1.30953926570181E+00
(PID.TID 0000.0001)  ploadbar=  1.01038757134408E+05
 cg2d: Sum(rhs),rhsMax =  -1.06152677686247E+02  1.31256287073567E+00
(PID.TID 0000.0001)  ploadbar=  1.01039469874783E+05
 cg2d: Sum(rhs),rhsMax =  -1.06002852628329E+02  1.31448692877290E+00
(PID.TID 0000.0001)  ploadbar=  1.01040182615159E+05
 cg2d: Sum(rhs),rhsMax =  -1.06004486644425E+02  1.31452814415114E+00
(PID.TID 0000.0001)  ploadbar=  1.01040264423601E+05
 cg2d: Sum(rhs),rhsMax =  -1.06095661405144E+02  1.31344362588826E+00
(PID.TID 0000.0001)  ploadbar=  1.01040346232043E+05
 cg2d: Sum(rhs),rhsMax =  -1.06261431984092E+02  1.31142298344538E+00
(PID.TID 0000.0001)  ploadbar=  1.01040428040485E+05
 cg2d: Sum(rhs),rhsMax =  -1.06481610502474E+02  1.30872100190318E+00
(PID.TID 0000.0001)  ploadbar=  1.01040509848927E+05
 cg2d: Sum(rhs),rhsMax =  -1.06941952311923E+02  1.30307538420308E+00
(PID.TID 0000.0001)  ploadbar=  1.01040591657369E+05
 cg2d: Sum(rhs),rhsMax =  -1.07424538314602E+02  1.29717826956659E+00
(PID.TID 0000.0001)  ploadbar=  1.01040673465811E+05
 cg2d: Sum(rhs),rhsMax =  -1.07906269789720E+02  1.29134140304842E+00
(PID.TID 0000.0001)  ploadbar=  1.01041585981252E+05
 cg2d: Sum(rhs),rhsMax =  -1.08386703813571E+02  1.28555887316024E+00
(PID.TID 0000.0001)  ploadbar=  1.01042498496693E+05
 cg2d: Sum(rhs),rhsMax =  -1.08857155745173E+02  1.27993231480707E+00
(PID.TID 0000.0001)  ploadbar=  1.01043411012134E+05
 cg2d: Sum(rhs),rhsMax =  -1.09312973816744E+02  1.27451561631924E+00
(PID.TID 0000.0001)  ploadbar=  1.01044323527575E+05
 cg2d: Sum(rhs),rhsMax =  -1.09752457937598E+02  1.26931984101714E+00
(PID.TID 0000.0001)  ploadbar=  1.01045236043016E+05
 cg2d: Sum(rhs),rhsMax =  -1.10175873311880E+02  1.26432927606967E+00
(PID.TID 0000.0001)  ploadbar=  1.01046148558457E+05
 cg2d: Sum(rhs),rhsMax =  -1.10564389041581E+02  1.25976110546448E+00
(PID.TID 0000.0001)  ploadbar=  1.01046454642047E+05
 cg2d: Sum(rhs),rhsMax =  -1.10942994664900E+02  1.25531104020612E+00
(PID.TID 0000.0001)  ploadbar=  1.01046760725636E+05
 cg2d: Sum(rhs),rhsMax =  -1.11419092556947E+02  1.24976835164642E+00
(PID.TID 0000.0001)  ploadbar=  1.01047066809225E+05
 cg2d: Sum(rhs),rhsMax =  -1.12019355610708E+02  1.24286078501651E+00
(PID.TID 0000.0001)  ploadbar=  1.01047372892815E+05
 cg2d: Sum(rhs),rhsMax =  -1.12748440811590E+02  1.23457870931381E+00
(PID.TID 0000.0001)  ploadbar=  1.01047678976404E+05
 cg2d: Sum(rhs),rhsMax =  -1.13608964259515E+02  1.22494803202511E+00
(PID.TID 0000.0001)  ploadbar=  1.01047985059993E+05
 cg2d: Sum(rhs),rhsMax =  -1.14436144283033E+02  1.21587778815763E+00
(PID.TID 0000.0001)  ploadbar=  1.01048631539130E+05
 cg2d: Sum(rhs),rhsMax =  -1.15215979863544E+02  1.20747755432891E+00
(PID.TID 0000.0001)  ploadbar=  1.01049278018267E+05
 cg2d: Sum(rhs),rhsMax =  -1.14969779543167E+02  1.20992796137371E+00
(PID.TID 0000.0001)  ploadbar=  1.01049924497404E+05
 cg2d: Sum(rhs),rhsMax =  -1.15487184133206E+02  1.20440652536121E+00
(PID.TID 0000.0001)  ploadbar=  1.01050570976541E+05
 cg2d: Sum(rhs),rhsMax =  -1.16929357813285E+02  1.18948549071881E+00
(PID.TID 0000.0001)  ploadbar=  1.01051217455678E+05
 cg2d: Sum(rhs),rhsMax =  -1.17777638596864E+02  1.18088162479561E+00
(PID.TID 0000.0001)  ploadbar=  1.01051863934815E+05
 cg2d: Sum(rhs),rhsMax =  -1.17880547798168E+02  1.17983750834198E+00
(PID.TID 0000.0001)  ploadbar=  1.01052582578949E+05
 cg2d: Sum(rhs),rhsMax =  -1.17648626492785E+02  1.18215885538233E+00
(PID.TID 0000.0001)  ploadbar=  1.01053301223084E+05
 cg2d: Sum(rhs),rhsMax =  -1.17581889025031E+02  1.18283306041235E+00
(PID.TID 0000.0001)  ploadbar=  1.01054019867219E+05
 cg2d: Sum(rhs),rhsMax =  -1.17678885528796E+02  1.18186618660679E+00
(PID.TID 0000.0001)  ploadbar=  1.01054738511354E+05
 cg2d: Sum(rhs),rhsMax =  -1.17918295401017E+02  1.17947482655976E+00
(PID.TID 0000.0001)  ploadbar=  1.01055457155489E+05
 cg2d: Sum(rhs),rhsMax =  -1.18290519852809E+02  1.17577049411150E+00
(PID.TID 0000.0001)  ploadbar=  1.01056175799623E+05
 cg2d: Sum(rhs),rhsMax =  -1.18782700917459E+02  1.17090998510544E+00
(PID.TID 0000.0001)  ploadbar=  1.01056132929999E+05
 cg2d: Sum(rhs),rhsMax =  -1.19326525178035E+02  1.16558148791846E+00
(PID.TID 0000.0001)  ploadbar=  1.01056090060374E+05
 cg2d: Sum(rhs),rhsMax =  -1.19920647129493E+02  1.15981240148912E+00
(PID.TID 0000.0001)  ploadbar=  1.01056047190749E+05
 cg2d: Sum(rhs),rhsMax =  -1.20551827955542E+02  1.15374531264137E+00
(PID.TID 0000.0001)  ploadbar=  1.01056004321124E+05
 cg2d: Sum(rhs),rhsMax =  -1.20974120062765E+02  1.14972261651592E+00
(PID.TID 0000.0001)  ploadbar=  1.01055961451499E+05
 cg2d: Sum(rhs),rhsMax =  -1.21443325273868E+02  1.14527186759550E+00
(PID.TID 0000.0001)  ploadbar=  1.01055918581874E+05
 cg2d: Sum(rhs),rhsMax =  -1.21935403701894E+02  1.14061403664164E+00
(PID.TID 0000.0001)  ploadbar=  1.01055445224146E+05
 cg2d: Sum(rhs),rhsMax =  -1.22448789879748E+02  1.13575680732257E+00
(PID.TID 0000.0001)  ploadbar=  1.01054971866419E+05
 cg2d: Sum(rhs),rhsMax =  -1.22987126358553E+02  1.13066667533182E+00
(PID.TID 0000.0001)  ploadbar=  1.01054498508691E+05
 cg2d: Sum(rhs),rhsMax =  -1.23567731643007E+02  1.12518686166745E+00
(PID.TID 0000.0001)  ploadbar=  1.01054025150963E+05
 cg2d: Sum(rhs),rhsMax =  -1.24174562842653E+02  1.11947118190001E+00
(PID.TID 0000.0001)  ploadbar=  1.01053551793236E+05
 cg2d: Sum(rhs),rhsMax =  -1.24786519175885E+02  1.11371460304689E+00
(PID.TID 0000.0001)  ploadbar=  1.01053078435508E+05
 cg2d: Sum(rhs),rhsMax =  -1.25493095901315E+02  1.10722476690884E+00
(PID.TID 0000.0001)  ploadbar=  1.01053642942400E+05
 cg2d: Sum(rhs),rhsMax =  -1.26276565722417E+02  1.10016521711297E+00
(PID.TID 0000.0001)  ploadbar=  1.01054207449292E+05
 cg2d: Sum(rhs),rhsMax =  -1.27168712586033E+02  1.09227840194026E+00
(PID.TID 0000.0001)  ploadbar=  1.01054771956185E+05
 cg2d: Sum(rhs),rhsMax =  -1.28190511845426E+02  1.08342281463479E+00
(PID.TID 0000.0001)  ploadbar=  1.01055336463077E+05
 cg2d: Sum(rhs),rhsMax =  -1.29367252075302E+02  1.07343656675781E+00
(PID.TID 0000.0001)  ploadbar=  1.01055900969969E+05
 cg2d: Sum(rhs),rhsMax =  -1.30725465073707E+02  1.06216870171786E+00
(PID.TID 0000.0001)  ploadbar=  1.01056465476861E+05
 cg2d: Sum(rhs),rhsMax =  -1.32273922186199E+02  1.04963623497532E+00
(PID.TID 0000.0001)  ploadbar=  1.01056323533534E+05
 cg2d: Sum(rhs),rhsMax =  -1.33903912852609E+02  1.03676781749162E+00
(PID.TID 0000.0001)  ploadbar=  1.01056181590206E+05
 cg2d: Sum(rhs),rhsMax =  -1.35531221770866E+02  1.02423655503864E+00
(PID.TID 0000.0001)  ploadbar=  1.01056039646879E+05
 cg2d: Sum(rhs),rhsMax =  -1.37097199355753E+02  1.01246139051472E+00
(PID.TID 0000.0001)  ploadbar=  1.01055897703552E+05
 cg2d: Sum(rhs),rhsMax =  -1.38523493191974E+02  1.00196765601972E+00
(PID.TID 0000.0001)  ploadbar=  1.01055755760224E+05
 cg2d: Sum(rhs),rhsMax =  -1.39755885938045E+02  9.93068100628148E-01
(PID.TID 0000.0001)  ploadbar=  1.01055613816897E+05
 cg2d: Sum(rhs),rhsMax =  -1.40842175752615E+02  9.85361118935856E-01
(PID.TID 0000.0001)  ploadbar=  1.01056246452686E+05
 cg2d: Sum(rhs),rhsMax =  -1.41711232464352E+02  9.79279776557848E-01
(PID.TID 0000.0001)  ploadbar=  1.01056879088474E+05
 cg2d: Sum(rhs),rhsMax =  -1.42331515247438E+02  9.74984699354504E-01
(PID.TID 0000.0001)  ploadbar=  1.01057511724263E+05
 cg2d: Sum(rhs),rhsMax =  -1.42762034677764E+02  9.72027950138100E-01
(PID.TID 0000.0001)  ploadbar=  1.01058144360051E+05
 cg2d: Sum(rhs),rhsMax =  -1.43060708929700E+02  9.69989633164996E-01
(PID.TID 0000.0001)  ploadbar=  1.01058776995840E+05
 cg2d: Sum(rhs),rhsMax =  -1.43214896813088E+02  9.68935378458559E-01
(PID.TID 0000.0001)  ploadbar=  1.01059409631628E+05
 cg2d: Sum(rhs),rhsMax =  -1.43355678819816E+02  9.67964718719897E-01
(PID.TID 0000.0001)  ploadbar=  1.01058252609993E+05
 cg2d: Sum(rhs),rhsMax =  -1.42354010144441E+02  9.74735908612587E-01
(PID.TID 0000.0001)  ploadbar=  1.01057095588358E+05
 cg2d: Sum(rhs),rhsMax =  -1.40898938890364E+02  9.84735189216779E-01
(PID.TID 0000.0001)  ploadbar=  1.01055938566723E+05
 cg2d: Sum(rhs),rhsMax =  -1.39571765914326E+02  9.93999187873551E-01
(PID.TID 0000.0001)  ploadbar=  1.01054781545087E+05
 cg2d: Sum(rhs),rhsMax =  -1.38365945105376E+02  1.00252826653246E+00
(PID.TID 0000.0001)  ploadbar=  1.01053624523452E+05
 cg2d: Sum(rhs),rhsMax =  -1.37329551243877E+02  1.00992735755790E+00
(PID.TID 0000.0001)  ploadbar=  1.01052467501817E+05
 cg2d: Sum(rhs),rhsMax =  -1.36434804472818E+02  1.01642923677077E+00
(PID.TID 0000.0001)  ploadbar=  1.01052208954381E+05
 cg2d: Sum(rhs),rhsMax =  -1.35593499743276E+02  1.02264211547888E+00
(PID.TID 0000.0001)  ploadbar=  1.01051950406944E+05
 cg2d: Sum(rhs),rhsMax =  -1.34792314950159E+02  1.02864689856760E+00
(PID.TID 0000.0001)  ploadbar=  1.01051691859508E+05
 cg2d: Sum(rhs),rhsMax =  -1.34037618870882E+02  1.03438415169305E+00
(PID.TID 0000.0001)  ploadbar=  1.01051433312072E+05
 cg2d: Sum(rhs),rhsMax =  -1.33340760004283E+02  1.03975191536037E+00
(PID.TID 0000.0001)  ploadbar=  1.01051174764635E+05
 cg2d: Sum(rhs),rhsMax =  -1.32713411147752E+02  1.04464832668594E+00
(PID.TID 0000.0001)  ploadbar=  1.01050916217199E+05
 cg2d: Sum(rhs),rhsMax =  -1.32007065040301E+02  1.05021519229914E+00
(PID.TID 0000.0001)  ploadbar=  1.01049009407789E+05
 cg2d: Sum(rhs),rhsMax =  -1.31358148129572E+02  1.05536240883722E+00
(PID.TID 0000.0001)  ploadbar=  1.01047102598380E+05
 cg2d: Sum(rhs),rhsMax =  -1.30763248102283E+02  1.06010425348373E+00
(PID.TID 0000.0001)  ploadbar=  1.01045195788970E+05
 cg2d: Sum(rhs),rhsMax =  -1.30213001747676E+02  1.06450698597146E+00
(PID.TID 0000.0001)  ploadbar=  1.01043288979560E+05
 cg2d: Sum(rhs),rhsMax =  -1.29695942435809E+02  1.06865852108881E+00
(PID.TID 0000.0001)  ploadbar=  1.01041382170151E+05
 cg2d: Sum(rhs),rhsMax =  -1.29196624422231E+02  1.07267586304810E+00
(PID.TID 0000.0001)  ploadbar=  1.01039475360741E+05
 cg2d: Sum(rhs),rhsMax =  -1.28672028875971E+02  1.07694745304324E+00
(PID.TID 0000.0001)  ploadbar=  1.01037809244421E+05
 cg2d: Sum(rhs),rhsMax =  -1.28094389151125E+02  1.08170885340978E+00
(PID.TID 0000.0001)  ploadbar=  1.01036143128102E+05
 cg2d: Sum(rhs),rhsMax =  -1.27371378285811E+02  1.08776256423323E+00
(PID.TID 0000.0001)  ploadbar=  1.01034477011782E+05
 cg2d: Sum(rhs),rhsMax =  -1.26422225968005E+02  1.09585104519720E+00
(PID.TID 0000.0001)  ploadbar=  1.01032810895462E+05
 cg2d: Sum(rhs),rhsMax =  -1.26160614433880E+02  1.09804669547982E+00
(PID.TID 0000.0001)  ploadbar=  1.01031144779143E+05
 cg2d: Sum(rhs),rhsMax =  -1.26562054589434E+02  1.09447600121540E+00
(PID.TID 0000.0001)  ploadbar=  1.01029478662823E+05
 cg2d: Sum(rhs),rhsMax =  -1.25699672617951E+02  1.10188422428713E+00
(PID.TID 0000.0001)  ploadbar=  1.01028370399071E+05
 cg2d: Sum(rhs),rhsMax =  -1.24900407433487E+02  1.10881305355961E+00
(PID.TID 0000.0001)  ploadbar=  1.01027262135319E+05
 cg2d: Sum(rhs),rhsMax =  -1.24173330395179E+02  1.11515519406369E+00
(PID.TID 0000.0001)  ploadbar=  1.01026153871567E+05
 cg2d: Sum(rhs),rhsMax =  -1.23512413300607E+02  1.12093951334727E+00
(PID.TID 0000.0001)  ploadbar=  1.01025045607815E+05
 cg2d: Sum(rhs),rhsMax =  -1.22906781096532E+02  1.12624448067359E+00
(PID.TID 0000.0001)  ploadbar=  1.01023937344063E+05
 cg2d: Sum(rhs),rhsMax =  -1.22619720910243E+02  1.12862715084096E+00
(PID.TID 0000.0001)  ploadbar=  1.01022829080311E+05
 cg2d: Sum(rhs),rhsMax =  -1.22565680195623E+02  1.12891844660735E+00
(PID.TID 0000.0001)  ploadbar=  1.01021673389524E+05
 cg2d: Sum(rhs),rhsMax =  -1.22661896160088E+02  1.12785329965755E+00
(PID.TID 0000.0001)  ploadbar=  1.01020517698738E+05
 cg2d: Sum(rhs),rhsMax =  -1.22919884030455E+02  1.12532296889777E+00
(PID.TID 0000.0001)  ploadbar=  1.01019362007952E+05
 cg2d: Sum(rhs),rhsMax =  -1.23328138153734E+02  1.12145103464745E+00
(PID.TID 0000.0001)  ploadbar=  1.01018206317166E+05
 cg2d: Sum(rhs),rhsMax =  -1.23858286859662E+02  1.11652143088522E+00
(PID.TID 0000.0001)  ploadbar=  1.01017050626379E+05
 cg2d: Sum(rhs),rhsMax =  -1.24469684699106E+02  1.11093090998586E+00
(PID.TID 0000.0001)  ploadbar=  1.01015894935593E+05
 cg2d: Sum(rhs),rhsMax =  -1.25127771482411E+02  1.10499365476365E+00
(PID.TID 0000.0001)  ploadbar=  1.01015263631564E+05
 cg2d: Sum(rhs),rhsMax =  -1.25565949578018E+02  1.10103851805774E+00
(PID.TID 0000.0001)  ploadbar=  1.01014632327536E+05
 cg2d: Sum(rhs),rhsMax =  -1.25235842166836E+02  1.10383452500485E+00
(PID.TID 0000.0001)  ploadbar=  1.01014001023508E+05
 cg2d: Sum(rhs),rhsMax =  -1.25003107945111E+02  1.10577740191390E+00
(PID.TID 0000.0001)  ploadbar=  1.01013369719479E+05
 cg2d: Sum(rhs),rhsMax =  -1.24804943961517E+02  1.10742078869663E+00
(PID.TID 0000.0001)  ploadbar=  1.01012738415451E+05
 cg2d: Sum(rhs),rhsMax =  -1.24752842421451E+02  1.10776777758928E+00
(PID.TID 0000.0001)  ploadbar=  1.01012107111422E+05
 cg2d: Sum(rhs),rhsMax =  -1.24665875199539E+02  1.10843470015236E+00
(PID.TID 0000.0001)  ploadbar=  1.01012453831508E+05
 cg2d: Sum(rhs),rhsMax =  -1.24536430089676E+02  1.10948237137305E+00
(PID.TID 0000.0001)  ploadbar=  1.01012800551594E+05
 cg2d: Sum(rhs),rhsMax =  -1.24349659676722E+02  1.11104776092944E+00
(PID.TID 0000.0001)  ploadbar=  1.01013147271680E+05
 cg2d: Sum(rhs),rhsMax =  -1.24114837351982E+02  1.11305401680503E+00
(PID.TID 0000.0001)  ploadbar=  1.01013493991766E+05
 cg2d: Sum(rhs),rhsMax =  -1.23851878353498E+02  1.11532015295378E+00
(PID.TID 0000.0001)  ploadbar=  1.01013840711852E+05
 cg2d: Sum(rhs),rhsMax =  -1.23592762078429E+02  1.11754761068288E+00
(PID.TID 0000.0001)  ploadbar=  1.01014187431938E+05
 cg2d: Sum(rhs),rhsMax =  -1.23520490544221E+02  1.11809856292140E+00
(PID.TID 0000.0001)  ploadbar=  1.01013760089539E+05
 cg2d: Sum(rhs),rhsMax =  -1.23455712683658E+02  1.11858197372373E+00
(PID.TID 0000.0001)  ploadbar=  1.01013332747141E+05
 cg2d: Sum(rhs),rhsMax =  -1.23390182638352E+02  1.11906613209751E+00
(PID.TID 0000.0001)  ploadbar=  1.01012905404742E+05
 cg2d: Sum(rhs),rhsMax =  -1.23350303591859E+02  1.11930691576941E+00
(PID.TID 0000.0001)  ploadbar=  1.01012478062344E+05
 cg2d: Sum(rhs),rhsMax =  -1.23392342863134E+02  1.11878988770216E+00
(PID.TID 0000.0001)  ploadbar=  1.01012050719945E+05
 cg2d: Sum(rhs),rhsMax =  -1.23536211464177E+02  1.11733628845889E+00
(PID.TID 0000.0001)  ploadbar=  1.01011623377547E+05
 cg2d: Sum(rhs),rhsMax =  -1.23717510659278E+02  1.11560187634830E+00
(PID.TID 0000.0001)  ploadbar=  1.01011018917170E+05
 cg2d: Sum(rhs),rhsMax =  -1.23962937323644E+02  1.11332630300029E+00
(PID.TID 0000.0001)  ploadbar=  1.01010414456793E+05
 cg2d: Sum(rhs),rhsMax =  -1.24289277331460E+02  1.11035390132496E+00
(PID.TID 0000.0001)  ploadbar=  1.01009809996416E+05
 cg2d: Sum(rhs),rhsMax =  -1.24495214279115E+02  1.10848862379573E+00
(PID.TID 0000.0001)  ploadbar=  1.01009205536039E+05
 cg2d: Sum(rhs),rhsMax =  -1.24255105762512E+02  1.11062345896390E+00
(PID.TID 0000.0001)  ploadbar=  1.01008601075662E+05
 cg2d: Sum(rhs),rhsMax =  -1.23587644018075E+02  1.11663815862395E+00
(PID.TID 0000.0001)  ploadbar=  1.01007996615285E+05
 cg2d: Sum(rhs),rhsMax =  -1.22849184250182E+02  1.12336949341472E+00
(PID.TID 0000.0001)  ploadbar=  1.01007217889016E+05
 cg2d: Sum(rhs),rhsMax =  -1.22180013962984E+02  1.12953199432568E+00
(PID.TID 0000.0001)  ploadbar=  1.01006439162746E+05
 cg2d: Sum(rhs),rhsMax =  -1.21590276225819E+02  1.13500878305845E+00
(PID.TID 0000.0001)  ploadbar=  1.01005660436477E+05
 cg2d: Sum(rhs),rhsMax =  -1.21076596868430E+02  1.13980975937325E+00
(PID.TID 0000.0001)  ploadbar=  1.01004881710208E+05
 cg2d: Sum(rhs),rhsMax =  -1.20601749508886E+02  1.14426659987175E+00
(PID.TID 0000.0001)  ploadbar=  1.01004102983939E+05
 cg2d: Sum(rhs),rhsMax =  -1.20076093869144E+02  1.14922122394817E+00
(PID.TID 0000.0001)  ploadbar=  1.01003324257669E+05
 cg2d: Sum(rhs),rhsMax =  -1.19601581629281E+02  1.15373491024887E+00
(PID.TID 0000.0001)  ploadbar=  1.01002906949403E+05
 cg2d: Sum(rhs),rhsMax =  -1.19059373216325E+02  1.15894806687929E+00
(PID.TID 0000.0001)  ploadbar=  1.01002489641137E+05
 cg2d: Sum(rhs),rhsMax =  -1.18382835471468E+02  1.16553918003971E+00
(PID.TID 0000.0001)  ploadbar=  1.01002072332871E+05
 cg2d: Sum(rhs),rhsMax =  -1.17558997644796E+02  1.17368410500196E+00
(PID.TID 0000.0001)  ploadbar=  1.01001655024605E+05
 cg2d: Sum(rhs),rhsMax =  -1.16719610066714E+02  1.18210697837677E+00
(PID.TID 0000.0001)  ploadbar=  1.01001237716339E+05
 cg2d: Sum(rhs),rhsMax =  -1.15865598651661E+02  1.19079433298429E+00
(PID.TID 0000.0001)  ploadbar=  1.01000820408073E+05
 cg2d: Sum(rhs),rhsMax =  -1.14943883627593E+02  1.20031222490797E+00
(PID.TID 0000.0001)  ploadbar=  1.01000380218780E+05
 cg2d: Sum(rhs),rhsMax =  -1.14038251444810E+02  1.20979617623063E+00
(PID.TID 0000.0001)  ploadbar=  1.00999940029486E+05
 cg2d: Sum(rhs),rhsMax =  -1.13545348570584E+02  1.21497686530521E+00
(PID.TID 0000.0001)  ploadbar=  1.00999499840192E+05
 cg2d: Sum(rhs),rhsMax =  -1.14550451192801E+02  1.20422036174459E+00
(PID.TID 0000.0001)  ploadbar=  1.00999059650898E+05
 cg2d: Sum(rhs),rhsMax =  -1.14548120675802E+02  1.20412138702137E+00
(PID.TID 0000.0001)  ploadbar=  1.00998619461604E+05
 cg2d: Sum(rhs),rhsMax =  -1.13549593585455E+02  1.21455908095601E+00
(PID.TID 0000.0001)  ploadbar=  1.00998179272311E+05
 cg2d: Sum(rhs),rhsMax =  -1.12600548766161E+02  1.22469772586471E+00
(PID.TID 0000.0001)  ploadbar=  1.00997429241027E+05
 cg2d: Sum(rhs),rhsMax =  -1.11622830116696E+02  1.23535883288315E+00
(PID.TID 0000.0001)  ploadbar=  1.00996679209743E+05
 cg2d: Sum(rhs),rhsMax =  -1.10868297451220E+02  1.24372399049859E+00
(PID.TID 0000.0001)  ploadbar=  1.00995929178459E+05
 cg2d: Sum(rhs),rhsMax =  -1.11115645017449E+02  1.24093754576308E+00
(PID.TID 0000.0001)  ploadbar=  1.00995179147176E+05
 cg2d: Sum(rhs),rhsMax =  -1.11345330003988E+02  1.23838656653628E+00
(PID.TID 0000.0001)  ploadbar=  1.00994429115892E+05
 cg2d: Sum(rhs),rhsMax =  -1.11556955683111E+02  1.23607195667964E+00
(PID.TID 0000.0001)  ploadbar=  1.00993679084608E+05
 cg2d: Sum(rhs),rhsMax =  -1.11771239812476E+02  1.23374077051773E+00
(PID.TID 0000.0001)  ploadbar=  1.00992390280835E+05
 cg2d: Sum(rhs),rhsMax =  -1.12007992672966E+02  1.23116439427357E+00
(PID.TID 0000.0001)  ploadbar=  1.00991101477061E+05
 cg2d: Sum(rhs),rhsMax =  -1.12295247893852E+02  1.22803611550952E+00
(PID.TID 0000.0001)  ploadbar=  1.00989812673288E+05
 cg2d: Sum(rhs),rhsMax =  -1.11814593912091E+02  1.23332450696387E+00
(PID.TID 0000.0001)  ploadbar=  1.00988523869514E+05
 cg2d: Sum(rhs),rhsMax =  -1.11372956772333E+02  1.23821545789159E+00
(PID.TID 0000.0001)  ploadbar=  1.00987235065741E+05
 cg2d: Sum(rhs),rhsMax =  -1.11017907782774E+02  1.24216303828923E+00
(PID.TID 0000.0001)  ploadbar=  1.00985946261968E+05
 cg2d: Sum(rhs),rhsMax =  -1.10700931982601E+02  1.24571254914186E+00
(PID.TID 0000.0001)  ploadbar=  1.00985760661640E+05
 cg2d: Sum(rhs),rhsMax =  -1.10363250445740E+02  1.24951281871857E+00
(PID.TID 0000.0001)  ploadbar=  1.00985575061313E+05
 cg2d: Sum(rhs),rhsMax =  -1.09952480322777E+02  1.25416498129987E+00
(PID.TID 0000.0001)  ploadbar=  1.00985389460985E+05
 cg2d: Sum(rhs),rhsMax =  -1.09455904760858E+02  1.25983577686768E+00
(PID.TID 0000.0001)  ploadbar=  1.00985203860658E+05
 cg2d: Sum(rhs),rhsMax =  -1.08897404632749E+02  1.26626797898358E+00
(PID.TID 0000.0001)  ploadbar=  1.00985018260330E+05
 cg2d: Sum(rhs),rhsMax =  -1.08315071841884E+02  1.27302380087116E+00
(PID.TID 0000.0001)  ploadbar=  1.00984832660003E+05
 cg2d: Sum(rhs),rhsMax =  -1.07719226975959E+02  1.28001251360065E+00
(PID.TID 0000.0001)  ploadbar=  1.00985015638335E+05
 cg2d: Sum(rhs),rhsMax =  -1.07157349785353E+02  1.28665874700705E+00
(PID.TID 0000.0001)  ploadbar=  1.00985198616666E+05
 cg2d: Sum(rhs),rhsMax =  -1.06669630299190E+02  1.29245638324990E+00
(PID.TID 0000.0001)  ploadbar=  1.00985381594998E+05
 cg2d: Sum(rhs),rhsMax =  -1.06278604272202E+02  1.29710016423995E+00
(PID.TID 0000.0001)  ploadbar=  1.00985564573330E+05
 cg2d: Sum(rhs),rhsMax =  -1.05982606096502E+02  1.30058258679892E+00
(PID.TID 0000.0001)  ploadbar=  1.00985747551662E+05
 cg2d: Sum(rhs),rhsMax =  -1.05778942920270E+02  1.30291570410477E+00
(PID.TID 0000.0001)  ploadbar=  1.00985930529994E+05
 cg2d: Sum(rhs),rhsMax =  -1.05589724336552E+02  1.30513839116932E+00
(PID.TID 0000.0001)  ploadbar=  1.00988615966424E+05
 cg2d: Sum(rhs),rhsMax =  -1.05381891205116E+02  1.30764102333353E+00
(PID.TID 0000.0001)  ploadbar=  1.00991301402855E+05
 cg2d: Sum(rhs),rhsMax =  -1.05120619989002E+02  1.31085425100017E+00
(PID.TID 0000.0001)  ploadbar=  1.00993986839285E+05
 cg2d: Sum(rhs),rhsMax =  -1.04783758295240E+02  1.31506385082191E+00
(PID.TID 0000.0001)  ploadbar=  1.00996672275715E+05
 cg2d: Sum(rhs),rhsMax =  -1.04372162137900E+02  1.32026913593531E+00
(PID.TID 0000.0001)  ploadbar=  1.00999357712146E+05
 cg2d: Sum(rhs),rhsMax =  -1.03908183936527E+02  1.32620670811059E+00
(PID.TID 0000.0001)  ploadbar=  1.01002043148576E+05
 cg2d: Sum(rhs),rhsMax =  -1.03419041627729E+02  1.33251095458346E+00
(PID.TID 0000.0001)  ploadbar=  1.01003057525310E+05
 cg2d: Sum(rhs),rhsMax =  -1.03247656985861E+02  1.33473161307261E+00
(PID.TID 0000.0001)  ploadbar=  1.01004071902044E+05
 cg2d: Sum(rhs),rhsMax =  -1.03337632094364E+02  1.33355686078874E+00
(PID.TID 0000.0001)  ploadbar=  1.01005086278778E+05
 cg2d: Sum(rhs),rhsMax =  -1.03461363768788E+02  1.33192628212886E+00
(PID.TID 0000.0001)  ploadbar=  1.01006100655511E+05
 cg2d: Sum(rhs),rhsMax =  -1.03620728416857E+02  1.32981928664050E+00
(PID.TID 0000.0001)  ploadbar=  1.01007115032245E+05
 cg2d: Sum(rhs),rhsMax =  -1.03823813770420E+02  1.32712798086112E+00
(PID.TID 0000.0001)  ploadbar=  1.01008129408979E+05
 cg2d: Sum(rhs),rhsMax =  -1.04079636594126E+02  1.32380791286947E+00
(PID.TID 0000.0001)  ploadbar=  1.01008252946371E+05
 cg2d: Sum(rhs),rhsMax =  -1.04377107736671E+02  1.32000056687378E+00
(PID.TID 0000.0001)  ploadbar=  1.01008376483763E+05
 cg2d: Sum(rhs),rhsMax =  -1.04702705959549E+02  1.31588201982828E+00
(PID.TID 0000.0001)  ploadbar=  1.01008500021154E+05
 cg2d: Sum(rhs),rhsMax =  -1.05042124008577E+02  1.31163608021935E+00
(PID.TID 0000.0001)  ploadbar=  1.01008623558546E+05
 cg2d: Sum(rhs),rhsMax =  -1.05384700387438E+02  1.30739374751655E+00
(PID.TID 0000.0001)  ploadbar=  1.01008747095938E+05
 cg2d: Sum(rhs),rhsMax =  -1.05726136725933E+02  1.30319786223068E+00
(PID.TID 0000.0001)  ploadbar=  1.01008870633330E+05
 cg2d: Sum(rhs),rhsMax =  -1.06014405279996E+02  1.29967613526460E+00
(PID.TID 0000.0001)  ploadbar=  1.01009855426205E+05
 cg2d: Sum(rhs),rhsMax =  -1.06242571054314E+02  1.29689347644664E+00
(PID.TID 0000.0001)  ploadbar=  1.01010840219081E+05
 cg2d: Sum(rhs),rhsMax =  -1.06412690653942E+02  1.29480684016523E+00
(PID.TID 0000.0001)  ploadbar=  1.01011825011956E+05
 cg2d: Sum(rhs),rhsMax =  -1.06533744159596E+02  1.29329674926613E+00
(PID.TID 0000.0001)  ploadbar=  1.01012809804832E+05
 cg2d: Sum(rhs),rhsMax =  -1.06613207001470E+02  1.29226353453625E+00
(PID.TID 0000.0001)  ploadbar=  1.01013794597708E+05
 cg2d: Sum(rhs),rhsMax =  -1.06659350076841E+02  1.29160300981567E+00
(PID.TID 0000.0001)  ploadbar=  1.01014779390583E+05
 cg2d: Sum(rhs),rhsMax =  -1.06748343362852E+02  1.29047159705737E+00
(PID.TID 0000.0001)  ploadbar=  1.01016828618540E+05
 cg2d: Sum(rhs),rhsMax =  -1.06890796208177E+02  1.28872601380986E+00
(PID.TID 0000.0001)  ploadbar=  1.01018877846497E+05
 cg2d: Sum(rhs),rhsMax =  -1.07093014925993E+02  1.28628980168593E+00
(PID.TID 0000.0001)  ploadbar=  1.01020927074454E+05
 cg2d: Sum(rhs),rhsMax =  -1.07354633305477E+02  1.28317208432255E+00
(PID.TID 0000.0001)  ploadbar=  1.01022976302411E+05
 cg2d: Sum(rhs),rhsMax =  -1.07664937027366E+02  1.27950192361520E+00
(PID.TID 0000.0001)  ploadbar=  1.01025025530368E+05
 cg2d: Sum(rhs),rhsMax =  -1.08009917973675E+02  1.27545090203878E+00
(PID.TID 0000.0001)  ploadbar=  1.01027074758325E+05
 cg2d: Sum(rhs),rhsMax =  -1.08379244878642E+02  1.27114015511767E+00
(PID.TID 0000.0001)  ploadbar=  1.01028938588128E+05
 cg2d: Sum(rhs),rhsMax =  -1.08779640849871E+02  1.26649508168866E+00
(PID.TID 0000.0001)  ploadbar=  1.01030802417932E+05
 cg2d: Sum(rhs),rhsMax =  -1.09263505354922E+02  1.26091771761587E+00
(PID.TID 0000.0001)  ploadbar=  1.01032666247735E+05
 cg2d: Sum(rhs),rhsMax =  -1.09821906800606E+02  1.25453531097368E+00
(PID.TID 0000.0001)  ploadbar=  1.01034530077539E+05
 cg2d: Sum(rhs),rhsMax =  -1.10445734062100E+02  1.24747598649843E+00
(PID.TID 0000.0001)  ploadbar=  1.01036393907342E+05
 cg2d: Sum(rhs),rhsMax =  -1.11141451703447E+02  1.23968629188357E+00
(PID.TID 0000.0001)  ploadbar=  1.01038257737146E+05
 cg2d: Sum(rhs),rhsMax =  -1.11895221219453E+02  1.23136397246607E+00
(PID.TID 0000.0001)  ploadbar=  1.01039974092424E+05
 cg2d: Sum(rhs),rhsMax =  -1.12745052193744E+02  1.22210603177286E+00
(PID.TID 0000.0001)  ploadbar=  1.01041690447702E+05
 cg2d: Sum(rhs),rhsMax =  -1.13698531218401E+02  1.21187146522934E+00
(PID.TID 0000.0001)  ploadbar=  1.01043406802980E+05
 cg2d: Sum(rhs),rhsMax =  -1.14770119006565E+02  1.20055714398685E+00
(PID.TID 0000.0001)  ploadbar=  1.01045123158259E+05
 cg2d: Sum(rhs),rhsMax =  -1.15970593347085E+02  1.18811085792661E+00
(PID.TID 0000.0001)  ploadbar=  1.01046839513537E+05
 cg2d: Sum(rhs),rhsMax =  -1.17313235570729E+02  1.17446761145496E+00
(PID.TID 0000.0001)  ploadbar=  1.01048555868815E+05
 cg2d: Sum(rhs),rhsMax =  -1.18770733263198E+02  1.15999490464950E+00
(PID.TID 0000.0001)  ploadbar=  1.01049774991858E+05
 cg2d: Sum(rhs),rhsMax =  -1.20274166016846E+02  1.14541585539498E+00
(PID.TID 0000.0001)  ploadbar=  1.01050994114901E+05
 cg2d: Sum(rhs),rhsMax =  -1.21082426288416E+02  1.13766638710840E+00
(PID.TID 0000.0001)  ploadbar=  1.01052213237944E+05
 cg2d: Sum(rhs),rhsMax =  -1.20501860384384E+02  1.14301687834842E+00
(PID.TID 0000.0001)  ploadbar=  1.01053432360987E+05
 cg2d: Sum(rhs),rhsMax =  -1.19987898473772E+02  1.14775263921495E+00
(PID.TID 0000.0001)  ploadbar=  1.01054651484030E+05
 cg2d: Sum(rhs),rhsMax =  -1.19560903023954E+02  1.15166149075987E+00
(PID.TID 0000.0001)  ploadbar=  1.01055870607073E+05
 cg2d: Sum(rhs),rhsMax =  -1.19192587285092E+02  1.15508900129556E+00
(PID.TID 0000.0001)  ploadbar=  1.01055835254956E+05
 cg2d: Sum(rhs),rhsMax =  -1.18865523539321E+02  1.15817897191970E+00
(PID.TID 0000.0001)  ploadbar=  1.01055799902839E+05
 cg2d: Sum(rhs),rhsMax =  -1.18563209383207E+02  1.16107377446079E+00
(PID.TID 0000.0001)  ploadbar=  1.01055764550721E+05
 cg2d: Sum(rhs),rhsMax =  -1.18296245358962E+02  1.16366171764399E+00
(PID.TID 0000.0001)  ploadbar=  1.01055729198604E+05
 cg2d: Sum(rhs),rhsMax =  -1.18043645432000E+02  1.16614342640823E+00
(PID.TID 0000.0001)  ploadbar=  1.01055693846487E+05
 cg2d: Sum(rhs),rhsMax =  -1.17817041072388E+02  1.16839961336289E+00
(PID.TID 0000.0001)  ploadbar=  1.01055658494370E+05
 cg2d: Sum(rhs),rhsMax =  -1.17333932582144E+02  1.17321006880632E+00
(PID.TID 0000.0001)  ploadbar=  1.01055708470016E+05
 cg2d: Sum(rhs),rhsMax =  -1.16731262635460E+02  1.17924985481232E+00
(PID.TID 0000.0001)  ploadbar=  1.01055758445662E+05
 cg2d: Sum(rhs),rhsMax =  -1.15967878711890E+02  1.18697747700956E+00
(PID.TID 0000.0001)  ploadbar=  1.01055808421308E+05
 cg2d: Sum(rhs),rhsMax =  -1.15365538893257E+02  1.19312043583841E+00
(PID.TID 0000.0001)  ploadbar=  1.01055858396954E+05
 cg2d: Sum(rhs),rhsMax =  -1.14968611479591E+02  1.19716314684040E+00
(PID.TID 0000.0001)  ploadbar=  1.01055908372600E+05
 cg2d: Sum(rhs),rhsMax =  -1.14847319350093E+02  1.19832283736451E+00
(PID.TID 0000.0001)  ploadbar=  1.01055958348246E+05
 cg2d: Sum(rhs),rhsMax =  -1.15100285772307E+02  1.19560330946451E+00
(PID.TID 0000.0001)  ploadbar=  1.01056354032204E+05
 cg2d: Sum(rhs),rhsMax =  -1.15531994799413E+02  1.19106089868846E+00
(PID.TID 0000.0001)  ploadbar=  1.01056749716162E+05
 cg2d: Sum(rhs),rhsMax =  -1.16087965956412E+02  1.18528903670109E+00
(PID.TID 0000.0001)  ploadbar=  1.01057145400121E+05
 cg2d: Sum(rhs),rhsMax =  -1.16736934374292E+02  1.17863612539968E+00
(PID.TID 0000.0001)  ploadbar=  1.01057541084079E+05
 cg2d: Sum(rhs),rhsMax =  -1.17461218287845E+02  1.17130350500883E+00
(PID.TID 0000.0001)  ploadbar=  1.01057936768038E+05
 cg2d: Sum(rhs),rhsMax =  -1.18259255011714E+02  1.16332531476761E+00
(PID.TID 0000.0001)  ploadbar=  1.01058332451996E+05
 cg2d: Sum(rhs),rhsMax =  -1.18987823370300E+02  1.15610822529693E+00
(PID.TID 0000.0001)  ploadbar=  1.01057373887674E+05
 cg2d: Sum(rhs),rhsMax =  -1.19640480652790E+02  1.14967871098607E+00
(PID.TID 0000.0001)  ploadbar=  1.01056415323353E+05
 cg2d: Sum(rhs),rhsMax =  -1.20053910910358E+02  1.14556409665166E+00
(PID.TID 0000.0001)  ploadbar=  1.01055456759031E+05
 cg2d: Sum(rhs),rhsMax =  -1.18422513915977E+02  1.16115234293896E+00
(PID.TID 0000.0001)  ploadbar=  1.01054498194710E+05
 cg2d: Sum(rhs),rhsMax =  -1.16882087354496E+02  1.17622046825363E+00
(PID.TID 0000.0001)  ploadbar=  1.01053539630389E+05
 cg2d: Sum(rhs),rhsMax =  -1.15654147000464E+02  1.18842934207048E+00
(PID.TID 0000.0001)  ploadbar=  1.01052581066067E+05
 cg2d: Sum(rhs),rhsMax =  -1.14514164787924E+02  1.20003467891058E+00
(PID.TID 0000.0001)  ploadbar=  1.01051234065505E+05
 cg2d: Sum(rhs),rhsMax =  -1.13523224704000E+02  1.21032628918089E+00
(PID.TID 0000.0001)  ploadbar=  1.01049887064942E+05
 cg2d: Sum(rhs),rhsMax =  -1.12692871260821E+02  1.21909222065470E+00
(PID.TID 0000.0001)  ploadbar=  1.01048540064380E+05
 cg2d: Sum(rhs),rhsMax =  -1.12000053360232E+02  1.22650945784402E+00
(PID.TID 0000.0001)  ploadbar=  1.01047193063817E+05
 cg2d: Sum(rhs),rhsMax =  -1.11407812636278E+02  1.23293264188634E+00
(PID.TID 0000.0001)  ploadbar=  1.01045846063255E+05
 cg2d: Sum(rhs),rhsMax =  -1.10867798744534E+02  1.23886472467797E+00
(PID.TID 0000.0001)  ploadbar=  1.01044499062692E+05
 cg2d: Sum(rhs),rhsMax =  -1.10129668657059E+02  1.24708222333520E+00
(PID.TID 0000.0001)  ploadbar=  1.01044991615080E+05
 cg2d: Sum(rhs),rhsMax =  -1.09364846495769E+02  1.25569839542397E+00
(PID.TID 0000.0001)  ploadbar=  1.01045484167468E+05
 cg2d: Sum(rhs),rhsMax =  -1.08554052234370E+02  1.26495119149591E+00
(PID.TID 0000.0001)  ploadbar=  1.01045976719856E+05
 cg2d: Sum(rhs),rhsMax =  -1.07699416112407E+02  1.27484048478433E+00
(PID.TID 0000.0001)  ploadbar=  1.01046469272244E+05
 cg2d: Sum(rhs),rhsMax =  -1.06808997247381E+02  1.28529560473323E+00
(PID.TID 0000.0001)  ploadbar=  1.01046961824632E+05
 cg2d: Sum(rhs),rhsMax =  -1.05897051903656E+02  1.29616074119225E+00
(PID.TID 0000.0001)  ploadbar=  1.01047454377020E+05
 cg2d: Sum(rhs),rhsMax =  -1.04907551335064E+02  1.30821191711928E+00
(PID.TID 0000.0001)  ploadbar=  1.01047919888208E+05
 cg2d: Sum(rhs),rhsMax =  -1.03806763670977E+02  1.32193498362629E+00
(PID.TID 0000.0001)  ploadbar=  1.01048385399395E+05
 cg2d: Sum(rhs),rhsMax =  -1.02437104609193E+02  1.33948624360033E+00
(PID.TID 0000.0001)  ploadbar=  1.01048850910583E+05
 cg2d: Sum(rhs),rhsMax =  -1.01108819811005E+02  1.35698494810973E+00
(PID.TID 0000.0001)  ploadbar=  1.01049316421771E+05
 cg2d: Sum(rhs),rhsMax =  -9.98125576915970E+01  1.37453481993529E+00
(PID.TID 0000.0001)  ploadbar=  1.01049781932958E+05
 cg2d: Sum(rhs),rhsMax =  -9.86513404636071E+01  1.39066046281247E+00
(PID.TID 0000.0001)  ploadbar=  1.01050247444146E+05
 cg2d: Sum(rhs),rhsMax =  -9.75944897750914E+01  1.40564813010318E+00
(PID.TID 0000.0001)  ploadbar=  1.01051559366780E+05
 cg2d: Sum(rhs),rhsMax =  -9.65957627814792E+01  1.42008090903346E+00
(PID.TID 0000.0001)  ploadbar=  1.01052871289415E+05
 cg2d: Sum(rhs),rhsMax =  -9.56321302992659E+01  1.43425277771560E+00
(PID.TID 0000.0001)  ploadbar=  1.01054183212050E+05
 cg2d: Sum(rhs),rhsMax =  -9.46958678903669E+01  1.44825265503178E+00
(PID.TID 0000.0001)  ploadbar=  1.01055495134684E+05
 cg2d: Sum(rhs),rhsMax =  -9.37853938016135E+01  1.46208437813215E+00
(PID.TID 0000.0001)  ploadbar=  1.01056807057319E+05
 cg2d: Sum(rhs),rhsMax =  -9.29035124391803E+01  1.47568705141756E+00
(PID.TID 0000.0001)  ploadbar=  1.01058118979953E+05
 cg2d: Sum(rhs),rhsMax =  -9.20998139546808E+01  1.48834436695694E+00
(PID.TID 0000.0001)  ploadbar=  1.01057715538098E+05
 cg2d: Sum(rhs),rhsMax =  -9.13639924980118E+01  1.50015248633216E+00
(PID.TID 0000.0001)  ploadbar=  1.01057312096241E+05
 cg2d: Sum(rhs),rhsMax =  -9.07050541185391E+01  1.51090627549784E+00
(PID.TID 0000.0001)  ploadbar=  1.01056908654386E+05
 cg2d: Sum(rhs),rhsMax =  -9.01012900926742E+01  1.52091909892658E+00
(PID.TID 0000.0001)  ploadbar=  1.01056505212530E+05
 cg2d: Sum(rhs),rhsMax =  -8.92972695729435E+01  1.53453339489071E+00
(PID.TID 0000.0001)  ploadbar=  1.01056101770674E+05
 cg2d: Sum(rhs),rhsMax =  -8.84255689550475E+01  1.54961259337541E+00
(PID.TID 0000.0001)  ploadbar=  1.01055698328818E+05
 cg2d: Sum(rhs),rhsMax =  -8.75527775292886E+01  1.56498038673133E+00
(PID.TID 0000.0001)  ploadbar=  1.01055194103258E+05
 cg2d: Sum(rhs),rhsMax =  -8.67065828603192E+01  1.58013006338043E+00
(PID.TID 0000.0001)  ploadbar=  1.01054689877699E+05
 cg2d: Sum(rhs),rhsMax =  -8.69536924743037E+01  1.57546988856380E+00
(PID.TID 0000.0001)  ploadbar=  1.01054185652140E+05
 cg2d: Sum(rhs),rhsMax =  -8.78971281868561E+01  1.55834634349804E+00
(PID.TID 0000.0001)  ploadbar=  1.01053681426580E+05
 cg2d: Sum(rhs),rhsMax =  -8.89090783270694E+01  1.54035360356919E+00
(PID.TID 0000.0001)  ploadbar=  1.01053177201021E+05
 cg2d: Sum(rhs),rhsMax =  -8.99979329155479E+01  1.52141559882221E+00
(PID.TID 0000.0001)  ploadbar=  1.01052672975462E+05
 cg2d: Sum(rhs),rhsMax =  -9.10002829838322E+01  1.50438226063349E+00
(PID.TID 0000.0001)  ploadbar=  1.01051988607045E+05
 cg2d: Sum(rhs),rhsMax =  -9.19232750416628E+01  1.48902048378795E+00
(PID.TID 0000.0001)  ploadbar=  1.01051304238629E+05
 cg2d: Sum(rhs),rhsMax =  -9.27584963309204E+01  1.47537648003369E+00
(PID.TID 0000.0001)  ploadbar=  1.01050619870213E+05
 cg2d: Sum(rhs),rhsMax =  -9.34612129539535E+01  1.46406589085229E+00
(PID.TID 0000.0001)  ploadbar=  1.01049935501797E+05
 cg2d: Sum(rhs),rhsMax =  -9.40261612611030E+01  1.45506726401884E+00
(PID.TID 0000.0001)  ploadbar=  1.01049251133381E+05
 cg2d: Sum(rhs),rhsMax =  -9.44433882441674E+01  1.44843763704786E+00
(PID.TID 0000.0001)  ploadbar=  1.01048566764964E+05
 cg2d: Sum(rhs),rhsMax =  -9.36575550926389E+01  1.46039510399434E+00
(PID.TID 0000.0001)  ploadbar=  1.01047491706778E+05
 cg2d: Sum(rhs),rhsMax =  -9.28456565278215E+01  1.47296320790354E+00
(PID.TID 0000.0001)  ploadbar=  1.01046416648591E+05
 cg2d: Sum(rhs),rhsMax =  -9.20496142726331E+01  1.48548350606269E+00
(PID.TID 0000.0001)  ploadbar=  1.01045341590405E+05
 cg2d: Sum(rhs),rhsMax =  -9.13128113652157E+01  1.49723179335158E+00
(PID.TID 0000.0001)  ploadbar=  1.01044266532219E+05
 cg2d: Sum(rhs),rhsMax =  -9.12787688555982E+01  1.49753133364548E+00
(PID.TID 0000.0001)  ploadbar=  1.01043191474032E+05
 cg2d: Sum(rhs),rhsMax =  -9.15765643780489E+01  1.49238131784050E+00
(PID.TID 0000.0001)  ploadbar=  1.01042116415846E+05
 cg2d: Sum(rhs),rhsMax =  -9.19790065047949E+01  1.48564185851696E+00
(PID.TID 0000.0001)  ploadbar=  1.01040142921763E+05
 cg2d: Sum(rhs),rhsMax =  -9.24995367354901E+01  1.47712672375372E+00
(PID.TID 0000.0001)  ploadbar=  1.01038169427681E+05
 cg2d: Sum(rhs),rhsMax =  -9.31256965067927E+01  1.46708009090422E+00
(PID.TID 0000.0001)  ploadbar=  1.01036195933599E+05
 cg2d: Sum(rhs),rhsMax =  -9.38255054065122E+01  1.45605770809149E+00
(PID.TID 0000.0001)  ploadbar=  1.01034222439516E+05
 cg2d: Sum(rhs),rhsMax =  -9.45765531837066E+01  1.44444930379440E+00
(PID.TID 0000.0001)  ploadbar=  1.01032248945434E+05
 cg2d: Sum(rhs),rhsMax =  -9.53711081967833E+01  1.43240283124852E+00
(PID.TID 0000.0001)  ploadbar=  1.01030275451352E+05
 cg2d: Sum(rhs),rhsMax =  -9.62744007720534E+01  1.41893966682540E+00
(PID.TID 0000.0001)  ploadbar=  1.01028395968358E+05
 cg2d: Sum(rhs),rhsMax =  -9.73352082243672E+01  1.40343358363923E+00
(PID.TID 0000.0001)  ploadbar=  1.01026516485364E+05
 cg2d: Sum(rhs),rhsMax =  -9.85792621306056E+01  1.38566188491943E+00
(PID.TID 0000.0001)  ploadbar=  1.01024637002370E+05
 cg2d: Sum(rhs),rhsMax =  -1.00018237840224E+02  1.36564730358292E+00
(PID.TID 0000.0001)  ploadbar=  1.01022757519376E+05
 cg2d: Sum(rhs),rhsMax =  -1.01672791809857E+02  1.34332867986001E+00
(PID.TID 0000.0001)  ploadbar=  1.01020878036383E+05
 cg2d: Sum(rhs),rhsMax =  -1.03530420189762E+02  1.31910816789149E+00
(PID.TID 0000.0001)  ploadbar=  1.01018998553389E+05
 cg2d: Sum(rhs),rhsMax =  -1.05548674788309E+02  1.29379252622989E+00
(PID.TID 0000.0001)  ploadbar=  1.01017607703917E+05
 cg2d: Sum(rhs),rhsMax =  -1.07665681273902E+02  1.26827884626912E+00
(PID.TID 0000.0001)  ploadbar=  1.01016216854445E+05
 cg2d: Sum(rhs),rhsMax =  -1.09857808548171E+02  1.24291814250387E+00
(PID.TID 0000.0001)  ploadbar=  1.01014826004973E+05
 cg2d: Sum(rhs),rhsMax =  -1.10461257295250E+02  1.23609380173803E+00
(PID.TID 0000.0001)  ploadbar=  1.01013435155501E+05
 cg2d: Sum(rhs),rhsMax =  -1.10614039069625E+02  1.23436971766590E+00
(PID.TID 0000.0001)  ploadbar=  1.01012044306029E+05
 cg2d: Sum(rhs),rhsMax =  -1.10827004291046E+02  1.23198758588278E+00
(PID.TID 0000.0001)  ploadbar=  1.01010653456557E+05
 cg2d: Sum(rhs),rhsMax =  -1.10996002159377E+02  1.23008736016009E+00
(PID.TID 0000.0001)  ploadbar=  1.01008133506582E+05
 cg2d: Sum(rhs),rhsMax =  -1.11109990794702E+02  1.22877374848755E+00
(PID.TID 0000.0001)  ploadbar=  1.01005613556608E+05
 cg2d: Sum(rhs),rhsMax =  -1.11150883950210E+02  1.22823758716138E+00
(PID.TID 0000.0001)  ploadbar=  1.01003093606634E+05
 cg2d: Sum(rhs),rhsMax =  -1.11118506815966E+02  1.22847675515523E+00
(PID.TID 0000.0001)  ploadbar=  1.01000573656659E+05
 cg2d: Sum(rhs),rhsMax =  -1.12489500768323E+02  1.21335193804422E+00
(PID.TID 0000.0001)  ploadbar=  1.00998053706685E+05
 cg2d: Sum(rhs),rhsMax =  -1.14608527806658E+02  1.19073382156650E+00
(PID.TID 0000.0001)  ploadbar=  1.00995533756711E+05
 cg2d: Sum(rhs),rhsMax =  -1.14072607117383E+02  1.19621136140527E+00
(PID.TID 0000.0001)  ploadbar=  1.00993142634120E+05
 cg2d: Sum(rhs),rhsMax =  -1.12916751559145E+02  1.20839256813806E+00
(PID.TID 0000.0001)  ploadbar=  1.00990751511530E+05
 cg2d: Sum(rhs),rhsMax =  -1.11533750045731E+02  1.22335398241518E+00
(PID.TID 0000.0001)  ploadbar=  1.00988360388939E+05
 cg2d: Sum(rhs),rhsMax =  -1.10000675027788E+02  1.24041943453198E+00
(PID.TID 0000.0001)  ploadbar=  1.00985969266348E+05
 cg2d: Sum(rhs),rhsMax =  -1.08292511080640E+02  1.26004190421357E+00
(PID.TID 0000.0001)  ploadbar=  1.00983578143758E+05
 cg2d: Sum(rhs),rhsMax =  -1.06393912857397E+02  1.28262557443828E+00
(PID.TID 0000.0001)  ploadbar=  1.00981187021167E+05
 cg2d: Sum(rhs),rhsMax =  -1.04779241617868E+02  1.30246662323287E+00
(PID.TID 0000.0001)  ploadbar=  1.00979251729067E+05
 cg2d: Sum(rhs),rhsMax =  -1.03433534186698E+02  1.31945259763078E+00
(PID.TID 0000.0001)      cg2d_init_res =   3.02921313405088E-01
(PID.TID 0000.0001)      cg2d_iters(min,last) =      -1     135
(PID.TID 0000.0001)      cg2d_last_res =   9.97035698641857E-08
(PID.TID 0000.0001) // =======================================================
(PID.TID 0000.0001) // Begin MONITOR dynamic field statistics
(PID.TID 0000.0001) // =======================================================
(PID.TID 0000.0001) %MON time_tsnumber                =                  8760
(PID.TID 0000.0001) %MON time_secondsf                =   3.1536000000000E+07
(PID.TID 0000.0001) %MON dynstat_eta_max              =   1.0485472618025E+00
(PID.TID 0000.0001) %MON dynstat_eta_min              =  -4.6385796880710E+00
(PID.TID 0000.0001) %MON dynstat_eta_mean             =   6.9074568594852E-02
(PID.TID 0000.0001) %MON dynstat_eta_sd               =   6.8794129594227E-01
(PID.TID 0000.0001) %MON dynstat_eta_del2             =   1.9663176068791E-04
(PID.TID 0000.0001) %MON dynstat_uvel_max             =   1.0552433142649E+00
(PID.TID 0000.0001) %MON dynstat_uvel_min             =  -8.1378679651824E-01
(PID.TID 0000.0001) %MON dynstat_uvel_mean            =   1.1483191917653E-03
(PID.TID 0000.0001) %MON dynstat_uvel_sd              =   2.0604217361870E-02
(PID.TID 0000.0001) %MON dynstat_uvel_del2            =   9.1851363576045E-06
(PID.TID 0000.0001) %MON dynstat_vvel_max             =   1.0566587095426E+00
(PID.TID 0000.0001) %MON dynstat_vvel_min             =  -9.6824925606161E-01
(PID.TID 0000.0001) %MON dynstat_vvel_mean            =   1.2314324534624E-03
(PID.TID 0000.0001) %MON dynstat_vvel_sd              =   2.2220038403588E-02
(PID.TID 0000.0001) %MON dynstat_vvel_del2            =   9.7592752756331E-06
(PID.TID 0000.0001) %MON dynstat_wvel_max             =   5.0051154958957E-04
(PID.TID 0000.0001) %MON dynstat_wvel_min             =  -9.6433217383111E-04
(PID.TID 0000.0001) %MON dynstat_wvel_mean            =  -1.3309332517958E-09
(PID.TID 0000.0001) %MON dynstat_wvel_sd              =   2.1868772749768E-05
(PID.TID 0000.0001) %MON dynstat_wvel_del2            =   1.6364625663276E-08
(PID.TID 0000.0001) %MON dynstat_theta_max            =   3.1648223937789E+01
(PID.TID 0000.0001) %MON dynstat_theta_min            =  -1.9850527133754E+00
(PID.TID 0000.0001) %MON dynstat_theta_mean           =   3.5809891827046E+00
(PID.TID 0000.0001) %MON dynstat_theta_sd             =   4.4209471363263E+00
(PID.TID 0000.0001) %MON dynstat_theta_del2           =   9.1123891853024E-05
(PID.TID 0000.0001) %MON dynstat_salt_max             =   4.0642654585320E+01
(PID.TID 0000.0001) %MON dynstat_salt_min             =   2.3276685730455E+01
(PID.TID 0000.0001) %MON dynstat_salt_mean            =   3.4727009669950E+01
(PID.TID 0000.0001) %MON dynstat_salt_sd              =   3.7817885302688E-01
(PID.TID 0000.0001) %MON dynstat_salt_del2            =   2.0316591020504E-05
(PID.TID 0000.0001) %MON dynstat_sst_max              =   3.1648209796599E+01
(PID.TID 0000.0001) %MON dynstat_sst_min              =  -1.9613961690709E+00
(PID.TID 0000.0001) %MON dynstat_sst_mean             =   1.8093208969128E+01
(PID.TID 0000.0001) %MON dynstat_sst_sd               =   1.0004260826651E+01
(PID.TID 0000.0001) %MON dynstat_sst_del2             =   6.7421677170862E-04
(PID.TID 0000.0001) %MON dynstat_sss_max              =   4.0170586246875E+01
(PID.TID 0000.0001) %MON dynstat_sss_min              =   2.3276685730455E+01
(PID.TID 0000.0001) %MON dynstat_sss_mean             =   3.4737989569987E+01
(PID.TID 0000.0001) %MON dynstat_sss_sd               =   1.2253859832250E+00
(PID.TID 0000.0001) %MON dynstat_sss_del2             =   2.9903368878964E-04
(PID.TID 0000.0001) %MON forcing_qnet_max             =   8.8702528101379E+02
(PID.TID 0000.0001) %MON forcing_qnet_min             =  -6.3074220810945E+02
(PID.TID 0000.0001) %MON forcing_qnet_mean            =   7.1592474569777E+00
(PID.TID 0000.0001) %MON forcing_qnet_sd              =   2.1949635162569E+02
(PID.TID 0000.0001) %MON forcing_qnet_del2            =   1.1601185692509E-01
(PID.TID 0000.0001) %MON forcing_qsw_max              =   7.8742084044926E+01
(PID.TID 0000.0001) %MON forcing_qsw_min              =  -7.3380015597812E+02
(PID.TID 0000.0001) %MON forcing_qsw_mean             =  -1.6365172466450E+02
(PID.TID 0000.0001) %MON forcing_qsw_sd               =   1.8407733750223E+02
(PID.TID 0000.0001) %MON forcing_qsw_del2             =   6.8225680587118E-02
(PID.TID 0000.0001) %MON forcing_empmr_max            =   1.4344806589834E-03
(PID.TID 0000.0001) %MON forcing_empmr_min            =  -3.8356451375579E-03
(PID.TID 0000.0001) %MON forcing_empmr_mean           =  -6.0476761528338E-07
(PID.TID 0000.0001) %MON forcing_empmr_sd             =   1.0718197889198E-04
(PID.TID 0000.0001) %MON forcing_empmr_del2           =   3.3449363845704E-07
(PID.TID 0000.0001) %MON forcing_fu_max               =   1.0807091097037E+00
(PID.TID 0000.0001) %MON forcing_fu_min               =  -1.4715338149084E+00
(PID.TID 0000.0001) %MON forcing_fu_mean              =   1.1680507274386E-02
(PID.TID 0000.0001) %MON forcing_fu_sd                =   1.2497512490547E-01
(PID.TID 0000.0001) %MON forcing_fu_del2              =   8.3576798221792E-05
(PID.TID 0000.0001) %MON forcing_fv_max               =   1.6988878482679E+00
(PID.TID 0000.0001) %MON forcing_fv_min               =  -1.4101916474034E+00
(PID.TID 0000.0001) %MON forcing_fv_mean              =  -3.0673840060931E-03
(PID.TID 0000.0001) %MON forcing_fv_sd                =   1.1862989082423E-01
(PID.TID 0000.0001) %MON forcing_fv_del2              =   9.2525910552743E-05
(PID.TID 0000.0001) %MON trAdv_CFL_u_max              =   7.0485511110152E-02
(PID.TID 0000.0001) %MON trAdv_CFL_v_max              =   7.0394766892857E-02
(PID.TID 0000.0001) %MON trAdv_CFL_w_max              =   2.3649402894907E-01
(PID.TID 0000.0001) %MON advcfl_uvel_max              =   7.6681838250420E-02
(PID.TID 0000.0001) %MON advcfl_vvel_max              =   6.2715119529865E-02
(PID.TID 0000.0001) %MON advcfl_wvel_max              =   2.4004328873015E-01
(PID.TID 0000.0001) %MON advcfl_W_hf_max              =   2.4076961946224E-01
(PID.TID 0000.0001) %MON pe_b_mean                    =   2.2588820299984E-03
(PID.TID 0000.0001) %MON ke_max                       =   5.6266002541640E-01
(PID.TID 0000.0001) %MON ke_mean                      =   4.4415160539522E-04
(PID.TID 0000.0001) %MON ke_vol                       =   1.3350226058348E+18
(PID.TID 0000.0001) %MON vort_r_min                   =  -3.0940958272558E-05
(PID.TID 0000.0001) %MON vort_r_max                   =   1.7007459490235E-05
(PID.TID 0000.0001) %MON vort_a_mean                  =  -1.9727864647440E-05
(PID.TID 0000.0001) %MON vort_a_sd                    =   7.4543097227219E-05
(PID.TID 0000.0001) %MON vort_p_mean                  =  -2.1760110895706E-05
(PID.TID 0000.0001) %MON vort_p_sd                    =   9.7245480127727E-05
(PID.TID 0000.0001) %MON surfExpan_theta_mean         =  -3.0859106175536E-08
(PID.TID 0000.0001) %MON surfExpan_salt_mean          =   8.1525080468325E-09
(PID.TID 0000.0001) // =======================================================
(PID.TID 0000.0001) // End MONITOR dynamic field statistics
(PID.TID 0000.0001) // =======================================================
(PID.TID 0000.0001)  ploadbar=  1.00977316436967E+05
(PID.TID 0000.0001) %SBO sbo_mass                     =   1.3737591066465E+21
(PID.TID 0000.0001) %SBO sbo_mass_fw                  =   4.6291276006951E+16
(PID.TID 0000.0001) %SBO sbo_zoamc                    =   1.2299977350732E+25
(PID.TID 0000.0001) %SBO sbo_zoamp                    =   2.9276636751210E+30
(PID.TID 0000.0001) // =======================================================
(PID.TID 0000.0001) // Begin MONITOR SEAICE statistics
(PID.TID 0000.0001) // =======================================================
(PID.TID 0000.0001) %MON seaice_tsnumber              =                  8760
(PID.TID 0000.0001) %MON seaice_time_sec              =   3.1536000000000E+07
(PID.TID 0000.0001) %MON seaice_uice_max              =   4.0000000000000E-01
(PID.TID 0000.0001) %MON seaice_uice_min              =  -4.0000000000000E-01
(PID.TID 0000.0001) %MON seaice_uice_mean             =  -5.5332974130690E-03
(PID.TID 0000.0001) %MON seaice_uice_sd               =   1.8285970924644E-01
(PID.TID 0000.0001) %MON seaice_uice_del2             =   1.5615786430051E-04
(PID.TID 0000.0001) %MON seaice_vice_max              =   4.0000000000000E-01
(PID.TID 0000.0001) %MON seaice_vice_min              =  -4.0000000000000E-01
(PID.TID 0000.0001) %MON seaice_vice_mean             =  -8.7693820457672E-03
(PID.TID 0000.0001) %MON seaice_vice_sd               =   1.7876845026123E-01
(PID.TID 0000.0001) %MON seaice_vice_del2             =   1.6410427233435E-04
(PID.TID 0000.0001) %MON seaice_area_max              =   9.7000000000000E-01
(PID.TID 0000.0001) %MON seaice_area_min              =   0.0000000000000E+00
(PID.TID 0000.0001) %MON seaice_area_mean             =   5.3003638086177E-02
(PID.TID 0000.0001) %MON seaice_area_sd               =   2.0575700835560E-01
(PID.TID 0000.0001) %MON seaice_area_del2             =   2.2275874389854E-04
(PID.TID 0000.0001) %MON seaice_heff_max              =   4.8660535959224E+00
(PID.TID 0000.0001) %MON seaice_heff_min              =   0.0000000000000E+00
(PID.TID 0000.0001) %MON seaice_heff_mean             =   6.1088813821548E-02
(PID.TID 0000.0001) %MON seaice_heff_sd               =   2.9467859344170E-01
(PID.TID 0000.0001) %MON seaice_heff_del2             =   2.0125705410125E-04
(PID.TID 0000.0001) %MON seaice_hsnow_max             =   9.9850478575626E-01
(PID.TID 0000.0001) %MON seaice_hsnow_min             =  -6.5821289235208E-05
(PID.TID 0000.0001) %MON seaice_hsnow_mean            =   7.9747948382600E-03
(PID.TID 0000.0001) %MON seaice_hsnow_sd              =   4.0577999258000E-02
(PID.TID 0000.0001) %MON seaice_hsnow_del2            =   4.8979173882350E-05
(PID.TID 0000.0001) // =======================================================
(PID.TID 0000.0001) // End MONITOR SEAICE statistics
(PID.TID 0000.0001) // =======================================================
(PID.TID 0000.0001) // =======================================================
(PID.TID 0000.0001) // Begin MONITOR EXF statistics
(PID.TID 0000.0001) // =======================================================
(PID.TID 0000.0001) %MON exf_tsnumber                 =                  8760
(PID.TID 0000.0001) %MON exf_time_sec                 =   3.1536000000000E+07
(PID.TID 0000.0001) %MON exf_ustress_max              =   1.0156559348106E+00
(PID.TID 0000.0001) %MON exf_ustress_min              =  -2.2625053875783E+00
(PID.TID 0000.0001) %MON exf_ustress_mean             =   1.1084586131823E-02
(PID.TID 0000.0001) %MON exf_ustress_sd               =   1.2454182166453E-01
(PID.TID 0000.0001) %MON exf_ustress_del2             =   9.3896256013643E-05
(PID.TID 0000.0001) %MON exf_vstress_max              =   1.7142878514972E+00
(PID.TID 0000.0001) %MON exf_vstress_min              =  -1.5219366022962E+00
(PID.TID 0000.0001) %MON exf_vstress_mean             =  -2.2483364530680E-03
(PID.TID 0000.0001) %MON exf_vstress_sd               =   1.2072565212027E-01
(PID.TID 0000.0001) %MON exf_vstress_del2             =   1.0038907146811E-04
(PID.TID 0000.0001) %MON exf_hflux_max                =   1.4681094269683E+03
(PID.TID 0000.0001) %MON exf_hflux_min                =  -5.8336016569294E+02
(PID.TID 0000.0001) %MON exf_hflux_mean               =   1.9182038678808E+01
(PID.TID 0000.0001) %MON exf_hflux_sd                 =   2.4056482931811E+02
(PID.TID 0000.0001) %MON exf_hflux_del2               =   4.2010865978772E-01
(PID.TID 0000.0001) %MON exf_sflux_max                =   1.7687114239570E-07
(PID.TID 0000.0001) %MON exf_sflux_min                =  -3.7199267957717E-06
(PID.TID 0000.0001) %MON exf_sflux_mean               =   2.4665959921903E-09
(PID.TID 0000.0001) %MON exf_sflux_sd                 =   9.3037228351603E-08
(PID.TID 0000.0001) %MON exf_sflux_del2               =   2.6116439430552E-10
(PID.TID 0000.0001) %MON exf_wspeed_max               =   2.3689439773560E+01
(PID.TID 0000.0001) %MON exf_wspeed_min               =   2.2191631793976E-01
(PID.TID 0000.0001) %MON exf_wspeed_mean              =   7.2969761374129E+00
(PID.TID 0000.0001) %MON exf_wspeed_sd                =   3.2211398786502E+00
(PID.TID 0000.0001) %MON exf_wspeed_del2              =   1.2322638632299E-02
(PID.TID 0000.0001) %MON exf_atemp_max                =   3.0559659519196E+02
(PID.TID 0000.0001) %MON exf_atemp_min                =   2.2842357101440E+02
(PID.TID 0000.0001) %MON exf_atemp_mean               =   2.8912523457904E+02
(PID.TID 0000.0001) %MON exf_atemp_sd                 =   1.2070215130679E+01
(PID.TID 0000.0001) %MON exf_atemp_del2               =   2.5483446791256E-02
(PID.TID 0000.0001) %MON exf_aqh_max                  =   2.2679240442812E-02
(PID.TID 0000.0001) %MON exf_aqh_min                  =  -5.4024791097618E-05
(PID.TID 0000.0001) %MON exf_aqh_mean                 =   1.0717102069315E-02
(PID.TID 0000.0001) %MON exf_aqh_sd                   =   5.5889041524629E-03
(PID.TID 0000.0001) %MON exf_aqh_del2                 =   1.4504397147781E-05
(PID.TID 0000.0001) %MON exf_lwflux_max               =   2.1272629865316E+02
(PID.TID 0000.0001) %MON exf_lwflux_min               =  -2.2739882439945E+01
(PID.TID 0000.0001) %MON exf_lwflux_mean              =   4.8048555647722E+01
(PID.TID 0000.0001) %MON exf_lwflux_sd                =   2.7380919096356E+01
(PID.TID 0000.0001) %MON exf_lwflux_del2              =   9.4633518067694E-02
(PID.TID 0000.0001) %MON exf_evap_max                 =   1.8846572020162E-07
(PID.TID 0000.0001) %MON exf_evap_min                 =  -2.6871316597364E-08
(PID.TID 0000.0001) %MON exf_evap_mean                =   4.5256367709108E-08
(PID.TID 0000.0001) %MON exf_evap_sd                  =   2.7955280208058E-08
(PID.TID 0000.0001) %MON exf_evap_del2                =   7.2688425171419E-11
(PID.TID 0000.0001) %MON exf_precip_max               =   3.7563148680420E-06
(PID.TID 0000.0001) %MON exf_precip_min               =  -2.3496198764406E-08
(PID.TID 0000.0001) %MON exf_precip_mean              =   3.9731962243530E-08
(PID.TID 0000.0001) %MON exf_precip_sd                =   8.6527870392759E-08
(PID.TID 0000.0001) %MON exf_precip_del2              =   2.6085918906088E-10
(PID.TID 0000.0001) %MON exf_swflux_max               =   1.0514332504272E+02
(PID.TID 0000.0001) %MON exf_swflux_min               =  -7.0088182167762E+02
(PID.TID 0000.0001) %MON exf_swflux_mean              =  -1.6984484222692E+02
(PID.TID 0000.0001) %MON exf_swflux_sd                =   1.7832369862010E+02
(PID.TID 0000.0001) %MON exf_swflux_del2              =   3.3519369787540E-01
(PID.TID 0000.0001) %MON exf_swdown_max               =   7.5611276245117E+02
(PID.TID 0000.0001) %MON exf_swdown_min               =  -1.5020475006104E+02
(PID.TID 0000.0001) %MON exf_swdown_mean              =   1.8390235358822E+02
(PID.TID 0000.0001) %MON exf_swdown_sd                =   1.9296332695655E+02
(PID.TID 0000.0001) %MON exf_swdown_del2              =   3.6372805945851E-01
(PID.TID 0000.0001) %MON exf_lwdown_max               =   4.6807113647461E+02
(PID.TID 0000.0001) %MON exf_lwdown_min               =   8.7367366790771E+01
(PID.TID 0000.0001) %MON exf_lwdown_mean              =   3.6125567718052E+02
(PID.TID 0000.0001) %MON exf_lwdown_sd                =   6.3987977100593E+01
(PID.TID 0000.0001) %MON exf_lwdown_del2              =   4.8454194363069E-01
(PID.TID 0000.0001) %MON exf_apressure_max            =   1.0322605468750E+05
(PID.TID 0000.0001) %MON exf_apressure_min            =   9.6221128906250E+04
(PID.TID 0000.0001) %MON exf_apressure_mean           =   1.0097538114487E+05
(PID.TID 0000.0001) %MON exf_apressure_sd             =   1.0500788948867E+03
(PID.TID 0000.0001) %MON exf_apressure_del2           =   1.4473912521734E+02
(PID.TID 0000.0001) %MON exf_runoff_max               =   1.9834598509577E-06
(PID.TID 0000.0001) %MON exf_runoff_min               =   0.0000000000000E+00
(PID.TID 0000.0001) %MON exf_runoff_mean              =   3.0578094733873E-09
(PID.TID 0000.0001) %MON exf_runoff_sd                =   2.3469962782488E-08
(PID.TID 0000.0001) %MON exf_runoff_del2              =   1.7951721949455E-11
(PID.TID 0000.0001) // =======================================================
(PID.TID 0000.0001) // End MONITOR EXF statistics
(PID.TID 0000.0001) // =======================================================
 cg2d: Sum(rhs),rhsMax =  -1.02218727860621E+02  1.33513676916682E+00
(PID.TID 0000.0001)  ploadbar=  1.00975381144867E+05
 cg2d: Sum(rhs),rhsMax =  -1.01232439550581E+02  1.34811188260028E+00
(PID.TID 0000.0001)  ploadbar=  1.00973445852767E+05
 cg2d: Sum(rhs),rhsMax =  -1.00485838102859E+02  1.35805945846623E+00
(PID.TID 0000.0001)  ploadbar=  1.00971510560667E+05
 cg2d: Sum(rhs),rhsMax =  -1.00001597908838E+02  1.36452562609366E+00
(PID.TID 0000.0001)  ploadbar=  1.00969575268567E+05
 cg2d: Sum(rhs),rhsMax =  -9.97856922724363E+01  1.36738088545100E+00
(PID.TID 0000.0001)  ploadbar=  1.00967518689577E+05
 cg2d: Sum(rhs),rhsMax =  -9.97998751006264E+01  1.36709506817034E+00
(PID.TID 0000.0001)  ploadbar=  1.00965462110587E+05
 cg2d: Sum(rhs),rhsMax =  -9.99123644685470E+01  1.36547149314365E+00
(PID.TID 0000.0001)  ploadbar=  1.00963405531596E+05
 cg2d: Sum(rhs),rhsMax =  -1.00138246801535E+02  1.36231757178664E+00
(PID.TID 0000.0001)  ploadbar=  1.00961348952606E+05
 cg2d: Sum(rhs),rhsMax =  -1.00465157472234E+02  1.35782430671264E+00
(PID.TID 0000.0001)  ploadbar=  1.00959292373616E+05
 cg2d: Sum(rhs),rhsMax =  -1.00881334465918E+02  1.35216639136223E+00
(PID.TID 0000.0001)  ploadbar=  1.00957235794626E+05
 cg2d: Sum(rhs),rhsMax =  -1.01231727664886E+02  1.34742588065290E+00
(PID.TID 0000.0001)  ploadbar=  1.00955521529846E+05
 cg2d: Sum(rhs),rhsMax =  -1.01603219166459E+02  1.34242354888031E+00
(PID.TID 0000.0001)  ploadbar=  1.00953807265067E+05
(PID.TID 0000.0001) %CHECKPOINT      8772 0000008772
 cg2d: Sum(rhs),rhsMax =  -1.02033439002497E+02  1.33666379773605E+00
(PID.TID 0000.0001)  ploadbar=  1.00952093000287E+05
 cg2d: Sum(rhs),rhsMax =  -1.02475290023464E+02  1.33077458521158E+00
(PID.TID 0000.0001)  ploadbar=  1.00950378735508E+05
 cg2d: Sum(rhs),rhsMax =  -1.02942997353779E+02  1.32457531699606E+00
(PID.TID 0000.0001)  ploadbar=  1.00948664470728E+05
 cg2d: Sum(rhs),rhsMax =  -1.03431232576500E+02  1.31814210512829E+00
(PID.TID 0000.0001)  ploadbar=  1.00946950205949E+05
 cg2d: Sum(rhs),rhsMax =  -1.03979951787580E+02  1.31106223292790E+00
(PID.TID 0000.0001)  ploadbar=  1.00946667326083E+05
 cg2d: Sum(rhs),rhsMax =  -1.04486972398909E+02  1.30461811636090E+00
(PID.TID 0000.0001)  ploadbar=  1.00946384446217E+05
 cg2d: Sum(rhs),rhsMax =  -1.04938922773413E+02  1.29894917297610E+00
(PID.TID 0000.0001)  ploadbar=  1.00946101566351E+05
 cg2d: Sum(rhs),rhsMax =  -1.05303939899166E+02  1.29442386486057E+00
(PID.TID 0000.0001)  ploadbar=  1.00945818686485E+05
 cg2d: Sum(rhs),rhsMax =  -1.05582288850939E+02  1.29101738001121E+00
(PID.TID 0000.0001)  ploadbar=  1.00945535806619E+05
 cg2d: Sum(rhs),rhsMax =  -1.05786747677610E+02  1.28855702636689E+00
(PID.TID 0000.0001)  ploadbar=  1.00945252926753E+05
 cg2d: Sum(rhs),rhsMax =  -1.05968564146354E+02  1.28635940200479E+00
(PID.TID 0000.0001)  ploadbar=  1.00945328229937E+05
 cg2d: Sum(rhs),rhsMax =  -1.06241098531247E+02  1.28304434491830E+00
(PID.TID 0000.0001)  ploadbar=  1.00945403533121E+05
 cg2d: Sum(rhs),rhsMax =  -1.06601036063269E+02  1.27866896368501E+00
(PID.TID 0000.0001)  ploadbar=  1.00945478836305E+05
 cg2d: Sum(rhs),rhsMax =  -1.07064443296363E+02  1.27306408123001E+00
(PID.TID 0000.0001)  ploadbar=  1.00945554139489E+05
 cg2d: Sum(rhs),rhsMax =  -1.07625901864355E+02  1.26632665201497E+00
(PID.TID 0000.0001)  ploadbar=  1.00945629442673E+05
 cg2d: Sum(rhs),rhsMax =  -1.08278690020903E+02  1.25857005503235E+00
(PID.TID 0000.0001)  ploadbar=  1.00945704745857E+05
 cg2d: Sum(rhs),rhsMax =  -1.08952519999030E+02  1.25067807025455E+00
(PID.TID 0000.0001)  ploadbar=  1.00945989908291E+05
 cg2d: Sum(rhs),rhsMax =  -1.09634691677630E+02  1.24279435816101E+00
(PID.TID 0000.0001)  ploadbar=  1.00946275070725E+05
 cg2d: Sum(rhs),rhsMax =  -1.10312357804130E+02  1.23506404513562E+00
(PID.TID 0000.0001)  ploadbar=  1.00946560233159E+05
 cg2d: Sum(rhs),rhsMax =  -1.10987053815546E+02  1.22747087415026E+00
(PID.TID 0000.0001)  ploadbar=  1.00946845395594E+05
 cg2d: Sum(rhs),rhsMax =  -1.11652603876303E+02  1.22008221566138E+00
(PID.TID 0000.0001)  ploadbar=  1.00947130558028E+05
 cg2d: Sum(rhs),rhsMax =  -1.11345691337609E+02  1.22338006542309E+00
(PID.TID 0000.0001)  ploadbar=  1.00947415720462E+05
 cg2d: Sum(rhs),rhsMax =  -1.10685290116567E+02  1.23059241599416E+00
(PID.TID 0000.0001)  ploadbar=  1.00947929982792E+05
 cg2d: Sum(rhs),rhsMax =  -1.09949122020557E+02  1.23871288806745E+00
(PID.TID 0000.0001)  ploadbar=  1.00948444245123E+05
 cg2d: Sum(rhs),rhsMax =  -1.09247911181145E+02  1.24650439452798E+00
(PID.TID 0000.0001)  ploadbar=  1.00948958507453E+05
 cg2d: Sum(rhs),rhsMax =  -1.08558791405414E+02  1.25421605069085E+00
(PID.TID 0000.0001)  ploadbar=  1.00949472769783E+05
 cg2d: Sum(rhs),rhsMax =  -1.07868766164513E+02  1.26199588874015E+00
(PID.TID 0000.0001)  ploadbar=  1.00949987032114E+05
 cg2d: Sum(rhs),rhsMax =  -1.07170231568097E+02  1.26993381227647E+00
(PID.TID 0000.0001)  ploadbar=  1.00950501294444E+05
 cg2d: Sum(rhs),rhsMax =  -1.06495182087571E+02  1.27774003679817E+00
(PID.TID 0000.0001)  ploadbar=  1.00949650248466E+05
 cg2d: Sum(rhs),rhsMax =  -1.05852630654542E+02  1.28528720291526E+00
(PID.TID 0000.0001)  ploadbar=  1.00948799202488E+05
 cg2d: Sum(rhs),rhsMax =  -1.05249364758781E+02  1.29246836746997E+00
(PID.TID 0000.0001)  ploadbar=  1.00947948156510E+05
 cg2d: Sum(rhs),rhsMax =  -1.04684703461063E+02  1.29927602832640E+00
(PID.TID 0000.0001)  ploadbar=  1.00947097110532E+05
 cg2d: Sum(rhs),rhsMax =  -1.04111886674601E+02  1.30628215264496E+00
(PID.TID 0000.0001)  ploadbar=  1.00946246064554E+05
 cg2d: Sum(rhs),rhsMax =  -1.03589709124756E+02  1.31274339467307E+00
(PID.TID 0000.0001)  ploadbar=  1.00945395018576E+05
 cg2d: Sum(rhs),rhsMax =  -1.03281952954513E+02  1.31651967947342E+00
(PID.TID 0000.0001)  ploadbar=  1.00946335233808E+05
 cg2d: Sum(rhs),rhsMax =  -1.02955457249839E+02  1.32054071728534E+00
(PID.TID 0000.0001)  ploadbar=  1.00947275449041E+05
 cg2d: Sum(rhs),rhsMax =  -1.02591589652097E+02  1.32504753345152E+00
(PID.TID 0000.0001)  ploadbar=  1.00948215664273E+05
 cg2d: Sum(rhs),rhsMax =  -1.02174691798068E+02  1.33025250132011E+00
(PID.TID 0000.0001)  ploadbar=  1.00949155879506E+05
 cg2d: Sum(rhs),rhsMax =  -1.01722576618850E+02  1.33593402369138E+00
(PID.TID 0000.0001)  ploadbar=  1.00950096094738E+05
 cg2d: Sum(rhs),rhsMax =  -1.01237951717242E+02  1.34206783118464E+00
(PID.TID 0000.0001)  ploadbar=  1.00951036309971E+05
 cg2d: Sum(rhs),rhsMax =  -1.00772462644906E+02  1.34802608224169E+00
(PID.TID 0000.0001)  ploadbar=  1.00951380250404E+05
 cg2d: Sum(rhs),rhsMax =  -1.00306300482588E+02  1.35406053115928E+00
(PID.TID 0000.0001)  ploadbar=  1.00951724190838E+05
 cg2d: Sum(rhs),rhsMax =  -9.98600313492475E+01  1.35989228108072E+00
(PID.TID 0000.0001)  ploadbar=  1.00952068131271E+05
 cg2d: Sum(rhs),rhsMax =  -9.95466066120638E+01  1.36396742071688E+00
(PID.TID 0000.0001)  ploadbar=  1.00952412071704E+05
 cg2d: Sum(rhs),rhsMax =  -9.95691408852375E+01  1.36346928860867E+00
(PID.TID 0000.0001)  ploadbar=  1.00952756012138E+05
 cg2d: Sum(rhs),rhsMax =  -1.00049293865670E+02  1.35674016652286E+00
(PID.TID 0000.0001)  ploadbar=  1.00953099952571E+05
 cg2d: Sum(rhs),rhsMax =  -1.00017459940863E+02  1.35697632449675E+00
(PID.TID 0000.0001)  ploadbar=  1.00953393558854E+05
 cg2d: Sum(rhs),rhsMax =  -1.00265099896432E+02  1.35340733181662E+00
(PID.TID 0000.0001)  ploadbar=  1.00953687165136E+05
 cg2d: Sum(rhs),rhsMax =  -1.00611784805780E+02  1.34849294432071E+00
(PID.TID 0000.0001)  ploadbar=  1.00953980771419E+05
 cg2d: Sum(rhs),rhsMax =  -1.00912533847291E+02  1.34418576791303E+00
(PID.TID 0000.0001)  ploadbar=  1.00954274377701E+05
 cg2d: Sum(rhs),rhsMax =  -1.01166947946067E+02  1.34047850800802E+00
(PID.TID 0000.0001)  ploadbar=  1.00954567983984E+05
 cg2d: Sum(rhs),rhsMax =  -1.01379800428944E+02  1.33729847673382E+00
(PID.TID 0000.0001)  ploadbar=  1.00954861590267E+05
 cg2d: Sum(rhs),rhsMax =  -1.01613479075180E+02  1.33391901293168E+00
(PID.TID 0000.0001)  ploadbar=  1.00954747697708E+05
 cg2d: Sum(rhs),rhsMax =  -1.01865047065287E+02  1.33037175960783E+00
(PID.TID 0000.0001)  ploadbar=  1.00954633805150E+05
 cg2d: Sum(rhs),rhsMax =  -1.02137900895291E+02  1.32660516531046E+00
(PID.TID 0000.0001)  ploadbar=  1.00954519912592E+05
 cg2d: Sum(rhs),rhsMax =  -1.02436249695025E+02  1.32256270721953E+00
(PID.TID 0000.0001)  ploadbar=  1.00954406020033E+05
 cg2d: Sum(rhs),rhsMax =  -1.02732063596047E+02  1.31860646463477E+00
(PID.TID 0000.0001)  ploadbar=  1.00954292127475E+05
 cg2d: Sum(rhs),rhsMax =  -1.03096029865464E+02  1.31383169679227E+00
(PID.TID 0000.0001)  ploadbar=  1.00954178234916E+05
 cg2d: Sum(rhs),rhsMax =  -1.03608619517278E+02  1.30721596663231E+00
(PID.TID 0000.0001)  ploadbar=  1.00954973970788E+05
 cg2d: Sum(rhs),rhsMax =  -1.04123510406430E+02  1.30063259692629E+00
(PID.TID 0000.0001)  ploadbar=  1.00955769706659E+05
 cg2d: Sum(rhs),rhsMax =  -1.04633914709475E+02  1.29416276242420E+00
(PID.TID 0000.0001)  ploadbar=  1.00956565442530E+05
 cg2d: Sum(rhs),rhsMax =  -1.05129276434492E+02  1.28792946668020E+00
(PID.TID 0000.0001)  ploadbar=  1.00957361178401E+05
 cg2d: Sum(rhs),rhsMax =  -1.05631884957096E+02  1.28165089117479E+00
(PID.TID 0000.0001)  ploadbar=  1.00958156914272E+05
 cg2d: Sum(rhs),rhsMax =  -1.06129942450770E+02  1.27546779461844E+00
(PID.TID 0000.0001)  ploadbar=  1.00958952650144E+05
 cg2d: Sum(rhs),rhsMax =  -1.06553397441922E+02  1.27025929815080E+00
(PID.TID 0000.0001)  ploadbar=  1.00960277052101E+05
 cg2d: Sum(rhs),rhsMax =  -1.06969942886353E+02  1.26519631921377E+00
(PID.TID 0000.0001)  ploadbar=  1.00961601454058E+05
 cg2d: Sum(rhs),rhsMax =  -1.07441791690492E+02  1.25954588780430E+00
(PID.TID 0000.0001)  ploadbar=  1.00962925856015E+05
 cg2d: Sum(rhs),rhsMax =  -1.08018503306932E+02  1.25274845415940E+00
(PID.TID 0000.0001)  ploadbar=  1.00964250257971E+05
 cg2d: Sum(rhs),rhsMax =  -1.08502091132003E+02  1.24711160428276E+00
(PID.TID 0000.0001)  ploadbar=  1.00965574659928E+05
 cg2d: Sum(rhs),rhsMax =  -1.08935413356099E+02  1.24210677719920E+00
(PID.TID 0000.0001)  ploadbar=  1.00966899061885E+05
 cg2d: Sum(rhs),rhsMax =  -1.09104309639278E+02  1.24012434787240E+00
(PID.TID 0000.0001)  ploadbar=  1.00967807644078E+05
 cg2d: Sum(rhs),rhsMax =  -1.08983540404759E+02  1.24141189442274E+00
(PID.TID 0000.0001)  ploadbar=  1.00968716226271E+05
 cg2d: Sum(rhs),rhsMax =  -1.09059067863712E+02  1.24042946145682E+00
(PID.TID 0000.0001)  ploadbar=  1.00969624808464E+05
 cg2d: Sum(rhs),rhsMax =  -1.09420579546934E+02  1.23617019234085E+00
(PID.TID 0000.0001)  ploadbar=  1.00970533390657E+05
 cg2d: Sum(rhs),rhsMax =  -1.09817863237512E+02  1.23149721742927E+00
(PID.TID 0000.0001)  ploadbar=  1.00971441972850E+05
 cg2d: Sum(rhs),rhsMax =  -1.10235350111161E+02  1.22659386292652E+00
(PID.TID 0000.0001)  ploadbar=  1.00972350555043E+05
 cg2d: Sum(rhs),rhsMax =  -1.10559355022744E+02  1.22279823116935E+00
(PID.TID 0000.0001)  ploadbar=  1.00972270733324E+05
 cg2d: Sum(rhs),rhsMax =  -1.10898079669041E+02  1.21888997223158E+00
(PID.TID 0000.0001)  ploadbar=  1.00972190911604E+05
 cg2d: Sum(rhs),rhsMax =  -1.11246926653135E+02  1.21491391747939E+00
(PID.TID 0000.0001)  ploadbar=  1.00972111089885E+05
 cg2d: Sum(rhs),rhsMax =  -1.11600182604798E+02  1.21093380840795E+00
(PID.TID 0000.0001)  ploadbar=  1.00972031268165E+05
 cg2d: Sum(rhs),rhsMax =  -1.11640987941227E+02  1.21037229324407E+00
(PID.TID 0000.0001)  ploadbar=  1.00971951446446E+05
 cg2d: Sum(rhs),rhsMax =  -1.09468993076955E+02  1.23427771022880E+00
(PID.TID 0000.0001)  ploadbar=  1.00971871624726E+05
 cg2d: Sum(rhs),rhsMax =  -1.07577004386563E+02  1.25586916834970E+00
(PID.TID 0000.0001)  ploadbar=  1.00972024127190E+05
 cg2d: Sum(rhs),rhsMax =  -1.05845920234297E+02  1.27628036422901E+00
(PID.TID 0000.0001)  ploadbar=  1.00972176629654E+05
 cg2d: Sum(rhs),rhsMax =  -1.04275320827052E+02  1.29536060060632E+00
(PID.TID 0000.0001)  ploadbar=  1.00972329132117E+05
 cg2d: Sum(rhs),rhsMax =  -1.02832872992410E+02  1.31336880723956E+00
(PID.TID 0000.0001)  ploadbar=  1.00972481634581E+05
 cg2d: Sum(rhs),rhsMax =  -1.01466717243923E+02  1.33086600126089E+00
(PID.TID 0000.0001)  ploadbar=  1.00972634137045E+05
 cg2d: Sum(rhs),rhsMax =  -1.00133392756346E+02  1.34837394117795E+00
(PID.TID 0000.0001)  ploadbar=  1.00972786639508E+05
 cg2d: Sum(rhs),rhsMax =  -9.88376726433439E+01  1.36586089266058E+00
(PID.TID 0000.0001)  ploadbar=  1.00973311241163E+05
 cg2d: Sum(rhs),rhsMax =  -9.75427596554941E+01  1.38381962129121E+00
(PID.TID 0000.0001)  ploadbar=  1.00973835842817E+05
 cg2d: Sum(rhs),rhsMax =  -9.62956076555620E+01  1.40158337617465E+00
(PID.TID 0000.0001)  ploadbar=  1.00974360444471E+05
 cg2d: Sum(rhs),rhsMax =  -9.51183923516915E+01  1.41878827373291E+00
(PID.TID 0000.0001)  ploadbar=  1.00974885046125E+05
 cg2d: Sum(rhs),rhsMax =  -9.40848722483041E+01  1.43425117121849E+00
(PID.TID 0000.0001)  ploadbar=  1.00975409647780E+05
 cg2d: Sum(rhs),rhsMax =  -9.32968316303778E+01  1.44624962923983E+00
(PID.TID 0000.0001)  ploadbar=  1.00975934249434E+05
 cg2d: Sum(rhs),rhsMax =  -9.26911126843250E+01  1.45556380366061E+00
(PID.TID 0000.0001)  ploadbar=  1.00975674405155E+05
 cg2d: Sum(rhs),rhsMax =  -9.22931393704110E+01  1.46167200444941E+00
(PID.TID 0000.0001)  ploadbar=  1.00975414560876E+05
 cg2d: Sum(rhs),rhsMax =  -9.20167690041096E+01  1.46585596211524E+00
(PID.TID 0000.0001)  ploadbar=  1.00975154716598E+05
 cg2d: Sum(rhs),rhsMax =  -9.17814118505355E+01  1.46936667781848E+00
(PID.TID 0000.0001)  ploadbar=  1.00974894872319E+05
 cg2d: Sum(rhs),rhsMax =  -9.15183903378370E+01  1.47329741027836E+00
(PID.TID 0000.0001)  ploadbar=  1.00974635028040E+05
 cg2d: Sum(rhs),rhsMax =  -9.11863916038870E+01  1.47832459972545E+00
(PID.TID 0000.0001)  ploadbar=  1.00974375183761E+05
 cg2d: Sum(rhs),rhsMax =  -9.07861474189600E+01  1.48454829269596E+00
(PID.TID 0000.0001)  ploadbar=  1.00973859155630E+05
 cg2d: Sum(rhs),rhsMax =  -9.01240827837417E+01  1.49519157234082E+00
(PID.TID 0000.0001)  ploadbar=  1.00973343127500E+05
 cg2d: Sum(rhs),rhsMax =  -8.94244757660007E+01  1.50664713049934E+00
(PID.TID 0000.0001)  ploadbar=  1.00972827099369E+05
 cg2d: Sum(rhs),rhsMax =  -8.87678858559175E+01  1.51756510639649E+00
(PID.TID 0000.0001)  ploadbar=  1.00972311071239E+05
 cg2d: Sum(rhs),rhsMax =  -8.82368988040277E+01  1.52648591496284E+00
(PID.TID 0000.0001)  ploadbar=  1.00971795043108E+05
 cg2d: Sum(rhs),rhsMax =  -8.78884796684570E+01  1.53233988782760E+00
(PID.TID 0000.0001)  ploadbar=  1.00971279014977E+05
 cg2d: Sum(rhs),rhsMax =  -8.77475488398577E+01  1.53458668864016E+00
(PID.TID 0000.0001)  ploadbar=  1.00971054753039E+05
 cg2d: Sum(rhs),rhsMax =  -8.52821650756342E+01  1.57870446317078E+00
(PID.TID 0000.0001)  ploadbar=  1.00970830491100E+05
 cg2d: Sum(rhs),rhsMax =  -8.24744027830280E+01  1.63216791100924E+00
(PID.TID 0000.0001)  ploadbar=  1.00970606229161E+05
 cg2d: Sum(rhs),rhsMax =  -7.96093122974127E+01  1.69058173864504E+00
(PID.TID 0000.0001)  ploadbar=  1.00970381967223E+05
 cg2d: Sum(rhs),rhsMax =  -7.67148676842030E+01  1.75399239018940E+00
(PID.TID 0000.0001)  ploadbar=  1.00970157705284E+05
 cg2d: Sum(rhs),rhsMax =  -7.38202989429213E+01  1.82233919908504E+00
(PID.TID 0000.0001)  ploadbar=  1.00969933443346E+05
 cg2d: Sum(rhs),rhsMax =  -7.14159605844335E+01  1.88327716349442E+00
(PID.TID 0000.0001)  ploadbar=  1.00971014915791E+05
 cg2d: Sum(rhs),rhsMax =  -6.94597081972923E+01  1.93590970640822E+00
(PID.TID 0000.0001)  ploadbar=  1.00972096388236E+05
 cg2d: Sum(rhs),rhsMax =  -6.79299475376331E+01  1.97910641044819E+00
(PID.TID 0000.0001)  ploadbar=  1.00973177860681E+05
 cg2d: Sum(rhs),rhsMax =  -6.67043034289828E+01  2.01508516008968E+00
(PID.TID 0000.0001)  ploadbar=  1.00974259333126E+05
 cg2d: Sum(rhs),rhsMax =  -6.56827431304761E+01  2.04605709714109E+00
(PID.TID 0000.0001)  ploadbar=  1.00975340805571E+05
 cg2d: Sum(rhs),rhsMax =  -6.48032302827505E+01  2.07346299200553E+00
(PID.TID 0000.0001)  ploadbar=  1.00976422278016E+05
 cg2d: Sum(rhs),rhsMax =  -6.39447371092335E+01  2.10089067360430E+00
(PID.TID 0000.0001)  ploadbar=  1.00977143487227E+05
 cg2d: Sum(rhs),rhsMax =  -6.31081150811627E+01  2.12827355553641E+00
(PID.TID 0000.0001)  ploadbar=  1.00977864696437E+05
 cg2d: Sum(rhs),rhsMax =  -6.22892534542772E+01  2.15571348093389E+00
(PID.TID 0000.0001)  ploadbar=  1.00978585905648E+05
 cg2d: Sum(rhs),rhsMax =  -6.14946268052927E+01  2.18295610480006E+00
(PID.TID 0000.0001)  ploadbar=  1.00979307114858E+05
 cg2d: Sum(rhs),rhsMax =  -6.07442920367191E+01  2.20923210655323E+00
(PID.TID 0000.0001)  ploadbar=  1.00980028324068E+05
 cg2d: Sum(rhs),rhsMax =  -6.00569905401785E+01  2.23374742157104E+00
(PID.TID 0000.0001)  ploadbar=  1.00980749533279E+05
 cg2d: Sum(rhs),rhsMax =  -5.95369652521204E+01  2.25253812323445E+00
(PID.TID 0000.0001)  ploadbar=  1.00982066340366E+05
 cg2d: Sum(rhs),rhsMax =  -5.91859145915283E+01  2.26521509517193E+00
(PID.TID 0000.0001)  ploadbar=  1.00983383147453E+05
 cg2d: Sum(rhs),rhsMax =  -5.90058893066031E+01  2.27146621207560E+00
(PID.TID 0000.0001)  ploadbar=  1.00984699954541E+05
 cg2d: Sum(rhs),rhsMax =  -5.89561368264414E+01  2.27273915872288E+00
(PID.TID 0000.0001)  ploadbar=  1.00986016761628E+05
 cg2d: Sum(rhs),rhsMax =  -5.90035263093247E+01  2.27028339343168E+00
(PID.TID 0000.0001)  ploadbar=  1.00987333568715E+05
 cg2d: Sum(rhs),rhsMax =  -5.91297065233311E+01  2.26482037582434E+00
(PID.TID 0000.0001)  ploadbar=  1.00988650375802E+05
 cg2d: Sum(rhs),rhsMax =  -5.93019140512274E+01  2.25761870655176E+00
(PID.TID 0000.0001)  ploadbar=  1.00989675122013E+05
 cg2d: Sum(rhs),rhsMax =  -5.95153209696998E+01  2.24888176360942E+00
(PID.TID 0000.0001)  ploadbar=  1.00990699868223E+05
 cg2d: Sum(rhs),rhsMax =  -5.97692529620012E+01  2.23866909507000E+00
(PID.TID 0000.0001)  ploadbar=  1.00991724614433E+05
 cg2d: Sum(rhs),rhsMax =  -6.00702202049231E+01  2.22677634745632E+00
(PID.TID 0000.0001)  ploadbar=  1.00992749360643E+05
 cg2d: Sum(rhs),rhsMax =  -6.04235265950433E+01  2.21305887863908E+00
(PID.TID 0000.0001)  ploadbar=  1.00993774106854E+05
 cg2d: Sum(rhs),rhsMax =  -6.08381713070395E+01  2.19724870756523E+00
(PID.TID 0000.0001)  ploadbar=  1.00994798853064E+05
 cg2d: Sum(rhs),rhsMax =  -6.13061289505234E+01  2.17977670301343E+00
(PID.TID 0000.0001)  ploadbar=  1.00995495367331E+05
 cg2d: Sum(rhs),rhsMax =  -6.18175578576845E+01  2.16106192921805E+00
(PID.TID 0000.0001)  ploadbar=  1.00996191881597E+05
 cg2d: Sum(rhs),rhsMax =  -6.23669678692933E+01  2.14136158745228E+00
(PID.TID 0000.0001)  ploadbar=  1.00996888395864E+05
 cg2d: Sum(rhs),rhsMax =  -6.29604749818065E+01  2.12053186509502E+00
(PID.TID 0000.0001)  ploadbar=  1.00997584910131E+05
 cg2d: Sum(rhs),rhsMax =  -6.36030467119918E+01  2.09848566457414E+00
(PID.TID 0000.0001)  ploadbar=  1.00998281424397E+05
 cg2d: Sum(rhs),rhsMax =  -6.43025318184355E+01  2.07504219384630E+00
(PID.TID 0000.0001)  ploadbar=  1.00998977938664E+05
 cg2d: Sum(rhs),rhsMax =  -6.48475429020249E+01  2.05697694346217E+00
(PID.TID 0000.0001)  ploadbar=  1.01000270659489E+05
 cg2d: Sum(rhs),rhsMax =  -6.51536823325810E+01  2.04666410354688E+00
(PID.TID 0000.0001)  ploadbar=  1.01001563380314E+05
 cg2d: Sum(rhs),rhsMax =  -6.55039714906079E+01  2.03504336213829E+00
(PID.TID 0000.0001)  ploadbar=  1.01002856101139E+05
 cg2d: Sum(rhs),rhsMax =  -6.58986836002963E+01  2.02214703973782E+00
(PID.TID 0000.0001)  ploadbar=  1.01004148821964E+05
 cg2d: Sum(rhs),rhsMax =  -6.63386985191160E+01  2.00799530681392E+00
(PID.TID 0000.0001)  ploadbar=  1.01005441542788E+05
 cg2d: Sum(rhs),rhsMax =  -6.68252687400521E+01  1.99260548612053E+00
(PID.TID 0000.0001)  ploadbar=  1.01006734263613E+05
 cg2d: Sum(rhs),rhsMax =  -6.73568751282884E+01  1.97620523373872E+00
(PID.TID 0000.0001)  ploadbar=  1.01008322511664E+05
 cg2d: Sum(rhs),rhsMax =  -6.79311241154923E+01  1.95890566886956E+00
(PID.TID 0000.0001)  ploadbar=  1.01009910759714E+05
 cg2d: Sum(rhs),rhsMax =  -6.85427324029681E+01  1.94089908093852E+00
(PID.TID 0000.0001)  ploadbar=  1.01011499007764E+05
 cg2d: Sum(rhs),rhsMax =  -6.91997876132458E+01  1.92200407036881E+00
(PID.TID 0000.0001)  ploadbar=  1.01013087255814E+05
 cg2d: Sum(rhs),rhsMax =  -6.98991451337955E+01  1.90237012575876E+00
(PID.TID 0000.0001)  ploadbar=  1.01014675503865E+05
 cg2d: Sum(rhs),rhsMax =  -7.06387624712193E+01  1.88210720247873E+00
(PID.TID 0000.0001)  ploadbar=  1.01016263751915E+05
 cg2d: Sum(rhs),rhsMax =  -7.13994871116774E+01  1.86172210245029E+00
(PID.TID 0000.0001)  ploadbar=  1.01016954902400E+05
 cg2d: Sum(rhs),rhsMax =  -7.21781231212360E+01  1.84130475216637E+00
(PID.TID 0000.0001)  ploadbar=  1.01017646052885E+05
 cg2d: Sum(rhs),rhsMax =  -7.29672161536644E+01  1.82105440004370E+00
(PID.TID 0000.0001)  ploadbar=  1.01018337203371E+05
 cg2d: Sum(rhs),rhsMax =  -7.37686152883909E+01  1.80092507007686E+00
(PID.TID 0000.0001)  ploadbar=  1.01019028353856E+05
 cg2d: Sum(rhs),rhsMax =  -7.45840587541945E+01  1.78087520027893E+00
(PID.TID 0000.0001)  ploadbar=  1.01019719504341E+05
 cg2d: Sum(rhs),rhsMax =  -7.54157921002619E+01  1.76084905858888E+00
(PID.TID 0000.0001)  ploadbar=  1.01020410654827E+05
 cg2d: Sum(rhs),rhsMax =  -7.62239677734684E+01  1.74181840779026E+00
(PID.TID 0000.0001)  ploadbar=  1.01021088440340E+05
 cg2d: Sum(rhs),rhsMax =  -7.70467105922751E+01  1.72287775988132E+00
(PID.TID 0000.0001)  ploadbar=  1.01021766225853E+05
 cg2d: Sum(rhs),rhsMax =  -7.78854426392514E+01  1.70400565581098E+00
(PID.TID 0000.0001)  ploadbar=  1.01022444011366E+05
 cg2d: Sum(rhs),rhsMax =  -7.87390274350789E+01  1.68523871874023E+00
(PID.TID 0000.0001)  ploadbar=  1.01023121796879E+05
 cg2d: Sum(rhs),rhsMax =  -7.96028999835939E+01  1.66667497465734E+00
(PID.TID 0000.0001)  ploadbar=  1.01023799582391E+05
 cg2d: Sum(rhs),rhsMax =  -8.04734899249628E+01  1.64837916820732E+00
(PID.TID 0000.0001)  ploadbar=  1.01024477367904E+05
 cg2d: Sum(rhs),rhsMax =  -8.13154662049117E+01  1.63103886879438E+00
(PID.TID 0000.0001)  ploadbar=  1.01024456464383E+05
 cg2d: Sum(rhs),rhsMax =  -8.19457455332703E+01  1.61820411938593E+00
(PID.TID 0000.0001)  ploadbar=  1.01024435560862E+05
 cg2d: Sum(rhs),rhsMax =  -8.18794965270534E+01  1.61919657904707E+00
(PID.TID 0000.0001)  ploadbar=  1.01024414657341E+05
 cg2d: Sum(rhs),rhsMax =  -8.23221505659261E+01  1.61014470348821E+00
(PID.TID 0000.0001)  ploadbar=  1.01024393753820E+05
 cg2d: Sum(rhs),rhsMax =  -8.27780584436160E+01  1.60090285071761E+00
(PID.TID 0000.0001)  ploadbar=  1.01024372850299E+05
 cg2d: Sum(rhs),rhsMax =  -8.32626469452362E+01  1.59118471028625E+00
(PID.TID 0000.0001)  ploadbar=  1.01024351946778E+05
 cg2d: Sum(rhs),rhsMax =  -8.36190003507582E+01  1.58406661743065E+00
(PID.TID 0000.0001)  ploadbar=  1.01023824409779E+05
 cg2d: Sum(rhs),rhsMax =  -8.30661319393981E+01  1.59432347929627E+00
(PID.TID 0000.0001)  ploadbar=  1.01023296872780E+05
 cg2d: Sum(rhs),rhsMax =  -8.25116631726415E+01  1.60479321856321E+00
(PID.TID 0000.0001)  ploadbar=  1.01022769335781E+05
 cg2d: Sum(rhs),rhsMax =  -8.19720997904027E+01  1.61514779995645E+00
(PID.TID 0000.0001)  ploadbar=  1.01022241798783E+05
 cg2d: Sum(rhs),rhsMax =  -8.14672092584825E+01  1.62498207308325E+00
(PID.TID 0000.0001)  ploadbar=  1.01021714261784E+05
 cg2d: Sum(rhs),rhsMax =  -8.10103388433404E+01  1.63400666442569E+00
(PID.TID 0000.0001)  ploadbar=  1.01021186724785E+05
 cg2d: Sum(rhs),rhsMax =  -8.06259314397406E+01  1.64163392202034E+00
(PID.TID 0000.0001)  ploadbar=  1.01021043390503E+05
 cg2d: Sum(rhs),rhsMax =  -8.02428680804931E+01  1.64927761372280E+00
(PID.TID 0000.0001)  ploadbar=  1.01020900056222E+05
 cg2d: Sum(rhs),rhsMax =  -7.98289173357875E+01  1.65760533516242E+00
(PID.TID 0000.0001)  ploadbar=  1.01020756721940E+05
 cg2d: Sum(rhs),rhsMax =  -7.93605235103049E+01  1.66713302853887E+00
(PID.TID 0000.0001)  ploadbar=  1.01020613387659E+05
 cg2d: Sum(rhs),rhsMax =  -7.86052053263025E+01  1.68285969164410E+00
(PID.TID 0000.0001)  ploadbar=  1.01020470053377E+05
 cg2d: Sum(rhs),rhsMax =  -7.73086132840723E+01  1.71074392606393E+00
(PID.TID 0000.0001)  ploadbar=  1.01020326719096E+05
 cg2d: Sum(rhs),rhsMax =  -7.60875689015047E+01  1.73787458671766E+00
(PID.TID 0000.0001)  ploadbar=  1.01019334635241E+05
 cg2d: Sum(rhs),rhsMax =  -7.49547566407714E+01  1.76382978662950E+00
(PID.TID 0000.0001)  ploadbar=  1.01018342551386E+05
 cg2d: Sum(rhs),rhsMax =  -7.39208573383082E+01  1.78820540251807E+00
(PID.TID 0000.0001)  ploadbar=  1.01017350467532E+05
 cg2d: Sum(rhs),rhsMax =  -7.30052378925822E+01  1.81035541455035E+00
(PID.TID 0000.0001)  ploadbar=  1.01016358383677E+05
 cg2d: Sum(rhs),rhsMax =  -7.22319034190054E+01  1.82947090395496E+00
(PID.TID 0000.0001)  ploadbar=  1.01015366299822E+05
 cg2d: Sum(rhs),rhsMax =  -7.07651839135230E+01  1.86711784330586E+00
(PID.TID 0000.0001)  ploadbar=  1.01014374215968E+05
 cg2d: Sum(rhs),rhsMax =  -7.22517218217055E+01  1.82842303099397E+00
(PID.TID 0000.0001)  ploadbar=  1.01012616855527E+05
 cg2d: Sum(rhs),rhsMax =  -7.55373007534607E+01  1.74860478981393E+00
(PID.TID 0000.0001)  ploadbar=  1.01010859495087E+05
 cg2d: Sum(rhs),rhsMax =  -7.90460720042417E+01  1.67068074785430E+00
(PID.TID 0000.0001)  ploadbar=  1.01009102134647E+05
 cg2d: Sum(rhs),rhsMax =  -8.23364112287523E+01  1.60359091495129E+00
(PID.TID 0000.0001)  ploadbar=  1.01007344774207E+05
 cg2d: Sum(rhs),rhsMax =  -8.19690415791397E+01  1.61041524635591E+00
(PID.TID 0000.0001)  ploadbar=  1.01005587413767E+05
 cg2d: Sum(rhs),rhsMax =  -8.12892185225588E+01  1.62348260204897E+00
(PID.TID 0000.0001)  ploadbar=  1.01003830053326E+05
 cg2d: Sum(rhs),rhsMax =  -8.06056539990189E+01  1.63692023641126E+00
(PID.TID 0000.0001)  ploadbar=  1.01002769355306E+05
 cg2d: Sum(rhs),rhsMax =  -7.99070761759592E+01  1.65096412810235E+00
(PID.TID 0000.0001)  ploadbar=  1.01001708657286E+05
 cg2d: Sum(rhs),rhsMax =  -7.91996835199333E+01  1.66549456351909E+00
(PID.TID 0000.0001)  ploadbar=  1.01000647959266E+05
 cg2d: Sum(rhs),rhsMax =  -7.84867931119890E+01  1.68044903463978E+00
(PID.TID 0000.0001)  ploadbar=  1.00999587261246E+05
 cg2d: Sum(rhs),rhsMax =  -7.77715170489654E+01  1.69577361852474E+00
(PID.TID 0000.0001)  ploadbar=  1.00998526563226E+05
 cg2d: Sum(rhs),rhsMax =  -7.70614682636916E+01  1.71130961579239E+00
(PID.TID 0000.0001)  ploadbar=  1.00997465865206E+05
 cg2d: Sum(rhs),rhsMax =  -7.63729905244496E+01  1.72663739830448E+00
(PID.TID 0000.0001)  ploadbar=  1.00996703407051E+05
 cg2d: Sum(rhs),rhsMax =  -7.57096351101006E+01  1.74164903582961E+00
(PID.TID 0000.0001)  ploadbar=  1.00995940948895E+05
 cg2d: Sum(rhs),rhsMax =  -7.50802055926478E+01  1.75611576045071E+00
(PID.TID 0000.0001)  ploadbar=  1.00995178490740E+05
 cg2d: Sum(rhs),rhsMax =  -7.44875432842890E+01  1.76993415298139E+00
(PID.TID 0000.0001)  ploadbar=  1.00994416032584E+05
 cg2d: Sum(rhs),rhsMax =  -7.39350370982108E+01  1.78298349283181E+00
(PID.TID 0000.0001)  ploadbar=  1.00993653574429E+05
 cg2d: Sum(rhs),rhsMax =  -7.34252781981218E+01  1.79515696532244E+00
(PID.TID 0000.0001)  ploadbar=  1.00992891116274E+05
 cg2d: Sum(rhs),rhsMax =  -7.29641828586332E+01  1.80631587230858E+00
(PID.TID 0000.0001)  ploadbar=  1.00993797742695E+05
 cg2d: Sum(rhs),rhsMax =  -7.25433831661865E+01  1.81661844308986E+00
(PID.TID 0000.0001)  ploadbar=  1.00994704369117E+05
 cg2d: Sum(rhs),rhsMax =  -7.21615591769177E+01  1.82606718105574E+00
(PID.TID 0000.0001)  ploadbar=  1.00995610995539E+05
 cg2d: Sum(rhs),rhsMax =  -7.18161328783015E+01  1.83469976949737E+00
(PID.TID 0000.0001)  ploadbar=  1.00996517621960E+05
 cg2d: Sum(rhs),rhsMax =  -7.15054683592932E+01  1.84252811741667E+00
(PID.TID 0000.0001)  ploadbar=  1.00997424248382E+05
 cg2d: Sum(rhs),rhsMax =  -7.12286314681871E+01  1.84953854641693E+00
(PID.TID 0000.0001)  ploadbar=  1.00998330874804E+05
 cg2d: Sum(rhs),rhsMax =  -7.09894870375081E+01  1.85557759983045E+00
(PID.TID 0000.0001)  ploadbar=  1.00998237709259E+05
 cg2d: Sum(rhs),rhsMax =  -7.07875627971271E+01  1.86062973475696E+00
(PID.TID 0000.0001)  ploadbar=  1.00998144543715E+05
 cg2d: Sum(rhs),rhsMax =  -7.06162998277682E+01  1.86484301778378E+00
(PID.TID 0000.0001)  ploadbar=  1.00998051378170E+05
 cg2d: Sum(rhs),rhsMax =  -7.04688484791623E+01  1.86838415713918E+00
(PID.TID 0000.0001)  ploadbar=  1.00997958212626E+05
 cg2d: Sum(rhs),rhsMax =  -7.03382764148635E+01  1.87142834304667E+00
(PID.TID 0000.0001)  ploadbar=  1.00997865047082E+05
 cg2d: Sum(rhs),rhsMax =  -7.02174817723720E+01  1.87416327860005E+00
(PID.TID 0000.0001)  ploadbar=  1.00997771881537E+05
 cg2d: Sum(rhs),rhsMax =  -7.01006118685988E+01  1.87687780697160E+00
(PID.TID 0000.0001)  ploadbar=  1.00996291127142E+05
 cg2d: Sum(rhs),rhsMax =  -6.99749570563559E+01  1.87989609478198E+00
(PID.TID 0000.0001)  ploadbar=  1.00994810372747E+05
 cg2d: Sum(rhs),rhsMax =  -6.98358420938260E+01  1.88333224474067E+00
(PID.TID 0000.0001)  ploadbar=  1.00993329618352E+05
 cg2d: Sum(rhs),rhsMax =  -6.96837289568037E+01  1.88717144120503E+00
(PID.TID 0000.0001)  ploadbar=  1.00991848863956E+05
 cg2d: Sum(rhs),rhsMax =  -6.95226667934699E+01  1.89130982797913E+00
(PID.TID 0000.0001)  ploadbar=  1.00990368109561E+05
 cg2d: Sum(rhs),rhsMax =  -6.92163587418540E+01  1.89947869929312E+00
(PID.TID 0000.0001)  ploadbar=  1.00988887355166E+05
 cg2d: Sum(rhs),rhsMax =  -6.80978166203241E+01  1.93047880849783E+00
(PID.TID 0000.0001)  ploadbar=  1.00989207657328E+05
 cg2d: Sum(rhs),rhsMax =  -6.71108945237721E+01  1.95866295637731E+00
(PID.TID 0000.0001)  ploadbar=  1.00989527959490E+05
 cg2d: Sum(rhs),rhsMax =  -6.62370813434482E+01  1.98429003272365E+00
(PID.TID 0000.0001)  ploadbar=  1.00989848261652E+05
 cg2d: Sum(rhs),rhsMax =  -6.54417543841956E+01  2.00818190304635E+00
(PID.TID 0000.0001)  ploadbar=  1.00990168563814E+05
 cg2d: Sum(rhs),rhsMax =  -6.46944538624411E+01  2.03113595351028E+00
(PID.TID 0000.0001)  ploadbar=  1.00990488865977E+05
 cg2d: Sum(rhs),rhsMax =  -6.39806696689168E+01  2.05353130721622E+00
(PID.TID 0000.0001)  ploadbar=  1.00990809168139E+05
 cg2d: Sum(rhs),rhsMax =  -6.32950962510754E+01  2.07554197362583E+00
(PID.TID 0000.0001)  ploadbar=  1.00992174266152E+05
 cg2d: Sum(rhs),rhsMax =  -6.26374646204384E+01  2.09712219127722E+00
(PID.TID 0000.0001)  ploadbar=  1.00993539364164E+05
 cg2d: Sum(rhs),rhsMax =  -6.32727603740545E+01  2.07588066436436E+00
(PID.TID 0000.0001)  ploadbar=  1.00994904462177E+05
 cg2d: Sum(rhs),rhsMax =  -6.39947506113117E+01  2.05230250080240E+00
(PID.TID 0000.0001)  ploadbar=  1.00996269560190E+05
 cg2d: Sum(rhs),rhsMax =  -6.46774068575624E+01  2.03050766188705E+00
(PID.TID 0000.0001)  ploadbar=  1.00997634658203E+05
 cg2d: Sum(rhs),rhsMax =  -6.53150314388037E+01  2.01055815004225E+00
(PID.TID 0000.0001)  ploadbar=  1.00998999756216E+05
 cg2d: Sum(rhs),rhsMax =  -6.58778877208460E+01  1.99320996098937E+00
(PID.TID 0000.0001)  ploadbar=  1.00999999123428E+05
 cg2d: Sum(rhs),rhsMax =  -6.63607246327947E+01  1.97847862904136E+00
(PID.TID 0000.0001)  ploadbar=  1.01000998490639E+05
 cg2d: Sum(rhs),rhsMax =  -6.67622106832166E+01  1.96628278102731E+00
(PID.TID 0000.0001)  ploadbar=  1.01001997857851E+05
 cg2d: Sum(rhs),rhsMax =  -6.66060656148118E+01  1.97051845588623E+00
(PID.TID 0000.0001)  ploadbar=  1.01002997225063E+05
 cg2d: Sum(rhs),rhsMax =  -6.64090133747732E+01  1.97591629399675E+00
(PID.TID 0000.0001)  ploadbar=  1.01003996592274E+05
 cg2d: Sum(rhs),rhsMax =  -6.62063543215585E+01  1.98144134338364E+00
(PID.TID 0000.0001)  ploadbar=  1.01004995959486E+05
 cg2d: Sum(rhs),rhsMax =  -6.60007429873888E+01  1.98718390932716E+00
(PID.TID 0000.0001)  ploadbar=  1.01006140353744E+05
 cg2d: Sum(rhs),rhsMax =  -6.57953123604660E+01  1.99304164313592E+00
(PID.TID 0000.0001)  ploadbar=  1.01007284748002E+05
 cg2d: Sum(rhs),rhsMax =  -6.55937949226978E+01  1.99888854571497E+00
(PID.TID 0000.0001)  ploadbar=  1.01008429142259E+05
 cg2d: Sum(rhs),rhsMax =  -6.54005582976621E+01  2.00458539367306E+00
(PID.TID 0000.0001)  ploadbar=  1.01009573536517E+05
 cg2d: Sum(rhs),rhsMax =  -6.52203014380985E+01  2.00997791479201E+00
(PID.TID 0000.0001)  ploadbar=  1.01010717930775E+05
 cg2d: Sum(rhs),rhsMax =  -6.50560106008475E+01  2.01495592138360E+00
(PID.TID 0000.0001)  ploadbar=  1.01011862325033E+05
 cg2d: Sum(rhs),rhsMax =  -6.49046478529855E+01  2.01956645216993E+00
(PID.TID 0000.0001)  ploadbar=  1.01011244883130E+05
 cg2d: Sum(rhs),rhsMax =  -6.47663394951056E+01  2.02379129658891E+00
(PID.TID 0000.0001)  ploadbar=  1.01010627441227E+05
 cg2d: Sum(rhs),rhsMax =  -6.46420356623458E+01  2.02759156428808E+00
(PID.TID 0000.0001)  ploadbar=  1.01010009999324E+05
 cg2d: Sum(rhs),rhsMax =  -6.45307146164809E+01  2.03099141267604E+00
(PID.TID 0000.0001)  ploadbar=  1.01009392557421E+05
 cg2d: Sum(rhs),rhsMax =  -6.44318180656672E+01  2.03400071069692E+00
(PID.TID 0000.0001)  ploadbar=  1.01008775115519E+05
 cg2d: Sum(rhs),rhsMax =  -6.43444677333382E+01  2.03664214629061E+00
(PID.TID 0000.0001)  ploadbar=  1.01008157673616E+05
 cg2d: Sum(rhs),rhsMax =  -6.42694916773546E+01  2.03892893872367E+00
(PID.TID 0000.0001)  ploadbar=  1.01006345825218E+05
 cg2d: Sum(rhs),rhsMax =  -6.42109700567820E+01  2.04072224420610E+00
(PID.TID 0000.0001)  ploadbar=  1.01004533976821E+05
 cg2d: Sum(rhs),rhsMax =  -6.41730323489038E+01  2.04189328513636E+00
(PID.TID 0000.0001)  ploadbar=  1.01002722128423E+05
 cg2d: Sum(rhs),rhsMax =  -6.41601078418658E+01  2.04229939701967E+00
(PID.TID 0000.0001)  ploadbar=  1.01000910280026E+05
 cg2d: Sum(rhs),rhsMax =  -6.41810789029183E+01  2.04165846447515E+00
(PID.TID 0000.0001)  ploadbar=  1.00999098431628E+05
 cg2d: Sum(rhs),rhsMax =  -6.42453980443232E+01  2.03966061664676E+00
(PID.TID 0000.0001)  ploadbar=  1.00997286583231E+05
 cg2d: Sum(rhs),rhsMax =  -6.43526429895380E+01  2.03628516597753E+00
(PID.TID 0000.0001)  ploadbar=  1.00996983162330E+05
 cg2d: Sum(rhs),rhsMax =  -6.45049876405491E+01  2.03145070926768E+00
(PID.TID 0000.0001)  ploadbar=  1.00996679741428E+05
 cg2d: Sum(rhs),rhsMax =  -6.47038317544063E+01  2.02512711376327E+00
(PID.TID 0000.0001)  ploadbar=  1.00996376320527E+05
 cg2d: Sum(rhs),rhsMax =  -6.49455599476114E+01  2.01744979188701E+00
(PID.TID 0000.0001)  ploadbar=  1.00996072899626E+05
 cg2d: Sum(rhs),rhsMax =  -6.52301999263282E+01  2.00844886633029E+00
(PID.TID 0000.0001)  ploadbar=  1.00995769478724E+05
 cg2d: Sum(rhs),rhsMax =  -6.55552494000998E+01  1.99823827736156E+00
(PID.TID 0000.0001)  ploadbar=  1.00995466057823E+05
 cg2d: Sum(rhs),rhsMax =  -6.59276977958768E+01  1.98676624826451E+00
(PID.TID 0000.0001)  ploadbar=  1.00995247959631E+05
 cg2d: Sum(rhs),rhsMax =  -6.63427135493969E+01  1.97421598118353E+00
(PID.TID 0000.0001)  ploadbar=  1.00995029861438E+05
 cg2d: Sum(rhs),rhsMax =  -6.67981936641236E+01  1.96069039897022E+00
(PID.TID 0000.0001)  ploadbar=  1.00994811763245E+05
 cg2d: Sum(rhs),rhsMax =  -6.72911286515113E+01  1.94631569765647E+00
(PID.TID 0000.0001)  ploadbar=  1.00994593665053E+05
 cg2d: Sum(rhs),rhsMax =  -6.78187595489938E+01  1.93120742163007E+00
(PID.TID 0000.0001)  ploadbar=  1.00994375566860E+05
 cg2d: Sum(rhs),rhsMax =  -6.83778420213402E+01  1.91548857548752E+00
(PID.TID 0000.0001)  ploadbar=  1.00994157468667E+05
 cg2d: Sum(rhs),rhsMax =  -6.89746951808889E+01  1.89899247453747E+00
(PID.TID 0000.0001)  ploadbar=  1.00993954577115E+05
 cg2d: Sum(rhs),rhsMax =  -6.95913800902812E+01  1.88223882752414E+00
(PID.TID 0000.0001)  ploadbar=  1.00993751685563E+05
 cg2d: Sum(rhs),rhsMax =  -7.02211105276795E+01  1.86542317446743E+00
(PID.TID 0000.0001)  ploadbar=  1.00993548794011E+05
 cg2d: Sum(rhs),rhsMax =  -7.08610968504660E+01  1.84862432407557E+00
(PID.TID 0000.0001)  ploadbar=  1.00993345902459E+05
 cg2d: Sum(rhs),rhsMax =  -7.15070070372805E+01  1.83195748152610E+00
(PID.TID 0000.0001)  ploadbar=  1.00993143010907E+05
 cg2d: Sum(rhs),rhsMax =  -7.21537724702392E+01  1.81554789962959E+00
(PID.TID 0000.0001)  ploadbar=  1.00992940119354E+05
 cg2d: Sum(rhs),rhsMax =  -7.28002698460517E+01  1.79942804414300E+00
(PID.TID 0000.0001)  ploadbar=  1.00992334851651E+05
 cg2d: Sum(rhs),rhsMax =  -7.34387363791712E+01  1.78377726392321E+00
(PID.TID 0000.0001)  ploadbar=  1.00991729583948E+05
 cg2d: Sum(rhs),rhsMax =  -7.40676628953833E+01  1.76861646182484E+00
(PID.TID 0000.0001)  ploadbar=  1.00991124316245E+05
 cg2d: Sum(rhs),rhsMax =  -7.46875609220295E+01  1.75391533574025E+00
(PID.TID 0000.0001)  ploadbar=  1.00990519048542E+05
 cg2d: Sum(rhs),rhsMax =  -7.52955743982407E+01  1.73972275863262E+00
(PID.TID 0000.0001)  ploadbar=  1.00989913780839E+05
 cg2d: Sum(rhs),rhsMax =  -7.58883499983347E+01  1.72608815171026E+00
(PID.TID 0000.0001)  ploadbar=  1.00989308513136E+05
 cg2d: Sum(rhs),rhsMax =  -7.64610720791913E+01  1.71311300292690E+00
(PID.TID 0000.0001)  ploadbar=  1.00989272018610E+05
 cg2d: Sum(rhs),rhsMax =  -7.70116166302547E+01  1.70080470819161E+00
(PID.TID 0000.0001)  ploadbar=  1.00989235524085E+05
 cg2d: Sum(rhs),rhsMax =  -7.75335906857101E+01  1.68927259302229E+00
(PID.TID 0000.0001)  ploadbar=  1.00989199029560E+05
 cg2d: Sum(rhs),rhsMax =  -7.80218961693967E+01  1.67859584089766E+00
(PID.TID 0000.0001)  ploadbar=  1.00989162535035E+05
 cg2d: Sum(rhs),rhsMax =  -7.84743134881226E+01  1.66879176947384E+00
(PID.TID 0000.0001)  ploadbar=  1.00989126040509E+05
 cg2d: Sum(rhs),rhsMax =  -7.88817025351210E+01  1.66002348193424E+00
(PID.TID 0000.0001)  ploadbar=  1.00989089545984E+05
 cg2d: Sum(rhs),rhsMax =  -7.92373011072417E+01  1.65248594208025E+00
(PID.TID 0000.0001)  ploadbar=  1.00988224813453E+05
 cg2d: Sum(rhs),rhsMax =  -7.95408501313209E+01  1.64614589860589E+00
(PID.TID 0000.0001)  ploadbar=  1.00987360080922E+05
 cg2d: Sum(rhs),rhsMax =  -7.97841342316542E+01  1.64114461421807E+00
(PID.TID 0000.0001)  ploadbar=  1.00986495348390E+05
 cg2d: Sum(rhs),rhsMax =  -7.99469568344443E+01  1.63786683341449E+00
(PID.TID 0000.0001)  ploadbar=  1.00985630615859E+05
 cg2d: Sum(rhs),rhsMax =  -8.00513699981659E+01  1.63583647613713E+00
(PID.TID 0000.0001)  ploadbar=  1.00984765883328E+05
 cg2d: Sum(rhs),rhsMax =  -8.01349798498820E+01  1.63427190045092E+00
(PID.TID 0000.0001)  ploadbar=  1.00983901150797E+05
 cg2d: Sum(rhs),rhsMax =  -8.02488617254340E+01  1.63208622198311E+00
(PID.TID 0000.0001)  ploadbar=  1.00983872117493E+05
 cg2d: Sum(rhs),rhsMax =  -8.03864177624819E+01  1.62940753537355E+00
(PID.TID 0000.0001)  ploadbar=  1.00983843084190E+05
 cg2d: Sum(rhs),rhsMax =  -8.05347929845800E+01  1.62649615991510E+00
(PID.TID 0000.0001)  ploadbar=  1.00983814050886E+05
 cg2d: Sum(rhs),rhsMax =  -8.06808361669647E+01  1.62361233853755E+00
(PID.TID 0000.0001)  ploadbar=  1.00983785017583E+05
 cg2d: Sum(rhs),rhsMax =  -8.08138201628483E+01  1.62096809829206E+00
(PID.TID 0000.0001)  ploadbar=  1.00983755984280E+05
 cg2d: Sum(rhs),rhsMax =  -8.09343170158179E+01  1.61854799060379E+00
(PID.TID 0000.0001)  ploadbar=  1.00983726950976E+05
 cg2d: Sum(rhs),rhsMax =  -8.10360664020247E+01  1.61649577699652E+00
(PID.TID 0000.0001)  ploadbar=  1.00984890889295E+05
 cg2d: Sum(rhs),rhsMax =  -8.11405960593331E+01  1.61437791651990E+00
(PID.TID 0000.0001)  ploadbar=  1.00986054827614E+05
 cg2d: Sum(rhs),rhsMax =  -8.12560777157380E+01  1.61203161854357E+00
(PID.TID 0000.0001)  ploadbar=  1.00987218765934E+05
 cg2d: Sum(rhs),rhsMax =  -8.13903351059094E+01  1.60930599405273E+00
(PID.TID 0000.0001)  ploadbar=  1.00988382704253E+05
 cg2d: Sum(rhs),rhsMax =  -8.15426220600728E+01  1.60621820403481E+00
(PID.TID 0000.0001)  ploadbar=  1.00989546642572E+05
 cg2d: Sum(rhs),rhsMax =  -8.17129796793673E+01  1.60276466085284E+00
(PID.TID 0000.0001)  ploadbar=  1.00990710580891E+05
 cg2d: Sum(rhs),rhsMax =  -8.18860056017775E+01  1.59924030191619E+00
(PID.TID 0000.0001)  ploadbar=  1.00991289663177E+05
 cg2d: Sum(rhs),rhsMax =  -8.20749963824234E+01  1.59537728127260E+00
(PID.TID 0000.0001)  ploadbar=  1.00991868745463E+05
 cg2d: Sum(rhs),rhsMax =  -8.22791882777081E+01  1.59119134258948E+00
(PID.TID 0000.0001)  ploadbar=  1.00992447827748E+05
 cg2d: Sum(rhs),rhsMax =  -8.24971634044730E+01  1.58671240207905E+00
(PID.TID 0000.0001)  ploadbar=  1.00993026910034E+05
 cg2d: Sum(rhs),rhsMax =  -8.27292851586490E+01  1.58193789353221E+00
(PID.TID 0000.0001)  ploadbar=  1.00993605992320E+05
 cg2d: Sum(rhs),rhsMax =  -8.29759016032043E+01  1.57686509247386E+00
(PID.TID 0000.0001)  ploadbar=  1.00994185074606E+05
 cg2d: Sum(rhs),rhsMax =  -8.25587642673402E+01  1.58451559129243E+00
(PID.TID 0000.0001)  ploadbar=  1.00993922201213E+05
 cg2d: Sum(rhs),rhsMax =  -8.19126648573155E+01  1.59674031786506E+00
(PID.TID 0000.0001)  ploadbar=  1.00993659327820E+05
 cg2d: Sum(rhs),rhsMax =  -8.13012541135657E+01  1.60851429701685E+00
(PID.TID 0000.0001)  ploadbar=  1.00993396454427E+05
 cg2d: Sum(rhs),rhsMax =  -8.07543154528108E+01  1.61921043804446E+00
(PID.TID 0000.0001)  ploadbar=  1.00993133581035E+05
 cg2d: Sum(rhs),rhsMax =  -8.02426181448943E+01  1.62937218703562E+00
(PID.TID 0000.0001)  ploadbar=  1.00992870707642E+05
 cg2d: Sum(rhs),rhsMax =  -7.97812550208994E+01  1.63866207473775E+00
(PID.TID 0000.0001)  ploadbar=  1.00992607834249E+05
 cg2d: Sum(rhs),rhsMax =  -7.95246040742271E+01  1.64383616523333E+00
(PID.TID 0000.0001)  ploadbar=  1.00992211597366E+05
 cg2d: Sum(rhs),rhsMax =  -8.02369925147405E+01  1.62913638969439E+00
(PID.TID 0000.0001)  ploadbar=  1.00991815360483E+05
 cg2d: Sum(rhs),rhsMax =  -8.09151703461443E+01  1.61538078109275E+00
(PID.TID 0000.0001)  ploadbar=  1.00991419123601E+05
 cg2d: Sum(rhs),rhsMax =  -8.15438139250380E+01  1.60282154611611E+00
(PID.TID 0000.0001)  ploadbar=  1.00991022886718E+05
 cg2d: Sum(rhs),rhsMax =  -8.21197268897343E+01  1.59146843643264E+00
(PID.TID 0000.0001)  ploadbar=  1.00990626649835E+05
 cg2d: Sum(rhs),rhsMax =  -8.26437087844033E+01  1.58125601576412E+00
(PID.TID 0000.0001)  ploadbar=  1.00990230412953E+05
 cg2d: Sum(rhs),rhsMax =  -8.28194918512115E+01  1.57777828220644E+00
(PID.TID 0000.0001)  ploadbar=  1.00990177984827E+05
 cg2d: Sum(rhs),rhsMax =  -8.24427970203714E+01  1.58486236294516E+00
(PID.TID 0000.0001)  ploadbar=  1.00990125556702E+05
 cg2d: Sum(rhs),rhsMax =  -8.20830398740473E+01  1.59168000570151E+00
(PID.TID 0000.0001)  ploadbar=  1.00990073128576E+05
 cg2d: Sum(rhs),rhsMax =  -8.17341725728408E+01  1.59834285159562E+00
(PID.TID 0000.0001)  ploadbar=  1.00990020700451E+05
 cg2d: Sum(rhs),rhsMax =  -8.13041204135722E+01  1.60666391984440E+00
(PID.TID 0000.0001)  ploadbar=  1.00989968272325E+05
 cg2d: Sum(rhs),rhsMax =  -8.08132519441284E+01  1.61627522010961E+00
(PID.TID 0000.0001)  ploadbar=  1.00989915844200E+05
 cg2d: Sum(rhs),rhsMax =  -8.02248018772326E+01  1.62796043696473E+00
(PID.TID 0000.0001)  ploadbar=  1.00989871770013E+05
 cg2d: Sum(rhs),rhsMax =  -7.95664059755850E+01  1.64122474526826E+00
(PID.TID 0000.0001)  ploadbar=  1.00989827695827E+05
 cg2d: Sum(rhs),rhsMax =  -7.88877573900431E+01  1.65509340568894E+00
(PID.TID 0000.0001)  ploadbar=  1.00989783621641E+05
 cg2d: Sum(rhs),rhsMax =  -7.82127920350108E+01  1.66907915712049E+00
(PID.TID 0000.0001)  ploadbar=  1.00989739547455E+05
 cg2d: Sum(rhs),rhsMax =  -7.75503222011418E+01  1.68299212050346E+00
(PID.TID 0000.0001)  ploadbar=  1.00989695473269E+05
 cg2d: Sum(rhs),rhsMax =  -7.69004470526836E+01  1.69681957237456E+00
(PID.TID 0000.0001)  ploadbar=  1.00989651399083E+05
 cg2d: Sum(rhs),rhsMax =  -7.62282811597329E+01  1.71145122257464E+00
(PID.TID 0000.0001)  ploadbar=  1.00990343950964E+05
 cg2d: Sum(rhs),rhsMax =  -7.55341475053320E+01  1.72690464519841E+00
(PID.TID 0000.0001)  ploadbar=  1.00991036502846E+05
 cg2d: Sum(rhs),rhsMax =  -7.48762583989077E+01  1.74185137960224E+00
(PID.TID 0000.0001)  ploadbar=  1.00991729054727E+05
 cg2d: Sum(rhs),rhsMax =  -7.42994033775388E+01  1.75519637765598E+00
(PID.TID 0000.0001)  ploadbar=  1.00992421606609E+05
 cg2d: Sum(rhs),rhsMax =  -7.37698267973704E+01  1.76766372412290E+00
(PID.TID 0000.0001)  ploadbar=  1.00993114158490E+05
 cg2d: Sum(rhs),rhsMax =  -7.32853788154082E+01  1.77926102298569E+00
(PID.TID 0000.0001)  ploadbar=  1.00993806710371E+05
 cg2d: Sum(rhs),rhsMax =  -7.28190823894398E+01  1.79056775139711E+00
(PID.TID 0000.0001)  ploadbar=  1.00993974132819E+05
 cg2d: Sum(rhs),rhsMax =  -7.23756697299973E+01  1.80144167935421E+00
(PID.TID 0000.0001)  ploadbar=  1.00994141555266E+05
 cg2d: Sum(rhs),rhsMax =  -7.19509909492158E+01  1.81196070961435E+00
(PID.TID 0000.0001)  ploadbar=  1.00994308977713E+05
 cg2d: Sum(rhs),rhsMax =  -7.15545631856913E+01  1.82186304365381E+00
(PID.TID 0000.0001)  ploadbar=  1.00994476400160E+05
 cg2d: Sum(rhs),rhsMax =  -7.11942017537881E+01  1.83092354295082E+00
(PID.TID 0000.0001)  ploadbar=  1.00994643822607E+05
 cg2d: Sum(rhs),rhsMax =  -7.08715694092555E+01  1.83906825033175E+00
(PID.TID 0000.0001)  ploadbar=  1.00994811245054E+05
 cg2d: Sum(rhs),rhsMax =  -7.06406990014556E+01  1.84490445336032E+00
(PID.TID 0000.0001)  ploadbar=  1.00994396571588E+05
 cg2d: Sum(rhs),rhsMax =  -7.04376933236371E+01  1.85005768957581E+00
(PID.TID 0000.0001)  ploadbar=  1.00993981898121E+05
 cg2d: Sum(rhs),rhsMax =  -7.02389042703811E+01  1.85514307357635E+00
(PID.TID 0000.0001)  ploadbar=  1.00993567224655E+05
 cg2d: Sum(rhs),rhsMax =  -7.00404503441466E+01  1.86026498393322E+00
(PID.TID 0000.0001)  ploadbar=  1.00993152551188E+05
 cg2d: Sum(rhs),rhsMax =  -6.98499623536683E+01  1.86521767305280E+00
(PID.TID 0000.0001)  ploadbar=  1.00992737877722E+05
 cg2d: Sum(rhs),rhsMax =  -6.96695584808377E+01  1.86992822744486E+00
(PID.TID 0000.0001)  ploadbar=  1.00992323204255E+05
 cg2d: Sum(rhs),rhsMax =  -6.95352959074299E+01  1.87338697148685E+00
(PID.TID 0000.0001)  ploadbar=  1.00992226021891E+05
 cg2d: Sum(rhs),rhsMax =  -6.93975456575979E+01  1.87690975462476E+00
(PID.TID 0000.0001)  ploadbar=  1.00992128839527E+05
 cg2d: Sum(rhs),rhsMax =  -6.92522522298648E+01  1.88060042567817E+00
(PID.TID 0000.0001)  ploadbar=  1.00992031657162E+05
 cg2d: Sum(rhs),rhsMax =  -6.90987321109714E+01  1.88447710570852E+00
(PID.TID 0000.0001)  ploadbar=  1.00991934474798E+05
 cg2d: Sum(rhs),rhsMax =  -6.89334672616031E+01  1.88863993572814E+00
(PID.TID 0000.0001)  ploadbar=  1.00991837292434E+05
 cg2d: Sum(rhs),rhsMax =  -6.87504162740742E+01  1.89325939470925E+00
(PID.TID 0000.0001)  ploadbar=  1.00991740110070E+05
 cg2d: Sum(rhs),rhsMax =  -6.84259996921986E+01  1.90188273860113E+00
(PID.TID 0000.0001)  ploadbar=  1.00992007063185E+05
 cg2d: Sum(rhs),rhsMax =  -6.80481294125518E+01  1.91213886148673E+00
(PID.TID 0000.0001)  ploadbar=  1.00992274016301E+05
 cg2d: Sum(rhs),rhsMax =  -6.76301178562014E+01  1.92368881873463E+00
(PID.TID 0000.0001)  ploadbar=  1.00992540969416E+05
 cg2d: Sum(rhs),rhsMax =  -6.71665361495939E+01  1.93673284157549E+00
(PID.TID 0000.0001)  ploadbar=  1.00992807922532E+05
 cg2d: Sum(rhs),rhsMax =  -6.66680289369279E+01  1.95101272793797E+00
(PID.TID 0000.0001)  ploadbar=  1.00993074875647E+05
 cg2d: Sum(rhs),rhsMax =  -6.61419914275653E+01  1.96635095057681E+00
(PID.TID 0000.0001)  ploadbar=  1.00993341828763E+05
 cg2d: Sum(rhs),rhsMax =  -6.56272072665196E+01  1.98163916658783E+00
(PID.TID 0000.0001)  ploadbar=  1.00994162665769E+05
 cg2d: Sum(rhs),rhsMax =  -6.51302975934687E+01  1.99665629694151E+00
(PID.TID 0000.0001)  ploadbar=  1.00994983502774E+05
 cg2d: Sum(rhs),rhsMax =  -6.46452756970839E+01  2.01156525964070E+00
(PID.TID 0000.0001)  ploadbar=  1.00995804339779E+05
 cg2d: Sum(rhs),rhsMax =  -6.41636281336675E+01  2.02661750047466E+00
(PID.TID 0000.0001)  ploadbar=  1.00996625176785E+05
 cg2d: Sum(rhs),rhsMax =  -6.36832462595041E+01  2.04187838840604E+00
(PID.TID 0000.0001)  ploadbar=  1.00997446013790E+05
 cg2d: Sum(rhs),rhsMax =  -6.32057156919065E+01  2.05729866973649E+00
(PID.TID 0000.0001)  ploadbar=  1.00998266850796E+05
 cg2d: Sum(rhs),rhsMax =  -6.28060585329087E+01  2.07039130227275E+00
(PID.TID 0000.0001)  ploadbar=  1.00998052347642E+05
 cg2d: Sum(rhs),rhsMax =  -6.24294244987151E+01  2.08288497799201E+00
(PID.TID 0000.0001)  ploadbar=  1.00997837844489E+05
 cg2d: Sum(rhs),rhsMax =  -6.20667106412587E+01  2.09506252388946E+00
(PID.TID 0000.0001)  ploadbar=  1.00997623341335E+05
 cg2d: Sum(rhs),rhsMax =  -6.17260395942771E+01  2.10663457034253E+00
(PID.TID 0000.0001)  ploadbar=  1.00997408838181E+05
 cg2d: Sum(rhs),rhsMax =  -6.14009419140203E+01  2.11780102738555E+00
(PID.TID 0000.0001)  ploadbar=  1.00997194335028E+05
 cg2d: Sum(rhs),rhsMax =  -6.10832394161165E+01  2.12881976704846E+00
(PID.TID 0000.0001)  ploadbar=  1.00996979831874E+05
 cg2d: Sum(rhs),rhsMax =  -6.07925831235422E+01  2.13893072437924E+00
(PID.TID 0000.0001)  ploadbar=  1.00996810787744E+05
 cg2d: Sum(rhs),rhsMax =  -6.05173077568450E+01  2.14850858254568E+00
(PID.TID 0000.0001)  ploadbar=  1.00996641743615E+05
 cg2d: Sum(rhs),rhsMax =  -6.02492767476126E+01  2.15782287347174E+00
(PID.TID 0000.0001)  ploadbar=  1.00996472699486E+05
 cg2d: Sum(rhs),rhsMax =  -5.99922429150728E+01  2.16673131874612E+00
(PID.TID 0000.0001)  ploadbar=  1.00996303655356E+05
 cg2d: Sum(rhs),rhsMax =  -5.97625555468814E+01  2.17462899681872E+00
(PID.TID 0000.0001)  ploadbar=  1.00996134611227E+05
 cg2d: Sum(rhs),rhsMax =  -5.95685244474242E+01  2.18119060479058E+00
(PID.TID 0000.0001)  ploadbar=  1.00995965567098E+05
 cg2d: Sum(rhs),rhsMax =  -5.94014402680544E+01  2.18689267860797E+00
(PID.TID 0000.0001)  ploadbar=  1.00995438180366E+05
 cg2d: Sum(rhs),rhsMax =  -5.92692320850753E+01  2.19141787453513E+00
(PID.TID 0000.0001)  ploadbar=  1.00994910793635E+05
 cg2d: Sum(rhs),rhsMax =  -5.91672430478661E+01  2.19490927476315E+00
(PID.TID 0000.0001)  ploadbar=  1.00994383406904E+05
 cg2d: Sum(rhs),rhsMax =  -5.90889334135507E+01  2.19759442966781E+00
(PID.TID 0000.0001)  ploadbar=  1.00993856020173E+05
 cg2d: Sum(rhs),rhsMax =  -5.90312470381738E+01  2.19957014489784E+00
(PID.TID 0000.0001)  ploadbar=  1.00993328633442E+05
 cg2d: Sum(rhs),rhsMax =  -5.89826841882631E+01  2.20125340779952E+00
(PID.TID 0000.0001)  ploadbar=  1.00992801246711E+05
 cg2d: Sum(rhs),rhsMax =  -5.89520703491578E+01  2.20224462749401E+00
(PID.TID 0000.0001)  ploadbar=  1.00992693510521E+05
 cg2d: Sum(rhs),rhsMax =  -5.89752520919641E+01  2.20119420160860E+00
(PID.TID 0000.0001)  ploadbar=  1.00992585774331E+05
 cg2d: Sum(rhs),rhsMax =  -5.90850841609341E+01  2.19687762126465E+00
(PID.TID 0000.0001)  ploadbar=  1.00992478038141E+05
 cg2d: Sum(rhs),rhsMax =  -5.92858431847910E+01  2.18916728705154E+00
(PID.TID 0000.0001)  ploadbar=  1.00992370301951E+05
 cg2d: Sum(rhs),rhsMax =  -5.95901337585605E+01  2.17766756616177E+00
(PID.TID 0000.0001)  ploadbar=  1.00992262565761E+05
 cg2d: Sum(rhs),rhsMax =  -5.99319492530901E+01  2.16487357309476E+00
(PID.TID 0000.0001)  ploadbar=  1.00992154829572E+05
 cg2d: Sum(rhs),rhsMax =  -6.02247412859481E+01  2.15399037104472E+00
(PID.TID 0000.0001)  ploadbar=  1.00992800108265E+05
 cg2d: Sum(rhs),rhsMax =  -6.04859531575276E+01  2.14433404240691E+00
(PID.TID 0000.0001)  ploadbar=  1.00993445386958E+05
 cg2d: Sum(rhs),rhsMax =  -6.07468463312666E+01  2.13477428619494E+00
(PID.TID 0000.0001)  ploadbar=  1.00994090665652E+05
 cg2d: Sum(rhs),rhsMax =  -6.10213175922881E+01  2.12482828523354E+00
(PID.TID 0000.0001)  ploadbar=  1.00994735944345E+05
 cg2d: Sum(rhs),rhsMax =  -6.13069414457885E+01  2.11459212276261E+00
(PID.TID 0000.0001)  ploadbar=  1.00995381223038E+05
 cg2d: Sum(rhs),rhsMax =  -6.15988277266883E+01  2.10423057277708E+00
(PID.TID 0000.0001)  ploadbar=  1.00996026501732E+05
 cg2d: Sum(rhs),rhsMax =  -6.18421725733397E+01  2.09558088188333E+00
(PID.TID 0000.0001)  ploadbar=  1.00996948799872E+05
 cg2d: Sum(rhs),rhsMax =  -6.20574730055206E+01  2.08789985679372E+00
(PID.TID 0000.0001)  ploadbar=  1.00997871098013E+05
 cg2d: Sum(rhs),rhsMax =  -6.22364951957392E+01  2.08143217573187E+00
(PID.TID 0000.0001)  ploadbar=  1.00998793396154E+05
 cg2d: Sum(rhs),rhsMax =  -6.23685787056385E+01  2.07650927228868E+00
(PID.TID 0000.0001)  ploadbar=  1.00999715694295E+05
 cg2d: Sum(rhs),rhsMax =  -6.24484019236217E+01  2.07328511334196E+00
(PID.TID 0000.0001)  ploadbar=  1.01000637992436E+05
 cg2d: Sum(rhs),rhsMax =  -6.24771715917803E+01  2.07170252391785E+00
(PID.TID 0000.0001)  ploadbar=  1.01001560290577E+05
 cg2d: Sum(rhs),rhsMax =  -6.24491513740969E+01  2.07208534737025E+00
(PID.TID 0000.0001)  ploadbar=  1.01001300761395E+05
 cg2d: Sum(rhs),rhsMax =  -6.24151014314121E+01  2.07274130810391E+00
(PID.TID 0000.0001)  ploadbar=  1.01001041232213E+05
 cg2d: Sum(rhs),rhsMax =  -6.23837758005378E+01  2.07336881912452E+00
(PID.TID 0000.0001)  ploadbar=  1.01000781703032E+05
 cg2d: Sum(rhs),rhsMax =  -6.23605212339266E+01  2.07378534697894E+00
(PID.TID 0000.0001)  ploadbar=  1.01000522173850E+05
 cg2d: Sum(rhs),rhsMax =  -6.23304025038273E+01  2.07448207196794E+00
(PID.TID 0000.0001)  ploadbar=  1.01000262644668E+05
 cg2d: Sum(rhs),rhsMax =  -6.23115874582749E+01  2.07484829625809E+00
(PID.TID 0000.0001)  ploadbar=  1.01000003115486E+05
 cg2d: Sum(rhs),rhsMax =  -6.23778318449493E+01  2.07237878221905E+00
(PID.TID 0000.0001)  ploadbar=  1.00999864777989E+05
 cg2d: Sum(rhs),rhsMax =  -6.24157984247789E+01  2.07083458175963E+00
(PID.TID 0000.0001)  ploadbar=  1.00999726440492E+05
 cg2d: Sum(rhs),rhsMax =  -6.24144584595801E+01  2.07057289221812E+00
(PID.TID 0000.0001)  ploadbar=  1.00999588102995E+05
 cg2d: Sum(rhs),rhsMax =  -6.23671981709312E+01  2.07181040417233E+00
(PID.TID 0000.0001)  ploadbar=  1.00999449765498E+05
 cg2d: Sum(rhs),rhsMax =  -6.22799978444478E+01  2.07434929778262E+00
(PID.TID 0000.0001)  ploadbar=  1.00999311428001E+05
 cg2d: Sum(rhs),rhsMax =  -6.21653047885853E+01  2.07778328847573E+00
(PID.TID 0000.0001)  ploadbar=  1.00999173090504E+05
 cg2d: Sum(rhs),rhsMax =  -6.20266900195587E+01  2.08205506268503E+00
(PID.TID 0000.0001)  ploadbar=  1.00998553357735E+05
 cg2d: Sum(rhs),rhsMax =  -6.18903470135613E+01  2.08628536088621E+00
(PID.TID 0000.0001)  ploadbar=  1.00997933624966E+05
 cg2d: Sum(rhs),rhsMax =  -6.17641502125410E+01  2.09020774941556E+00
(PID.TID 0000.0001)  ploadbar=  1.00997313892197E+05
 cg2d: Sum(rhs),rhsMax =  -6.16654783933119E+01  2.09323084764206E+00
(PID.TID 0000.0001)  ploadbar=  1.00996694159428E+05
 cg2d: Sum(rhs),rhsMax =  -6.16018880623435E+01  2.09508835853045E+00
(PID.TID 0000.0001)  ploadbar=  1.00996074426660E+05
 cg2d: Sum(rhs),rhsMax =  -6.15695845772693E+01  2.09589078045784E+00
(PID.TID 0000.0001)  ploadbar=  1.00995454693891E+05
 cg2d: Sum(rhs),rhsMax =  -6.15336024862474E+01  2.09675641695480E+00
(PID.TID 0000.0001)  ploadbar=  1.00994998502890E+05
 cg2d: Sum(rhs),rhsMax =  -6.14784950775231E+01  2.09820337656147E+00
(PID.TID 0000.0001)  ploadbar=  1.00994542311888E+05
 cg2d: Sum(rhs),rhsMax =  -6.14157303565832E+01  2.09983255408731E+00
(PID.TID 0000.0001)  ploadbar=  1.00994086120887E+05
 cg2d: Sum(rhs),rhsMax =  -6.13374795819364E+01  2.10191185787610E+00
(PID.TID 0000.0001)  ploadbar=  1.00993629929886E+05
 cg2d: Sum(rhs),rhsMax =  -6.12389922055775E+01  2.10460692845857E+00
(PID.TID 0000.0001)  ploadbar=  1.00993173738884E+05
 cg2d: Sum(rhs),rhsMax =  -6.11195265771447E+01  2.10794718622750E+00
(PID.TID 0000.0001)  ploadbar=  1.00992717547883E+05
 cg2d: Sum(rhs),rhsMax =  -6.09755454900552E+01  2.11220111095728E+00
(PID.TID 0000.0001)  ploadbar=  1.00992520407602E+05
 cg2d: Sum(rhs),rhsMax =  -6.08114180853768E+01  2.11721932880269E+00
(PID.TID 0000.0001)  ploadbar=  1.00992323267320E+05
 cg2d: Sum(rhs),rhsMax =  -6.06321575186089E+01  2.12282564355653E+00
(PID.TID 0000.0001)  ploadbar=  1.00992126127039E+05
 cg2d: Sum(rhs),rhsMax =  -6.04466394405927E+01  2.12871095150401E+00
(PID.TID 0000.0001)  ploadbar=  1.00991928986757E+05
 cg2d: Sum(rhs),rhsMax =  -6.02620037173831E+01  2.13462363145174E+00
(PID.TID 0000.0001)  ploadbar=  1.00991731846476E+05
 cg2d: Sum(rhs),rhsMax =  -6.00780177026009E+01  2.14057427351651E+00
(PID.TID 0000.0001)  ploadbar=  1.00991534706194E+05
 cg2d: Sum(rhs),rhsMax =  -5.98954929563043E+01  2.14651089596127E+00
(PID.TID 0000.0001)  ploadbar=  1.00990988785072E+05
 cg2d: Sum(rhs),rhsMax =  -5.97313252696721E+01  2.15181487483573E+00
(PID.TID 0000.0001)  ploadbar=  1.00990442863951E+05
 cg2d: Sum(rhs),rhsMax =  -5.95878384744342E+01  2.15639000161178E+00
(PID.TID 0000.0001)  ploadbar=  1.00989896942829E+05
 cg2d: Sum(rhs),rhsMax =  -5.94625412699420E+01  2.16031120931157E+00
(PID.TID 0000.0001)  ploadbar=  1.00989351021708E+05
 cg2d: Sum(rhs),rhsMax =  -5.97842694327311E+01  2.14804696126685E+00
(PID.TID 0000.0001)  ploadbar=  1.00988805100586E+05
 cg2d: Sum(rhs),rhsMax =  -6.01439282720498E+01  2.13454378287288E+00
(PID.TID 0000.0001)  ploadbar=  1.00988259179464E+05
 cg2d: Sum(rhs),rhsMax =  -6.04793077075078E+01  2.12209190755172E+00
(PID.TID 0000.0001)  ploadbar=  1.00989397565481E+05
 cg2d: Sum(rhs),rhsMax =  -6.07910349437904E+01  2.11063084902973E+00
(PID.TID 0000.0001)  ploadbar=  1.00990535951497E+05
 cg2d: Sum(rhs),rhsMax =  -6.10790497259560E+01  2.10013514740994E+00
(PID.TID 0000.0001)  ploadbar=  1.00991674337513E+05
 cg2d: Sum(rhs),rhsMax =  -6.13426749095925E+01  2.09060253998694E+00
(PID.TID 0000.0001)  ploadbar=  1.00992812723530E+05
 cg2d: Sum(rhs),rhsMax =  -6.15919421251423E+01  2.08166816222395E+00
(PID.TID 0000.0001)  ploadbar=  1.00993951109546E+05
 cg2d: Sum(rhs),rhsMax =  -6.18187023764144E+01  2.07358155049884E+00
(PID.TID 0000.0001)  ploadbar=  1.00995089495562E+05
 cg2d: Sum(rhs),rhsMax =  -6.20424435170084E+01  2.06558007986093E+00
(PID.TID 0000.0001)  ploadbar=  1.00995483639019E+05
 cg2d: Sum(rhs),rhsMax =  -6.23127124983598E+01  2.05601512910013E+00
(PID.TID 0000.0001)  ploadbar=  1.00995877782476E+05
 cg2d: Sum(rhs),rhsMax =  -6.25459910655840E+01  2.04765032321888E+00
(PID.TID 0000.0001)  ploadbar=  1.00996271925933E+05
 cg2d: Sum(rhs),rhsMax =  -6.27497521751822E+01  2.04021162846894E+00
(PID.TID 0000.0001)  ploadbar=  1.00996666069390E+05
 cg2d: Sum(rhs),rhsMax =  -6.29231297902631E+01  2.03370466940672E+00
(PID.TID 0000.0001)  ploadbar=  1.00997060212847E+05
 cg2d: Sum(rhs),rhsMax =  -6.30674261553611E+01  2.02806629692654E+00
(PID.TID 0000.0001)  ploadbar=  1.00997454356304E+05
 cg2d: Sum(rhs),rhsMax =  -6.32275357764188E+01  2.02203396527789E+00
(PID.TID 0000.0001)  ploadbar=  1.00997623281568E+05
 cg2d: Sum(rhs),rhsMax =  -6.35236886909403E+01  2.01179345043698E+00
(PID.TID 0000.0001)  ploadbar=  1.00997792206832E+05
 cg2d: Sum(rhs),rhsMax =  -6.38617861743007E+01  2.00040078357831E+00
(PID.TID 0000.0001)  ploadbar=  1.00997961132095E+05
 cg2d: Sum(rhs),rhsMax =  -6.41883541714060E+01  1.98954646311967E+00
(PID.TID 0000.0001)  ploadbar=  1.00998130057359E+05
 cg2d: Sum(rhs),rhsMax =  -6.45172699979034E+01  1.97878649230816E+00
(PID.TID 0000.0001)  ploadbar=  1.00998298982623E+05
 cg2d: Sum(rhs),rhsMax =  -6.49299140207033E+01  1.96565437809021E+00
(PID.TID 0000.0001)  ploadbar=  1.00998467907886E+05
 cg2d: Sum(rhs),rhsMax =  -6.53505421523084E+01  1.95245516103236E+00
(PID.TID 0000.0001)  ploadbar=  1.00998202230009E+05
 cg2d: Sum(rhs),rhsMax =  -6.57724286465223E+01  1.93938461310846E+00
(PID.TID 0000.0001)  ploadbar=  1.00997936552131E+05
 cg2d: Sum(rhs),rhsMax =  -6.61957714701539E+01  1.92642896000151E+00
(PID.TID 0000.0001)  ploadbar=  1.00997670874253E+05
 cg2d: Sum(rhs),rhsMax =  -6.66144972472040E+01  1.91375396417909E+00
(PID.TID 0000.0001)  ploadbar=  1.00997405196376E+05
 cg2d: Sum(rhs),rhsMax =  -6.70304923910875E+01  1.90128905386895E+00
(PID.TID 0000.0001)  ploadbar=  1.00997139518498E+05
 cg2d: Sum(rhs),rhsMax =  -6.74511887289072E+01  1.88881620851517E+00
(PID.TID 0000.0001)  ploadbar=  1.00996873840621E+05
 cg2d: Sum(rhs),rhsMax =  -6.78908938603834E+01  1.87600479519616E+00
(PID.TID 0000.0001)  ploadbar=  1.00997617709915E+05
 cg2d: Sum(rhs),rhsMax =  -6.83024194632876E+01  1.86415479992725E+00
(PID.TID 0000.0001)  ploadbar=  1.00998361579209E+05
 cg2d: Sum(rhs),rhsMax =  -6.86752541430813E+01  1.85351926433834E+00
(PID.TID 0000.0001)  ploadbar=  1.00999105448503E+05
 cg2d: Sum(rhs),rhsMax =  -6.90078928719710E+01  1.84410243999386E+00
(PID.TID 0000.0001)  ploadbar=  1.00999849317798E+05
 cg2d: Sum(rhs),rhsMax =  -6.92987309490534E+01  1.83591271347539E+00
(PID.TID 0000.0001)  ploadbar=  1.01000593187092E+05
 cg2d: Sum(rhs),rhsMax =  -6.95467529749131E+01  1.82894000576588E+00
(PID.TID 0000.0001)  ploadbar=  1.01001337056386E+05
 cg2d: Sum(rhs),rhsMax =  -6.97441918157464E+01  1.82330637268011E+00
(PID.TID 0000.0001)  ploadbar=  1.01002306772762E+05
 cg2d: Sum(rhs),rhsMax =  -7.00381901199849E+01  1.81515738820043E+00
(PID.TID 0000.0001)  ploadbar=  1.01003276489138E+05
 cg2d: Sum(rhs),rhsMax =  -7.03769320137094E+01  1.80587823300621E+00
(PID.TID 0000.0001)  ploadbar=  1.01004246205514E+05
 cg2d: Sum(rhs),rhsMax =  -7.07308385941490E+01  1.79625113591168E+00
(PID.TID 0000.0001)  ploadbar=  1.01005215921889E+05
 cg2d: Sum(rhs),rhsMax =  -7.10921005863919E+01  1.78648115908526E+00
(PID.TID 0000.0001)  ploadbar=  1.01006185638265E+05
 cg2d: Sum(rhs),rhsMax =  -7.14785552152080E+01  1.77612564044190E+00
(PID.TID 0000.0001)  ploadbar=  1.01007155354641E+05
 cg2d: Sum(rhs),rhsMax =  -7.18870285541326E+01  1.76543253527106E+00
(PID.TID 0000.0001)  ploadbar=  1.01006048060565E+05
 cg2d: Sum(rhs),rhsMax =  -7.23050735872491E+01  1.75471279523048E+00
(PID.TID 0000.0001)  ploadbar=  1.01004940766489E+05
 cg2d: Sum(rhs),rhsMax =  -7.27178369646162E+01  1.74432185571952E+00
(PID.TID 0000.0001)  ploadbar=  1.01003833472413E+05
 cg2d: Sum(rhs),rhsMax =  -7.31172724955210E+01  1.73443934498643E+00
(PID.TID 0000.0001)  ploadbar=  1.01002726178337E+05
 cg2d: Sum(rhs),rhsMax =  -7.36106653756460E+01  1.72253469092623E+00
(PID.TID 0000.0001)  ploadbar=  1.01001618884261E+05
 cg2d: Sum(rhs),rhsMax =  -7.41073631402349E+01  1.71077847384780E+00
(PID.TID 0000.0001)  ploadbar=  1.01000511590185E+05
 cg2d: Sum(rhs),rhsMax =  -7.45584689141891E+01  1.70020839757175E+00
(PID.TID 0000.0001)  ploadbar=  1.01000615806465E+05
 cg2d: Sum(rhs),rhsMax =  -7.50038525189520E+01  1.68987601452456E+00
(PID.TID 0000.0001)  ploadbar=  1.01000720022745E+05
 cg2d: Sum(rhs),rhsMax =  -7.54620960730985E+01  1.67935787075365E+00
(PID.TID 0000.0001)  ploadbar=  1.01000824239024E+05
 cg2d: Sum(rhs),rhsMax =  -7.59454224981211E+01  1.66838851594916E+00
(PID.TID 0000.0001)  ploadbar=  1.01000928455304E+05
 cg2d: Sum(rhs),rhsMax =  -7.64609997695152E+01  1.65682082581305E+00
(PID.TID 0000.0001)  ploadbar=  1.01001032671583E+05
 cg2d: Sum(rhs),rhsMax =  -7.70184976416714E+01  1.64447180935183E+00
(PID.TID 0000.0001)  ploadbar=  1.01001136887863E+05
 cg2d: Sum(rhs),rhsMax =  -7.71826074901249E+01  1.64064709088690E+00
(PID.TID 0000.0001)  ploadbar=  1.01001375041207E+05
 cg2d: Sum(rhs),rhsMax =  -7.71224567866926E+01  1.64162184092987E+00
(PID.TID 0000.0001)  ploadbar=  1.01001613194551E+05
 cg2d: Sum(rhs),rhsMax =  -7.71965525319139E+01  1.63976516902613E+00
(PID.TID 0000.0001)  ploadbar=  1.01001851347894E+05
 cg2d: Sum(rhs),rhsMax =  -7.74010424329016E+01  1.63517566149660E+00
(PID.TID 0000.0001)  ploadbar=  1.01002089501238E+05
 cg2d: Sum(rhs),rhsMax =  -7.76630818728355E+01  1.62941840605170E+00
(PID.TID 0000.0001)  ploadbar=  1.01002327654582E+05
 cg2d: Sum(rhs),rhsMax =  -7.79776655544535E+01  1.62261694998018E+00
(PID.TID 0000.0001)  ploadbar=  1.01002565807926E+05
 cg2d: Sum(rhs),rhsMax =  -7.82185289203958E+01  1.61734451250379E+00
(PID.TID 0000.0001)  ploadbar=  1.01003292780368E+05
 cg2d: Sum(rhs),rhsMax =  -7.79931357865650E+01  1.62168555518268E+00
(PID.TID 0000.0001)  ploadbar=  1.01004019752810E+05
 cg2d: Sum(rhs),rhsMax =  -7.78536368725400E+01  1.62419732507151E+00
(PID.TID 0000.0001)  ploadbar=  1.01004746725252E+05
 cg2d: Sum(rhs),rhsMax =  -7.77571057634127E+01  1.62575576543083E+00
(PID.TID 0000.0001)  ploadbar=  1.01005473697694E+05
 cg2d: Sum(rhs),rhsMax =  -7.77149162479606E+01  1.62611391037814E+00
(PID.TID 0000.0001)  ploadbar=  1.01006200670136E+05
 cg2d: Sum(rhs),rhsMax =  -7.77128232820461E+01  1.62556474404215E+00
(PID.TID 0000.0001)  ploadbar=  1.01006927642579E+05
 cg2d: Sum(rhs),rhsMax =  -7.76562319652023E+01  1.62621318064716E+00
(PID.TID 0000.0001)  ploadbar=  1.01007714721786E+05
 cg2d: Sum(rhs),rhsMax =  -7.75903406870073E+01  1.62710678261063E+00
(PID.TID 0000.0001)  ploadbar=  1.01008501800994E+05
 cg2d: Sum(rhs),rhsMax =  -7.75483123230529E+01  1.62754552482488E+00
(PID.TID 0000.0001)  ploadbar=  1.01009288880202E+05
 cg2d: Sum(rhs),rhsMax =  -7.75233830828527E+01  1.62766109982860E+00
(PID.TID 0000.0001)  ploadbar=  1.01010075959410E+05
 cg2d: Sum(rhs),rhsMax =  -7.75044255995221E+01  1.62768311750562E+00
(PID.TID 0000.0001)  ploadbar=  1.01010863038618E+05
 cg2d: Sum(rhs),rhsMax =  -7.75240591504792E+01  1.62692363088768E+00
(PID.TID 0000.0001)  ploadbar=  1.01011650117826E+05
 cg2d: Sum(rhs),rhsMax =  -7.75731497132325E+01  1.62554723003267E+00
(PID.TID 0000.0001)  ploadbar=  1.01013272452170E+05
 cg2d: Sum(rhs),rhsMax =  -7.76500257674609E+01  1.62358427863961E+00
(PID.TID 0000.0001)  ploadbar=  1.01014894786513E+05
 cg2d: Sum(rhs),rhsMax =  -7.77656294447986E+01  1.62080650815596E+00
(PID.TID 0000.0001)  ploadbar=  1.01016517120857E+05
 cg2d: Sum(rhs),rhsMax =  -7.78586203508484E+01  1.61849154688168E+00
(PID.TID 0000.0001)  ploadbar=  1.01018139455201E+05
 cg2d: Sum(rhs),rhsMax =  -7.79200192695432E+01  1.61681675461318E+00
(PID.TID 0000.0001)  ploadbar=  1.01019761789545E+05
 cg2d: Sum(rhs),rhsMax =  -7.79829283159230E+01  1.61508729578272E+00
(PID.TID 0000.0001)  ploadbar=  1.01021384123888E+05
 cg2d: Sum(rhs),rhsMax =  -7.80676449854745E+01  1.61293938362972E+00
(PID.TID 0000.0001)  ploadbar=  1.01022486778456E+05
 cg2d: Sum(rhs),rhsMax =  -7.80990690363158E+01  1.61192134337994E+00
(PID.TID 0000.0001)  ploadbar=  1.01023589433023E+05
 cg2d: Sum(rhs),rhsMax =  -7.80760439563655E+01  1.61205315774439E+00
(PID.TID 0000.0001)  ploadbar=  1.01024692087590E+05
 cg2d: Sum(rhs),rhsMax =  -7.79790432500288E+01  1.61373874347142E+00
(PID.TID 0000.0001)  ploadbar=  1.01025794742158E+05
 cg2d: Sum(rhs),rhsMax =  -7.78232335385736E+01  1.61666846229526E+00
(PID.TID 0000.0001)  ploadbar=  1.01026897396725E+05
 cg2d: Sum(rhs),rhsMax =  -7.76156480117365E+01  1.62070422680757E+00
(PID.TID 0000.0001)  ploadbar=  1.01028000051293E+05
 cg2d: Sum(rhs),rhsMax =  -7.73258475938215E+01  1.62647365974365E+00
(PID.TID 0000.0001)  ploadbar=  1.01028948382510E+05
 cg2d: Sum(rhs),rhsMax =  -7.71231152142850E+01  1.63042092181466E+00
(PID.TID 0000.0001)  ploadbar=  1.01029896713727E+05
 cg2d: Sum(rhs),rhsMax =  -7.70227853970992E+01  1.63218902188472E+00
(PID.TID 0000.0001)  ploadbar=  1.01030845044944E+05
 cg2d: Sum(rhs),rhsMax =  -7.69372362797927E+01  1.63361739989861E+00
(PID.TID 0000.0001)  ploadbar=  1.01031793376161E+05
 cg2d: Sum(rhs),rhsMax =  -7.68587178901386E+01  1.63486633948987E+00
(PID.TID 0000.0001)  ploadbar=  1.01032741707378E+05
 cg2d: Sum(rhs),rhsMax =  -7.67813206302536E+01  1.63605807343306E+00
(PID.TID 0000.0001)  ploadbar=  1.01033690038595E+05
 cg2d: Sum(rhs),rhsMax =  -7.67300851612391E+01  1.63674515007696E+00
(PID.TID 0000.0001)  ploadbar=  1.01034131087033E+05
 cg2d: Sum(rhs),rhsMax =  -7.67190965744767E+01  1.63662036626807E+00
(PID.TID 0000.0001)  ploadbar=  1.01034572135472E+05
 cg2d: Sum(rhs),rhsMax =  -7.67560072786024E+01  1.63551427334649E+00
(PID.TID 0000.0001)  ploadbar=  1.01035013183911E+05
 cg2d: Sum(rhs),rhsMax =  -7.68538314488577E+01  1.63314623838590E+00
(PID.TID 0000.0001)  ploadbar=  1.01035454232350E+05
 cg2d: Sum(rhs),rhsMax =  -7.69998590857192E+01  1.62979476440825E+00
(PID.TID 0000.0001)  ploadbar=  1.01035895280789E+05
 cg2d: Sum(rhs),rhsMax =  -7.71989805581022E+01  1.62536449844671E+00
(PID.TID 0000.0001)  ploadbar=  1.01036336329227E+05
 cg2d: Sum(rhs),rhsMax =  -7.74114384761556E+01  1.62068826462144E+00
(PID.TID 0000.0001)  ploadbar=  1.01035983208489E+05
 cg2d: Sum(rhs),rhsMax =  -7.76486977174690E+01  1.61552563556660E+00
(PID.TID 0000.0001)  ploadbar=  1.01035630087751E+05
 cg2d: Sum(rhs),rhsMax =  -7.78919309711646E+01  1.61027148710223E+00
(PID.TID 0000.0001)  ploadbar=  1.01035276967013E+05
 cg2d: Sum(rhs),rhsMax =  -7.81239249709545E+01  1.60527714898908E+00
(PID.TID 0000.0001)  ploadbar=  1.01034923846274E+05
 cg2d: Sum(rhs),rhsMax =  -7.83348012470323E+01  1.60073516169098E+00
(PID.TID 0000.0001)  ploadbar=  1.01034570725536E+05
 cg2d: Sum(rhs),rhsMax =  -7.85151963216097E+01  1.59682681296996E+00
(PID.TID 0000.0001)  ploadbar=  1.01034217604798E+05
 cg2d: Sum(rhs),rhsMax =  -7.86623356381303E+01  1.59361660068824E+00
(PID.TID 0000.0001)  ploadbar=  1.01034687576372E+05
 cg2d: Sum(rhs),rhsMax =  -7.87575502970969E+01  1.59146572247533E+00
(PID.TID 0000.0001)  ploadbar=  1.01035157547947E+05
 cg2d: Sum(rhs),rhsMax =  -7.88113913967912E+01  1.59015159034110E+00
(PID.TID 0000.0001)  ploadbar=  1.01035627519521E+05
 cg2d: Sum(rhs),rhsMax =  -7.88376246330766E+01  1.58939031046557E+00
(PID.TID 0000.0001)  ploadbar=  1.01036097491096E+05
 cg2d: Sum(rhs),rhsMax =  -7.88634368426826E+01  1.58862786090117E+00
(PID.TID 0000.0001)  ploadbar=  1.01036567462671E+05
 cg2d: Sum(rhs),rhsMax =  -7.88823550152443E+01  1.58798787145749E+00
(PID.TID 0000.0001)  ploadbar=  1.01037037434245E+05
 cg2d: Sum(rhs),rhsMax =  -7.88767843175288E+01  1.58780643151923E+00
(PID.TID 0000.0001)  ploadbar=  1.01037689109947E+05
 cg2d: Sum(rhs),rhsMax =  -7.89833031043963E+01  1.58533111677967E+00
(PID.TID 0000.0001)  ploadbar=  1.01038340785649E+05
 cg2d: Sum(rhs),rhsMax =  -7.91759637053134E+01  1.58109486671743E+00
(PID.TID 0000.0001)  ploadbar=  1.01038992461351E+05
 cg2d: Sum(rhs),rhsMax =  -7.93998016456675E+01  1.57621054945391E+00
(PID.TID 0000.0001)  ploadbar=  1.01039644137052E+05
 cg2d: Sum(rhs),rhsMax =  -7.96368227518714E+01  1.57104089282852E+00
(PID.TID 0000.0001)  ploadbar=  1.01040295812754E+05
 cg2d: Sum(rhs),rhsMax =  -7.98694664836854E+01  1.56593257633658E+00
(PID.TID 0000.0001)  ploadbar=  1.01040947488456E+05
 cg2d: Sum(rhs),rhsMax =  -8.01169616722545E+01  1.56061282622685E+00
(PID.TID 0000.0001)  ploadbar=  1.01041377094217E+05
 cg2d: Sum(rhs),rhsMax =  -8.03858356559079E+01  1.55495249870336E+00
(PID.TID 0000.0001)  ploadbar=  1.01041806699978E+05
 cg2d: Sum(rhs),rhsMax =  -8.06483044133687E+01  1.54948444190648E+00
(PID.TID 0000.0001)  ploadbar=  1.01042236305739E+05
 cg2d: Sum(rhs),rhsMax =  -8.09060115763400E+01  1.54417044245412E+00
(PID.TID 0000.0001)  ploadbar=  1.01042665911500E+05
 cg2d: Sum(rhs),rhsMax =  -8.11727344480313E+01  1.53874415629974E+00
(PID.TID 0000.0001)  ploadbar=  1.01043095517261E+05
 cg2d: Sum(rhs),rhsMax =  -8.14555178426937E+01  1.53306966939189E+00
(PID.TID 0000.0001)  ploadbar=  1.01043525123022E+05
 cg2d: Sum(rhs),rhsMax =  -8.17444914255408E+01  1.52733417759839E+00
(PID.TID 0000.0001)  ploadbar=  1.01045269936964E+05
 cg2d: Sum(rhs),rhsMax =  -8.20483637180308E+01  1.52137054528311E+00
(PID.TID 0000.0001)  ploadbar=  1.01047014750907E+05
 cg2d: Sum(rhs),rhsMax =  -8.23820222494627E+01  1.51490771016801E+00
(PID.TID 0000.0001)  ploadbar=  1.01048759564850E+05
 cg2d: Sum(rhs),rhsMax =  -8.27488257359902E+01  1.50789189369419E+00
(PID.TID 0000.0001)  ploadbar=  1.01050504378793E+05
 cg2d: Sum(rhs),rhsMax =  -8.28726698065349E+01  1.50533161043160E+00
(PID.TID 0000.0001)  ploadbar=  1.01052249192735E+05
 cg2d: Sum(rhs),rhsMax =  -8.24858857150038E+01  1.51207240899282E+00
(PID.TID 0000.0001)  ploadbar=  1.01053994006678E+05
 cg2d: Sum(rhs),rhsMax =  -8.20985294679673E+01  1.51891469240135E+00
(PID.TID 0000.0001)  ploadbar=  1.01054859207439E+05
 cg2d: Sum(rhs),rhsMax =  -8.16786097775204E+01  1.52644859929037E+00
(PID.TID 0000.0001)  ploadbar=  1.01055724408200E+05
 cg2d: Sum(rhs),rhsMax =  -8.12282151585390E+01  1.53464998121841E+00
(PID.TID 0000.0001)  ploadbar=  1.01056589608961E+05
 cg2d: Sum(rhs),rhsMax =  -8.07629064877205E+01  1.54323809342725E+00
(PID.TID 0000.0001)  ploadbar=  1.01057454809722E+05
 cg2d: Sum(rhs),rhsMax =  -8.02893262228166E+01  1.55208698187977E+00
(PID.TID 0000.0001)  ploadbar=  1.01058320010483E+05
 cg2d: Sum(rhs),rhsMax =  -7.98786642229540E+01  1.55980292353436E+00
(PID.TID 0000.0001)  ploadbar=  1.01059185211244E+05
 cg2d: Sum(rhs),rhsMax =  -7.95058482268642E+01  1.56681572372527E+00
(PID.TID 0000.0001)  ploadbar=  1.01059671742743E+05
 cg2d: Sum(rhs),rhsMax =  -7.92186881589746E+01  1.57215073236159E+00
(PID.TID 0000.0001)  ploadbar=  1.01060158274241E+05
 cg2d: Sum(rhs),rhsMax =  -7.93944027455294E+01  1.56827904185677E+00
(PID.TID 0000.0001)  ploadbar=  1.01060644805740E+05
 cg2d: Sum(rhs),rhsMax =  -8.00281978133489E+01  1.55541612441699E+00
(PID.TID 0000.0001)  ploadbar=  1.01061131337238E+05
 cg2d: Sum(rhs),rhsMax =  -8.06407610586663E+01  1.54310252627185E+00
(PID.TID 0000.0001)  ploadbar=  1.01061617868737E+05
 cg2d: Sum(rhs),rhsMax =  -8.11764531918189E+01  1.53235975483376E+00
(PID.TID 0000.0001)  ploadbar=  1.01062104400235E+05
 cg2d: Sum(rhs),rhsMax =  -8.15598339498341E+01  1.52465866981617E+00
(PID.TID 0000.0001)  ploadbar=  1.01062475375896E+05
 cg2d: Sum(rhs),rhsMax =  -8.23811951930218E+01  1.50901608565160E+00
(PID.TID 0000.0001)  ploadbar=  1.01062846351557E+05
 cg2d: Sum(rhs),rhsMax =  -8.34796436062049E+01  1.48876825449011E+00
(PID.TID 0000.0001)  ploadbar=  1.01063217327218E+05
 cg2d: Sum(rhs),rhsMax =  -8.48441457250778E+01  1.46447624099302E+00
(PID.TID 0000.0001)  ploadbar=  1.01063588302879E+05
 cg2d: Sum(rhs),rhsMax =  -8.61907451886308E+01  1.44128400455278E+00
(PID.TID 0000.0001)  ploadbar=  1.01063959278540E+05
 cg2d: Sum(rhs),rhsMax =  -8.57833981686494E+01  1.44784004054657E+00
(PID.TID 0000.0001)  ploadbar=  1.01064330254200E+05
 cg2d: Sum(rhs),rhsMax =  -8.54565686276854E+01  1.45308645555957E+00
(PID.TID 0000.0001)  ploadbar=  1.01064080050482E+05
 cg2d: Sum(rhs),rhsMax =  -8.51835177683164E+01  1.45744723232433E+00
(PID.TID 0000.0001)  ploadbar=  1.01063829846764E+05
 cg2d: Sum(rhs),rhsMax =  -8.49479307608137E+01  1.46118197825649E+00
(PID.TID 0000.0001)  ploadbar=  1.01063579643045E+05
 cg2d: Sum(rhs),rhsMax =  -8.47384460001682E+01  1.46447345244422E+00
(PID.TID 0000.0001)  ploadbar=  1.01063329439327E+05
 cg2d: Sum(rhs),rhsMax =  -8.45442915515005E+01  1.46749879316402E+00
(PID.TID 0000.0001)  ploadbar=  1.01063079235609E+05
 cg2d: Sum(rhs),rhsMax =  -8.43605144273146E+01  1.47033893358559E+00
(PID.TID 0000.0001)  ploadbar=  1.01062829031890E+05
 cg2d: Sum(rhs),rhsMax =  -8.47877260900648E+01  1.46261793534604E+00
(PID.TID 0000.0001)  ploadbar=  1.01061685611831E+05
 cg2d: Sum(rhs),rhsMax =  -8.58984851635105E+01  1.44342973214390E+00
(PID.TID 0000.0001)  ploadbar=  1.01060542191772E+05
 cg2d: Sum(rhs),rhsMax =  -8.71320044194741E+01  1.42275421692578E+00
(PID.TID 0000.0001)  ploadbar=  1.01059398771714E+05
 cg2d: Sum(rhs),rhsMax =  -8.85280635387555E+01  1.40010694354123E+00
(PID.TID 0000.0001)  ploadbar=  1.01058255351655E+05
 cg2d: Sum(rhs),rhsMax =  -9.00995010089995E+01  1.37550246034686E+00
(PID.TID 0000.0001)  ploadbar=  1.01057111931596E+05
 cg2d: Sum(rhs),rhsMax =  -9.18099525862082E+01  1.34971320303992E+00
(PID.TID 0000.0001)  ploadbar=  1.01055968511537E+05
 cg2d: Sum(rhs),rhsMax =  -9.34936671165031E+01  1.32522189039250E+00
(PID.TID 0000.0001)  ploadbar=  1.01054918432637E+05
 cg2d: Sum(rhs),rhsMax =  -9.50757137336732E+01  1.30296219079224E+00
(PID.TID 0000.0001)  ploadbar=  1.01053868353736E+05
 cg2d: Sum(rhs),rhsMax =  -9.56978116036351E+01  1.29425450973746E+00
(PID.TID 0000.0001)  ploadbar=  1.01052818274836E+05
 cg2d: Sum(rhs),rhsMax =  -9.53617967432450E+01  1.29854080552149E+00
(PID.TID 0000.0001)  ploadbar=  1.01051768195935E+05
 cg2d: Sum(rhs),rhsMax =  -9.50563392705087E+01  1.30239936220691E+00
(PID.TID 0000.0001)  ploadbar=  1.01050718117035E+05
 cg2d: Sum(rhs),rhsMax =  -9.47765134169735E+01  1.30588352344653E+00
(PID.TID 0000.0001)  ploadbar=  1.01049668038135E+05
 cg2d: Sum(rhs),rhsMax =  -9.45354992642378E+01  1.30887538845395E+00
(PID.TID 0000.0001)  ploadbar=  1.01048037349020E+05
 cg2d: Sum(rhs),rhsMax =  -9.43142710864916E+01  1.31162875959589E+00
(PID.TID 0000.0001)  ploadbar=  1.01046406659906E+05
 cg2d: Sum(rhs),rhsMax =  -9.41039341289093E+01  1.31426159880200E+00
(PID.TID 0000.0001)  ploadbar=  1.01044775970791E+05
 cg2d: Sum(rhs),rhsMax =  -9.39107011780254E+01  1.31668132214566E+00
(PID.TID 0000.0001)  ploadbar=  1.01043145281677E+05
 cg2d: Sum(rhs),rhsMax =  -9.37371865917055E+01  1.31884299604577E+00
(PID.TID 0000.0001)  ploadbar=  1.01041514592562E+05
 cg2d: Sum(rhs),rhsMax =  -9.35868494535162E+01  1.32069070748374E+00
(PID.TID 0000.0001)  ploadbar=  1.01039883903447E+05
 cg2d: Sum(rhs),rhsMax =  -9.34862318651357E+01  1.32182671402524E+00
(PID.TID 0000.0001)  ploadbar=  1.01039323224806E+05
 cg2d: Sum(rhs),rhsMax =  -9.34196201116767E+01  1.32246573992947E+00
(PID.TID 0000.0001)  ploadbar=  1.01038762546164E+05
 cg2d: Sum(rhs),rhsMax =  -9.28207101331012E+01  1.33067208324404E+00
(PID.TID 0000.0001)  ploadbar=  1.01038201867523E+05
 cg2d: Sum(rhs),rhsMax =  -9.19275064731679E+01  1.34324868595231E+00
(PID.TID 0000.0001)  ploadbar=  1.01037641188881E+05
 cg2d: Sum(rhs),rhsMax =  -9.07517582685014E+01  1.36026922250296E+00
(PID.TID 0000.0001)  ploadbar=  1.01037080510240E+05
 cg2d: Sum(rhs),rhsMax =  -8.93379458515783E+01  1.38138136763247E+00
(PID.TID 0000.0001)  ploadbar=  1.01036519831598E+05
 cg2d: Sum(rhs),rhsMax =  -8.77848027939559E+01  1.40542922408871E+00
(PID.TID 0000.0001)  ploadbar=  1.01036672051789E+05
 cg2d: Sum(rhs),rhsMax =  -8.62690529369501E+01  1.42974646224530E+00
(PID.TID 0000.0001)  ploadbar=  1.01036824271979E+05
 cg2d: Sum(rhs),rhsMax =  -8.49516322881314E+01  1.45155618274575E+00
(PID.TID 0000.0001)  ploadbar=  1.01036976492170E+05
 cg2d: Sum(rhs),rhsMax =  -8.38172261621251E+01  1.47084969792562E+00
(PID.TID 0000.0001)  ploadbar=  1.01037128712360E+05
 cg2d: Sum(rhs),rhsMax =  -8.28459583187959E+01  1.48774910155268E+00
(PID.TID 0000.0001)  ploadbar=  1.01037280932551E+05
 cg2d: Sum(rhs),rhsMax =  -8.20521568720465E+01  1.50180112594633E+00
(PID.TID 0000.0001)  ploadbar=  1.01037433152742E+05
 cg2d: Sum(rhs),rhsMax =  -8.15127643824114E+01  1.51135618292879E+00
(PID.TID 0000.0001)  ploadbar=  1.01037371101430E+05
 cg2d: Sum(rhs),rhsMax =  -8.14895313482394E+01  1.51136099603636E+00
(PID.TID 0000.0001)  ploadbar=  1.01037309050119E+05
 cg2d: Sum(rhs),rhsMax =  -8.15285420486848E+01  1.51016627915571E+00
(PID.TID 0000.0001)  ploadbar=  1.01037246998807E+05
 cg2d: Sum(rhs),rhsMax =  -8.16521341331931E+01  1.50735860885252E+00
(PID.TID 0000.0001)  ploadbar=  1.01037184947496E+05
 cg2d: Sum(rhs),rhsMax =  -8.18003558731697E+01  1.50405337996852E+00
(PID.TID 0000.0001)  ploadbar=  1.01037122896185E+05
 cg2d: Sum(rhs),rhsMax =  -8.19591881883317E+01  1.50050556734255E+00
(PID.TID 0000.0001)  ploadbar=  1.01037060844873E+05
 cg2d: Sum(rhs),rhsMax =  -8.22507541364832E+01  1.49461421852095E+00
(PID.TID 0000.0001)  ploadbar=  1.01037935849528E+05
 cg2d: Sum(rhs),rhsMax =  -8.26043680206449E+01  1.48769825690575E+00
(PID.TID 0000.0001)  ploadbar=  1.01038810854182E+05
 cg2d: Sum(rhs),rhsMax =  -8.30488199780097E+01  1.47926806995436E+00
(PID.TID 0000.0001)  ploadbar=  1.01039685858837E+05
 cg2d: Sum(rhs),rhsMax =  -8.35400936892615E+01  1.47014111706682E+00
(PID.TID 0000.0001)  ploadbar=  1.01040560863491E+05
 cg2d: Sum(rhs),rhsMax =  -8.40367279040435E+01  1.46105906945470E+00
(PID.TID 0000.0001)  ploadbar=  1.01041435868146E+05
 cg2d: Sum(rhs),rhsMax =  -8.45155841903323E+01  1.45241867204724E+00
(PID.TID 0000.0001)  ploadbar=  1.01042310872800E+05
 cg2d: Sum(rhs),rhsMax =  -8.49919711900412E+01  1.44392464462511E+00
(PID.TID 0000.0001)  ploadbar=  1.01042582000271E+05
 cg2d: Sum(rhs),rhsMax =  -8.54410622256480E+01  1.43598566940309E+00
(PID.TID 0000.0001)  ploadbar=  1.01042853127741E+05
 cg2d: Sum(rhs),rhsMax =  -8.58735414331959E+01  1.42840346811100E+00
(PID.TID 0000.0001)  ploadbar=  1.01043124255211E+05
 cg2d: Sum(rhs),rhsMax =  -8.69611940493582E+01  1.41018483534909E+00
(PID.TID 0000.0001)  ploadbar=  1.01043395382681E+05
 cg2d: Sum(rhs),rhsMax =  -8.74937717001805E+01  1.40123867191085E+00
(PID.TID 0000.0001)  ploadbar=  1.01043666510152E+05
 cg2d: Sum(rhs),rhsMax =  -8.69035489848200E+01  1.41037642093109E+00
(PID.TID 0000.0001)  ploadbar=  1.01043937637622E+05
 cg2d: Sum(rhs),rhsMax =  -8.64873655633830E+01  1.41680280005854E+00
(PID.TID 0000.0001)  ploadbar=  1.01044577937163E+05
 cg2d: Sum(rhs),rhsMax =  -8.62010698788942E+01  1.42116285709488E+00
(PID.TID 0000.0001)  ploadbar=  1.01045218236704E+05
 cg2d: Sum(rhs),rhsMax =  -8.60136773354423E+01  1.42392837616379E+00
(PID.TID 0000.0001)  ploadbar=  1.01045858536245E+05
 cg2d: Sum(rhs),rhsMax =  -8.58861684245387E+01  1.42572571683933E+00
(PID.TID 0000.0001)  ploadbar=  1.01046498835785E+05
 cg2d: Sum(rhs),rhsMax =  -8.57856500399588E+01  1.42708912231496E+00
(PID.TID 0000.0001)  ploadbar=  1.01047139135326E+05
 cg2d: Sum(rhs),rhsMax =  -8.56898842498811E+01  1.42838339157436E+00
(PID.TID 0000.0001)  ploadbar=  1.01047779434867E+05
 cg2d: Sum(rhs),rhsMax =  -8.55195381272788E+01  1.43090281335344E+00
(PID.TID 0000.0001)  ploadbar=  1.01048963318518E+05
 cg2d: Sum(rhs),rhsMax =  -8.53401108838111E+01  1.43355725502001E+00
(PID.TID 0000.0001)  ploadbar=  1.01050147202169E+05
 cg2d: Sum(rhs),rhsMax =  -8.51882749581398E+01  1.43572509650438E+00
(PID.TID 0000.0001)  ploadbar=  1.01051331085820E+05
 cg2d: Sum(rhs),rhsMax =  -8.50914738966152E+01  1.43693562210036E+00
(PID.TID 0000.0001)  ploadbar=  1.01052514969472E+05
 cg2d: Sum(rhs),rhsMax =  -8.50762765786848E+01  1.43673145168290E+00
(PID.TID 0000.0001)  ploadbar=  1.01053698853123E+05
 cg2d: Sum(rhs),rhsMax =  -8.51554884266665E+01  1.43489440354032E+00
(PID.TID 0000.0001)  ploadbar=  1.01054882736774E+05
 cg2d: Sum(rhs),rhsMax =  -8.52714390241965E+01  1.43247526331019E+00
(PID.TID 0000.0001)  ploadbar=  1.01054892950075E+05
 cg2d: Sum(rhs),rhsMax =  -8.54230126969410E+01  1.42949430246227E+00
(PID.TID 0000.0001)  ploadbar=  1.01054903163376E+05
 cg2d: Sum(rhs),rhsMax =  -8.55867289500643E+01  1.42634649295635E+00
(PID.TID 0000.0001)  ploadbar=  1.01054913376677E+05
 cg2d: Sum(rhs),rhsMax =  -8.57461869407997E+01  1.42330198450663E+00
(PID.TID 0000.0001)  ploadbar=  1.01054923589978E+05
 cg2d: Sum(rhs),rhsMax =  -8.59613539289921E+01  1.41936611874616E+00
(PID.TID 0000.0001)  ploadbar=  1.01054933803279E+05
 cg2d: Sum(rhs),rhsMax =  -8.62138836448611E+01  1.41485288613126E+00
(PID.TID 0000.0001)  ploadbar=  1.01054944016580E+05
 cg2d: Sum(rhs),rhsMax =  -8.65055510614716E+01  1.40971830660383E+00
(PID.TID 0000.0001)  ploadbar=  1.01056311396453E+05
 cg2d: Sum(rhs),rhsMax =  -8.68447992819345E+01  1.40383838699011E+00
(PID.TID 0000.0001)  ploadbar=  1.01057678776325E+05
 cg2d: Sum(rhs),rhsMax =  -8.83676929921382E+01  1.37926508043785E+00
(PID.TID 0000.0001)  ploadbar=  1.01059046156197E+05
 cg2d: Sum(rhs),rhsMax =  -8.98795825149521E+01  1.35567685882407E+00
(PID.TID 0000.0001)  ploadbar=  1.01060413536069E+05
 cg2d: Sum(rhs),rhsMax =  -9.13286172549943E+01  1.33377177900539E+00
(PID.TID 0000.0001)  ploadbar=  1.01061780915941E+05
 cg2d: Sum(rhs),rhsMax =  -9.21272588963867E+01  1.32180175490870E+00
(PID.TID 0000.0001)  ploadbar=  1.01063148295813E+05
 cg2d: Sum(rhs),rhsMax =  -9.20062414025208E+01  1.32313721877857E+00
(PID.TID 0000.0001)  ploadbar=  1.01064158484978E+05
 cg2d: Sum(rhs),rhsMax =  -9.17174583492517E+01  1.32690049181299E+00
(PID.TID 0000.0001)  ploadbar=  1.01065168674142E+05
 cg2d: Sum(rhs),rhsMax =  -9.10873525104196E+01  1.33567344273606E+00
(PID.TID 0000.0001)  ploadbar=  1.01066178863307E+05
 cg2d: Sum(rhs),rhsMax =  -9.02952381739316E+01  1.34697954737015E+00
(PID.TID 0000.0001)  ploadbar=  1.01067189052471E+05
 cg2d: Sum(rhs),rhsMax =  -8.94830995729335E+01  1.35878643499721E+00
(PID.TID 0000.0001)  ploadbar=  1.01068199241636E+05
 cg2d: Sum(rhs),rhsMax =  -8.88292206588541E+01  1.36836228165887E+00
(PID.TID 0000.0001)  ploadbar=  1.01069209430800E+05
 cg2d: Sum(rhs),rhsMax =  -8.83033871652406E+01  1.37603519074165E+00
(PID.TID 0000.0001)  ploadbar=  1.01069242967156E+05
 cg2d: Sum(rhs),rhsMax =  -8.79684360082227E+01  1.38074607946565E+00
(PID.TID 0000.0001)  ploadbar=  1.01069276503512E+05
 cg2d: Sum(rhs),rhsMax =  -8.78359774480029E+01  1.38224496221495E+00
(PID.TID 0000.0001)  ploadbar=  1.01069310039867E+05
 cg2d: Sum(rhs),rhsMax =  -8.78918098100420E+01  1.38072934413621E+00
(PID.TID 0000.0001)  ploadbar=  1.01069343576223E+05
 cg2d: Sum(rhs),rhsMax =  -8.81300352927517E+01  1.37630482679902E+00
(PID.TID 0000.0001)  ploadbar=  1.01069377112578E+05
 cg2d: Sum(rhs),rhsMax =  -8.85085132720198E+01  1.36967254906477E+00
(PID.TID 0000.0001)  ploadbar=  1.01069410648934E+05
 cg2d: Sum(rhs),rhsMax =  -8.88341702964964E+01  1.36395362530282E+00
(PID.TID 0000.0001)  ploadbar=  1.01069012949011E+05
 cg2d: Sum(rhs),rhsMax =  -8.90122131089256E+01  1.36057227955769E+00
(PID.TID 0000.0001)  ploadbar=  1.01068615249089E+05
 cg2d: Sum(rhs),rhsMax =  -8.89119013919748E+01  1.36149481170220E+00
(PID.TID 0000.0001)  ploadbar=  1.01068217549166E+05
 cg2d: Sum(rhs),rhsMax =  -8.84418404805216E+01  1.36815412964187E+00
(PID.TID 0000.0001)  ploadbar=  1.01067819849243E+05
 cg2d: Sum(rhs),rhsMax =  -8.77578373369544E+01  1.37827232692661E+00
(PID.TID 0000.0001)  ploadbar=  1.01067422149321E+05
 cg2d: Sum(rhs),rhsMax =  -8.69754924517611E+01  1.39015159033133E+00
(PID.TID 0000.0001)  ploadbar=  1.01067024449398E+05
 cg2d: Sum(rhs),rhsMax =  -8.61618167263922E+01  1.40274932965865E+00
(PID.TID 0000.0001)  ploadbar=  1.01066709699359E+05
 cg2d: Sum(rhs),rhsMax =  -8.53357172994109E+01  1.41578332359459E+00
(PID.TID 0000.0001)  ploadbar=  1.01066394949320E+05
 cg2d: Sum(rhs),rhsMax =  -8.45179947520607E+01  1.42891761112176E+00
(PID.TID 0000.0001)  ploadbar=  1.01066080199281E+05
 cg2d: Sum(rhs),rhsMax =  -8.37132315962219E+01  1.44207137099164E+00
(PID.TID 0000.0001)  ploadbar=  1.01065765449242E+05
 cg2d: Sum(rhs),rhsMax =  -8.29077537159673E+01  1.45547925100524E+00
(PID.TID 0000.0001)  ploadbar=  1.01065450699203E+05
 cg2d: Sum(rhs),rhsMax =  -8.20745275532657E+01  1.46963554329162E+00
(PID.TID 0000.0001)  ploadbar=  1.01065135949164E+05
 cg2d: Sum(rhs),rhsMax =  -8.12211628470153E+01  1.48447598456381E+00
(PID.TID 0000.0001)  ploadbar=  1.01065133642198E+05
 cg2d: Sum(rhs),rhsMax =  -8.03376016136448E+01  1.50021670600794E+00
(PID.TID 0000.0001)  ploadbar=  1.01065131335232E+05
 cg2d: Sum(rhs),rhsMax =  -7.94150604275450E+01  1.51707194349540E+00
(PID.TID 0000.0001)  ploadbar=  1.01065129028266E+05
 cg2d: Sum(rhs),rhsMax =  -7.84584535081610E+01  1.53501000681923E+00
(PID.TID 0000.0001)  ploadbar=  1.01065126721300E+05
 cg2d: Sum(rhs),rhsMax =  -7.74792552603746E+01  1.55386348631460E+00
(PID.TID 0000.0001)  ploadbar=  1.01065124414334E+05
 cg2d: Sum(rhs),rhsMax =  -7.66170413818888E+01  1.57081477691364E+00
(PID.TID 0000.0001)  ploadbar=  1.01065122107368E+05
 cg2d: Sum(rhs),rhsMax =  -7.58273971910217E+01  1.58663109618465E+00
(PID.TID 0000.0001)  ploadbar=  1.01064591708467E+05
 cg2d: Sum(rhs),rhsMax =  -7.51308032993055E+01  1.60078822195352E+00
(PID.TID 0000.0001)  ploadbar=  1.01064061309565E+05
 cg2d: Sum(rhs),rhsMax =  -7.45440934434207E+01  1.61281973441744E+00
(PID.TID 0000.0001)  ploadbar=  1.01063530910664E+05
 cg2d: Sum(rhs),rhsMax =  -7.40791497642530E+01  1.62235773101373E+00
(PID.TID 0000.0001)  ploadbar=  1.01063000511762E+05
 cg2d: Sum(rhs),rhsMax =  -7.37360620517624E+01  1.62930117958055E+00
(PID.TID 0000.0001)  ploadbar=  1.01062470112861E+05
 cg2d: Sum(rhs),rhsMax =  -7.34967245806773E+01  1.63397813935901E+00
(PID.TID 0000.0001)  ploadbar=  1.01061939713959E+05
 cg2d: Sum(rhs),rhsMax =  -7.32165626471270E+01  1.63963447282362E+00
(PID.TID 0000.0001)  ploadbar=  1.01060458265657E+05
 cg2d: Sum(rhs),rhsMax =  -7.28212309905308E+01  1.64796507783675E+00
(PID.TID 0000.0001)  ploadbar=  1.01058976817355E+05
 cg2d: Sum(rhs),rhsMax =  -7.22985383206771E+01  1.65932812620860E+00
(PID.TID 0000.0001)  ploadbar=  1.01057495369054E+05
 cg2d: Sum(rhs),rhsMax =  -7.16711800323419E+01  1.67331605526093E+00
(PID.TID 0000.0001)  ploadbar=  1.01056013920752E+05
 cg2d: Sum(rhs),rhsMax =  -7.10374591289931E+01  1.68771580294074E+00
(PID.TID 0000.0001)  ploadbar=  1.01054532472450E+05
 cg2d: Sum(rhs),rhsMax =  -7.08761406196534E+01  1.69104247625481E+00
(PID.TID 0000.0001)  ploadbar=  1.01053051024148E+05
 cg2d: Sum(rhs),rhsMax =  -7.06914821125577E+01  1.69491865716841E+00
(PID.TID 0000.0001)  ploadbar=  1.01051121961370E+05
 cg2d: Sum(rhs),rhsMax =  -7.04822278081869E+01  1.69937819779758E+00
(PID.TID 0000.0001)  ploadbar=  1.01049192898592E+05
 cg2d: Sum(rhs),rhsMax =  -7.02462159648051E+01  1.70448025770654E+00
(PID.TID 0000.0001)  ploadbar=  1.01047263835813E+05
 cg2d: Sum(rhs),rhsMax =  -6.99836010955095E+01  1.71022994480357E+00
(PID.TID 0000.0001)  ploadbar=  1.01045334773035E+05
 cg2d: Sum(rhs),rhsMax =  -6.96935578653841E+01  1.71665712357169E+00
(PID.TID 0000.0001)  ploadbar=  1.01043405710257E+05
 cg2d: Sum(rhs),rhsMax =  -6.93800271109255E+01  1.72367959916439E+00
(PID.TID 0000.0001)  ploadbar=  1.01041476647479E+05
 cg2d: Sum(rhs),rhsMax =  -6.90539176410683E+01  1.73107773159233E+00
(PID.TID 0000.0001)  ploadbar=  1.01038593197918E+05
 cg2d: Sum(rhs),rhsMax =  -6.87301940422426E+01  1.73847537797787E+00
(PID.TID 0000.0001)  ploadbar=  1.01035709748358E+05
 cg2d: Sum(rhs),rhsMax =  -6.84173346042352E+01  1.74565311027190E+00
(PID.TID 0000.0001)  ploadbar=  1.01032826298798E+05
 cg2d: Sum(rhs),rhsMax =  -6.81224392730805E+01  1.75241672276593E+00
(PID.TID 0000.0001)  ploadbar=  1.01029942849238E+05
 cg2d: Sum(rhs),rhsMax =  -6.78488038165031E+01  1.75866431535912E+00
(PID.TID 0000.0001)  ploadbar=  1.01027059399677E+05
 cg2d: Sum(rhs),rhsMax =  -6.75992459690726E+01  1.76430766340122E+00
(PID.TID 0000.0001)  ploadbar=  1.01024175950117E+05
 cg2d: Sum(rhs),rhsMax =  -6.73533852172515E+01  1.76989516931026E+00
(PID.TID 0000.0001)  ploadbar=  1.01022304886696E+05
 cg2d: Sum(rhs),rhsMax =  -6.70963156946289E+01  1.77581774402646E+00
(PID.TID 0000.0001)  ploadbar=  1.01020433823275E+05
 cg2d: Sum(rhs),rhsMax =  -6.68185411116215E+01  1.78233264270279E+00
(PID.TID 0000.0001)  ploadbar=  1.01018562759854E+05
 cg2d: Sum(rhs),rhsMax =  -6.65890593420066E+01  1.78759530049968E+00
(PID.TID 0000.0001)  ploadbar=  1.01016691696434E+05
 cg2d: Sum(rhs),rhsMax =  -6.63033267748757E+01  1.79440116488567E+00
(PID.TID 0000.0001)  ploadbar=  1.01014820633013E+05
 cg2d: Sum(rhs),rhsMax =  -6.60042331711896E+01  1.80161336263353E+00
(PID.TID 0000.0001)  ploadbar=  1.01012949569592E+05
 cg2d: Sum(rhs),rhsMax =  -6.56232223945264E+01  1.81120384369268E+00
(PID.TID 0000.0001)  ploadbar=  1.01012149004527E+05
 cg2d: Sum(rhs),rhsMax =  -6.51394195259031E+01  1.82382869881597E+00
(PID.TID 0000.0001)  ploadbar=  1.01011348439463E+05
 cg2d: Sum(rhs),rhsMax =  -6.46174052325268E+01  1.83776694661654E+00
(PID.TID 0000.0001)  ploadbar=  1.01010547874398E+05
 cg2d: Sum(rhs),rhsMax =  -6.42547148801254E+01  1.84737238613603E+00
(PID.TID 0000.0001)  ploadbar=  1.01009747309334E+05
 cg2d: Sum(rhs),rhsMax =  -6.38816519871941E+01  1.85741824296843E+00
(PID.TID 0000.0001)  ploadbar=  1.01008946744269E+05
 cg2d: Sum(rhs),rhsMax =  -6.35000491704461E+01  1.86786152396926E+00
(PID.TID 0000.0001)  ploadbar=  1.01008146179205E+05
 cg2d: Sum(rhs),rhsMax =  -6.31199938943163E+01  1.87838936661426E+00
(PID.TID 0000.0001)  ploadbar=  1.01007017803217E+05
 cg2d: Sum(rhs),rhsMax =  -6.27504158486687E+01  1.88872709046265E+00
(PID.TID 0000.0001)  ploadbar=  1.01005889427228E+05
 cg2d: Sum(rhs),rhsMax =  -6.24023401028658E+01  1.89852378215279E+00
(PID.TID 0000.0001)  ploadbar=  1.01004761051240E+05
 cg2d: Sum(rhs),rhsMax =  -6.20745507478440E+01  1.90778938811401E+00
(PID.TID 0000.0001)  ploadbar=  1.01003632675252E+05
 cg2d: Sum(rhs),rhsMax =  -6.17608887124823E+01  1.91669388604584E+00
(PID.TID 0000.0001)  ploadbar=  1.01002504299264E+05
 cg2d: Sum(rhs),rhsMax =  -6.14667332755130E+01  1.92505184970461E+00
(PID.TID 0000.0001)  ploadbar=  1.01001375923276E+05
 cg2d: Sum(rhs),rhsMax =  -6.12148110667386E+01  1.93216439464245E+00
(PID.TID 0000.0001)  ploadbar=  1.01000018794054E+05
 cg2d: Sum(rhs),rhsMax =  -6.10118151155117E+01  1.93778092439760E+00
(PID.TID 0000.0001)  ploadbar=  1.00998661664831E+05
 cg2d: Sum(rhs),rhsMax =  -6.08791931215994E+01  1.94118755273114E+00
(PID.TID 0000.0001)  ploadbar=  1.00997304535609E+05
 cg2d: Sum(rhs),rhsMax =  -6.08216877998696E+01  1.94220670642971E+00
(PID.TID 0000.0001)  ploadbar=  1.00995947406387E+05
 cg2d: Sum(rhs),rhsMax =  -6.08344465893137E+01  1.94097668844612E+00
(PID.TID 0000.0001)  ploadbar=  1.00994590277165E+05
 cg2d: Sum(rhs),rhsMax =  -6.09099631163025E+01  1.93773716025579E+00
(PID.TID 0000.0001)  ploadbar=  1.00993233147942E+05
 cg2d: Sum(rhs),rhsMax =  -6.09979942649909E+01  1.93410418389530E+00
(PID.TID 0000.0001)  ploadbar=  1.00993337934992E+05
 cg2d: Sum(rhs),rhsMax =  -6.10721954117021E+01  1.93090559861975E+00
(PID.TID 0000.0001)  ploadbar=  1.00993442722041E+05
 cg2d: Sum(rhs),rhsMax =  -6.11091529671850E+01  1.92887252990875E+00
(PID.TID 0000.0001)  ploadbar=  1.00993547509091E+05
 cg2d: Sum(rhs),rhsMax =  -6.11199922732801E+01  1.92763997485337E+00
(PID.TID 0000.0001)  ploadbar=  1.00993652296141E+05
 cg2d: Sum(rhs),rhsMax =  -6.11005922310247E+01  1.92733048303001E+00
(PID.TID 0000.0001)  ploadbar=  1.00993757083190E+05
 cg2d: Sum(rhs),rhsMax =  -6.10411886185933E+01  1.92824748694972E+00
(PID.TID 0000.0001)  ploadbar=  1.00993861870240E+05
 cg2d: Sum(rhs),rhsMax =  -6.09158041295629E+01  1.93131561190477E+00
(PID.TID 0000.0001)  ploadbar=  1.00994479700521E+05
 cg2d: Sum(rhs),rhsMax =  -6.09361012373088E+01  1.92982471246197E+00
(PID.TID 0000.0001)  ploadbar=  1.00995097530803E+05
 cg2d: Sum(rhs),rhsMax =  -6.10640534564727E+01  1.92498387870127E+00
(PID.TID 0000.0001)  ploadbar=  1.00995715361085E+05
 cg2d: Sum(rhs),rhsMax =  -6.12804834047215E+01  1.91743362163427E+00
(PID.TID 0000.0001)  ploadbar=  1.00996333191366E+05
 cg2d: Sum(rhs),rhsMax =  -6.15852587030092E+01  1.90723839356629E+00
(PID.TID 0000.0001)  ploadbar=  1.00996951021648E+05
 cg2d: Sum(rhs),rhsMax =  -6.19671092789178E+01  1.89482271869961E+00
(PID.TID 0000.0001)  ploadbar=  1.00997568851930E+05
 cg2d: Sum(rhs),rhsMax =  -6.24401490576737E+01  1.87981053891261E+00
(PID.TID 0000.0001)  ploadbar=  1.00998598852733E+05
 cg2d: Sum(rhs),rhsMax =  -6.29929262928647E+01  1.86266015059714E+00
(PID.TID 0000.0001)  ploadbar=  1.00999628853536E+05
 cg2d: Sum(rhs),rhsMax =  -6.36129857880559E+01  1.84384934216458E+00
(PID.TID 0000.0001)  ploadbar=  1.01000658854339E+05
 cg2d: Sum(rhs),rhsMax =  -6.42916715121699E+01  1.82372775360982E+00
(PID.TID 0000.0001)  ploadbar=  1.01001688855142E+05
 cg2d: Sum(rhs),rhsMax =  -6.50267132764548E+01  1.80244709454441E+00
(PID.TID 0000.0001)  ploadbar=  1.01002718855945E+05
 cg2d: Sum(rhs),rhsMax =  -6.58253300427238E+01  1.77990152778118E+00
(PID.TID 0000.0001)  ploadbar=  1.01003748856749E+05
 cg2d: Sum(rhs),rhsMax =  -6.66820350721081E+01  1.75639190003256E+00
(PID.TID 0000.0001)  ploadbar=  1.01003476315386E+05
 cg2d: Sum(rhs),rhsMax =  -6.76144387236916E+01  1.73156119147699E+00
(PID.TID 0000.0001)  ploadbar=  1.01003203774023E+05
 cg2d: Sum(rhs),rhsMax =  -6.86360249511134E+01  1.70520732590473E+00
(PID.TID 0000.0001)  ploadbar=  1.01002931232660E+05
 cg2d: Sum(rhs),rhsMax =  -6.97591996764447E+01  1.67719784119976E+00
(PID.TID 0000.0001)  ploadbar=  1.01002658691297E+05
 cg2d: Sum(rhs),rhsMax =  -7.09916424425021E+01  1.64755166816601E+00
(PID.TID 0000.0001)  ploadbar=  1.01002386149934E+05
 cg2d: Sum(rhs),rhsMax =  -7.23336632005656E+01  1.61647198853619E+00
(PID.TID 0000.0001)  ploadbar=  1.01002113608571E+05
 cg2d: Sum(rhs),rhsMax =  -7.37232080090836E+01  1.58546868947128E+00
(PID.TID 0000.0001)  ploadbar=  1.01002858278813E+05
 cg2d: Sum(rhs),rhsMax =  -7.51416029720748E+01  1.55497995745373E+00
(PID.TID 0000.0001)  ploadbar=  1.01003602949055E+05
 cg2d: Sum(rhs),rhsMax =  -7.65711949078658E+01  1.52536041428702E+00
(PID.TID 0000.0001)  ploadbar=  1.01004347619297E+05
 cg2d: Sum(rhs),rhsMax =  -7.80010421575898E+01  1.49678015137014E+00
(PID.TID 0000.0001)  ploadbar=  1.01005092289538E+05
 cg2d: Sum(rhs),rhsMax =  -7.94289504169379E+01  1.46921971844189E+00
(PID.TID 0000.0001)  ploadbar=  1.01005836959780E+05
 cg2d: Sum(rhs),rhsMax =  -8.08931341367579E+01  1.44193824366977E+00
(PID.TID 0000.0001)  ploadbar=  1.01006581630022E+05
 cg2d: Sum(rhs),rhsMax =  -8.23320934946773E+01  1.41611206682570E+00
(PID.TID 0000.0001)  ploadbar=  1.01006901708736E+05
 cg2d: Sum(rhs),rhsMax =  -8.25973323397272E+01  1.41099079127670E+00
(PID.TID 0000.0001)  ploadbar=  1.01007221787451E+05
 cg2d: Sum(rhs),rhsMax =  -8.20080707670505E+01  1.42059852465912E+00
(PID.TID 0000.0001)  ploadbar=  1.01007541866165E+05
 cg2d: Sum(rhs),rhsMax =  -8.13090355289855E+01  1.43232224397949E+00
(PID.TID 0000.0001)  ploadbar=  1.01007861944879E+05
 cg2d: Sum(rhs),rhsMax =  -8.06192238360950E+01  1.44412824351424E+00
(PID.TID 0000.0001)  ploadbar=  1.01008182023594E+05
 cg2d: Sum(rhs),rhsMax =  -7.93939773889154E+01  1.46600239043517E+00
(PID.TID 0000.0001)  ploadbar=  1.01008502102308E+05
 cg2d: Sum(rhs),rhsMax =  -7.76875063247237E+01  1.49778246931949E+00
(PID.TID 0000.0001)  ploadbar=  1.01009225040694E+05
 cg2d: Sum(rhs),rhsMax =  -7.61638962009262E+01  1.52730790049539E+00
(PID.TID 0000.0001)  ploadbar=  1.01009947979081E+05
 cg2d: Sum(rhs),rhsMax =  -7.48231452494649E+01  1.55422030425335E+00
(PID.TID 0000.0001)  ploadbar=  1.01010670917467E+05
 cg2d: Sum(rhs),rhsMax =  -7.36608196533008E+01  1.57826617469871E+00
(PID.TID 0000.0001)  ploadbar=  1.01011393855853E+05
 cg2d: Sum(rhs),rhsMax =  -7.26640898309503E+01  1.59940681387715E+00
(PID.TID 0000.0001)  ploadbar=  1.01012116794240E+05
 cg2d: Sum(rhs),rhsMax =  -7.18155886765017E+01  1.61776158240837E+00
(PID.TID 0000.0001)  ploadbar=  1.01012839732626E+05
 cg2d: Sum(rhs),rhsMax =  -7.09593276608571E+01  1.63677239701773E+00
(PID.TID 0000.0001)  ploadbar=  1.01013356025030E+05
 cg2d: Sum(rhs),rhsMax =  -7.00808552070193E+01  1.65680868973276E+00
(PID.TID 0000.0001)  ploadbar=  1.01013872317434E+05
 cg2d: Sum(rhs),rhsMax =  -6.91945142980196E+01  1.67757903116367E+00
(PID.TID 0000.0001)  ploadbar=  1.01014388609838E+05
 cg2d: Sum(rhs),rhsMax =  -6.83358857343706E+01  1.69823359406912E+00
(PID.TID 0000.0001)  ploadbar=  1.01014904902242E+05
 cg2d: Sum(rhs),rhsMax =  -6.75276487007116E+01  1.71816158346002E+00
(PID.TID 0000.0001)  ploadbar=  1.01015421194646E+05
 cg2d: Sum(rhs),rhsMax =  -6.67494512986206E+01  1.73781496106733E+00
(PID.TID 0000.0001)  ploadbar=  1.01015937487050E+05
 cg2d: Sum(rhs),rhsMax =  -6.60291660192703E+01  1.75633554553975E+00
(PID.TID 0000.0001)  ploadbar=  1.01016084950134E+05
 cg2d: Sum(rhs),rhsMax =  -6.51872385467681E+01  1.77851708848363E+00
(PID.TID 0000.0001)  ploadbar=  1.01016232413218E+05
 cg2d: Sum(rhs),rhsMax =  -6.39719954818736E+01  1.81172562752386E+00
(PID.TID 0000.0001)  ploadbar=  1.01016379876301E+05
 cg2d: Sum(rhs),rhsMax =  -6.23144644005212E+01  1.85925240525517E+00
(PID.TID 0000.0001)  ploadbar=  1.01016527339385E+05
 cg2d: Sum(rhs),rhsMax =  -6.04038976175924E+01  1.91729374767632E+00
(PID.TID 0000.0001)  ploadbar=  1.01016674802469E+05
 cg2d: Sum(rhs),rhsMax =  -5.83185804016928E+01  1.98496956947780E+00
(PID.TID 0000.0001)  ploadbar=  1.01016822265552E+05
 cg2d: Sum(rhs),rhsMax =  -5.64093828958295E+01  2.05129741880929E+00
(PID.TID 0000.0001)  ploadbar=  1.01016306178668E+05
 cg2d: Sum(rhs),rhsMax =  -5.47322329543515E+01  2.11332605746166E+00
(PID.TID 0000.0001)  ploadbar=  1.01015790091784E+05
 cg2d: Sum(rhs),rhsMax =  -5.33338774581188E+01  2.16793189350256E+00
(PID.TID 0000.0001)  ploadbar=  1.01015274004900E+05
 cg2d: Sum(rhs),rhsMax =  -5.21301300428767E+01  2.21721296289591E+00
(PID.TID 0000.0001)  ploadbar=  1.01014757918016E+05
 cg2d: Sum(rhs),rhsMax =  -5.10848620514138E+01  2.26182080200747E+00
(PID.TID 0000.0001)  ploadbar=  1.01014241831132E+05
 cg2d: Sum(rhs),rhsMax =  -5.01552217945472E+01  2.30299899884762E+00
(PID.TID 0000.0001)  ploadbar=  1.01013725744248E+05
 cg2d: Sum(rhs),rhsMax =  -4.92816343412752E+01  2.34305572360407E+00
(PID.TID 0000.0001)  ploadbar=  1.01013399963812E+05
 cg2d: Sum(rhs),rhsMax =  -4.83741457436496E+01  2.38620867422899E+00
(PID.TID 0000.0001)  ploadbar=  1.01013074183375E+05
 cg2d: Sum(rhs),rhsMax =  -4.74656303292286E+01  2.43103541554308E+00
(PID.TID 0000.0001)  ploadbar=  1.01012748402939E+05
 cg2d: Sum(rhs),rhsMax =  -4.65279554488946E+01  2.47912680777611E+00
(PID.TID 0000.0001)  ploadbar=  1.01012422622503E+05
 cg2d: Sum(rhs),rhsMax =  -4.57078387242912E+01  2.52264455890749E+00
(PID.TID 0000.0001)  ploadbar=  1.01012096842067E+05
 cg2d: Sum(rhs),rhsMax =  -4.46921236053046E+01  2.57893398259683E+00
(PID.TID 0000.0001)  ploadbar=  1.01011771061631E+05
 cg2d: Sum(rhs),rhsMax =  -4.34637857157371E+01  2.65080217370272E+00
(PID.TID 0000.0001)  ploadbar=  1.01011712036117E+05
 cg2d: Sum(rhs),rhsMax =  -4.26794361666702E+01  2.69853447529914E+00
(PID.TID 0000.0001)  ploadbar=  1.01011653010603E+05
 cg2d: Sum(rhs),rhsMax =  -4.18017136302260E+01  2.75424293108351E+00
(PID.TID 0000.0001)  ploadbar=  1.01011593985089E+05
 cg2d: Sum(rhs),rhsMax =  -4.08931510451106E+01  2.81450975821042E+00
(PID.TID 0000.0001)  ploadbar=  1.01011534959575E+05
 cg2d: Sum(rhs),rhsMax =  -3.98575364891702E+01  2.88672962820606E+00
(PID.TID 0000.0001)  ploadbar=  1.01011475934061E+05
 cg2d: Sum(rhs),rhsMax =  -3.87406201393686E+01  2.96905652932442E+00
(PID.TID 0000.0001)  ploadbar=  1.01011416908547E+05
 cg2d: Sum(rhs),rhsMax =  -3.77027140312846E+01  3.04983824885486E+00
(PID.TID 0000.0001)  ploadbar=  1.01010561734914E+05
 cg2d: Sum(rhs),rhsMax =  -3.67804430131915E+01  3.12529473971152E+00
(PID.TID 0000.0001)  ploadbar=  1.01009706561282E+05
 cg2d: Sum(rhs),rhsMax =  -3.60349480807984E+01  3.18885923784127E+00
(PID.TID 0000.0001)  ploadbar=  1.01008851387650E+05
 cg2d: Sum(rhs),rhsMax =  -3.59369546905570E+01  3.19639726523583E+00
(PID.TID 0000.0001)  ploadbar=  1.01007996214017E+05
 cg2d: Sum(rhs),rhsMax =  -3.62387754211221E+01  3.16855505654569E+00
(PID.TID 0000.0001)  ploadbar=  1.01007141040385E+05
 cg2d: Sum(rhs),rhsMax =  -3.68797536917899E+01  3.11221218316738E+00
(PID.TID 0000.0001)  ploadbar=  1.01006285866753E+05
 cg2d: Sum(rhs),rhsMax =  -3.76926052743989E+01  3.04397711852020E+00
(PID.TID 0000.0001)  ploadbar=  1.01005967279588E+05
 cg2d: Sum(rhs),rhsMax =  -3.83441182041288E+01  2.99126876611025E+00
(PID.TID 0000.0001)  ploadbar=  1.01005648692423E+05
 cg2d: Sum(rhs),rhsMax =  -3.86213933007276E+01  2.96891426981814E+00
(PID.TID 0000.0001)  ploadbar=  1.01005330105258E+05
 cg2d: Sum(rhs),rhsMax =  -3.84782372404136E+01  2.97917158525031E+00
(PID.TID 0000.0001)  ploadbar=  1.01005011518093E+05
 cg2d: Sum(rhs),rhsMax =  -3.79796759154190E+01  3.01756779066807E+00
(PID.TID 0000.0001)  ploadbar=  1.01004692930928E+05
 cg2d: Sum(rhs),rhsMax =  -3.72244927808469E+01  3.07814456531742E+00
(PID.TID 0000.0001)  ploadbar=  1.01004374343763E+05
 cg2d: Sum(rhs),rhsMax =  -3.63873729554154E+01  3.14822589614652E+00
(PID.TID 0000.0001)  ploadbar=  1.01004343837530E+05
 cg2d: Sum(rhs),rhsMax =  -3.55900649864214E+01  3.21791964383255E+00
(PID.TID 0000.0001)  ploadbar=  1.01004313331297E+05
 cg2d: Sum(rhs),rhsMax =  -3.49710812946525E+01  3.27393481072806E+00
(PID.TID 0000.0001)  ploadbar=  1.01004282825064E+05
 cg2d: Sum(rhs),rhsMax =  -3.46500386209753E+01  3.30321680165090E+00
(PID.TID 0000.0001)  ploadbar=  1.01004252318831E+05
 cg2d: Sum(rhs),rhsMax =  -3.45766729435723E+01  3.30905886195592E+00
(PID.TID 0000.0001)  ploadbar=  1.01004221812598E+05
 cg2d: Sum(rhs),rhsMax =  -3.46738122273079E+01  3.29851495796916E+00
(PID.TID 0000.0001)  ploadbar=  1.01004191306365E+05
 cg2d: Sum(rhs),rhsMax =  -3.48906995130072E+01  3.27681804779690E+00
(PID.TID 0000.0001)  ploadbar=  1.01005551507471E+05
 cg2d: Sum(rhs),rhsMax =  -3.53826005255882E+01  3.23015037468986E+00
(PID.TID 0000.0001)  ploadbar=  1.01006911708578E+05
 cg2d: Sum(rhs),rhsMax =  -3.62246936267338E+01  3.15403194866624E+00
(PID.TID 0000.0001)  ploadbar=  1.01008271909685E+05
 cg2d: Sum(rhs),rhsMax =  -3.72929999604745E+01  3.06273573652910E+00
(PID.TID 0000.0001)  ploadbar=  1.01009632110791E+05
 cg2d: Sum(rhs),rhsMax =  -3.83558770691672E+01  2.97699236978170E+00
(PID.TID 0000.0001)  ploadbar=  1.01010992311898E+05
 cg2d: Sum(rhs),rhsMax =  -3.94550990060468E+01  2.89324703477112E+00
(PID.TID 0000.0001)  ploadbar=  1.01012352513005E+05
 cg2d: Sum(rhs),rhsMax =  -3.97800171229639E+01  2.86879986522370E+00
(PID.TID 0000.0001)  ploadbar=  1.01012593443208E+05
 cg2d: Sum(rhs),rhsMax =  -4.04326651453843E+01  2.82166562646773E+00
(PID.TID 0000.0001)  ploadbar=  1.01012834373411E+05
 cg2d: Sum(rhs),rhsMax =  -4.12690886199299E+01  2.76363693440757E+00
(PID.TID 0000.0001)  ploadbar=  1.01013075303615E+05
 cg2d: Sum(rhs),rhsMax =  -4.20119011481281E+01  2.71391435545946E+00
(PID.TID 0000.0001)  ploadbar=  1.01013316233818E+05
 cg2d: Sum(rhs),rhsMax =  -4.26261908422262E+01  2.67391592020719E+00
(PID.TID 0000.0001)  ploadbar=  1.01013557164021E+05
 cg2d: Sum(rhs),rhsMax =  -4.31186086895968E+01  2.64245975604799E+00
(PID.TID 0000.0001)  ploadbar=  1.01013798094224E+05
 cg2d: Sum(rhs),rhsMax =  -4.34709655481457E+01  2.62017606790539E+00
(PID.TID 0000.0001)  ploadbar=  1.01016350008917E+05
 cg2d: Sum(rhs),rhsMax =  -4.37040752205216E+01  2.60537949242846E+00
(PID.TID 0000.0001)  ploadbar=  1.01018901923610E+05
 cg2d: Sum(rhs),rhsMax =  -4.39304205937473E+01  2.59117271639179E+00
(PID.TID 0000.0001)  ploadbar=  1.01021453838303E+05
 cg2d: Sum(rhs),rhsMax =  -4.42145206127673E+01  2.57377724633729E+00
(PID.TID 0000.0001)  ploadbar=  1.01024005752995E+05
 cg2d: Sum(rhs),rhsMax =  -4.48816573965239E+01  2.53481379874720E+00
(PID.TID 0000.0001)  ploadbar=  1.01026557667688E+05
 cg2d: Sum(rhs),rhsMax =  -4.58190769994080E+01  2.48229031805262E+00
(PID.TID 0000.0001)  ploadbar=  1.01029109582381E+05
 cg2d: Sum(rhs),rhsMax =  -4.69352373300481E+01  2.42264469024319E+00
(PID.TID 0000.0001)  ploadbar=  1.01031451268125E+05
 cg2d: Sum(rhs),rhsMax =  -4.52795631768181E+01  2.51062083216467E+00
(PID.TID 0000.0001)  ploadbar=  1.01033792953870E+05
 cg2d: Sum(rhs),rhsMax =  -4.34466519998115E+01  2.61592175458379E+00
(PID.TID 0000.0001)  ploadbar=  1.01036134639614E+05
 cg2d: Sum(rhs),rhsMax =  -4.18492857096640E+01  2.71514182902162E+00
(PID.TID 0000.0001)  ploadbar=  1.01038476325359E+05
 cg2d: Sum(rhs),rhsMax =  -4.04052937740226E+01  2.81152343548764E+00
(PID.TID 0000.0001)  ploadbar=  1.01040818011103E+05
 cg2d: Sum(rhs),rhsMax =  -3.91055961363930E+01  2.90428447395126E+00
(PID.TID 0000.0001)  ploadbar=  1.01043159696848E+05
 cg2d: Sum(rhs),rhsMax =  -3.79481394465474E+01  2.99219653337797E+00
(PID.TID 0000.0001)  ploadbar=  1.01045521240953E+05
 cg2d: Sum(rhs),rhsMax =  -3.69486464771547E+01  3.07247657228319E+00
(PID.TID 0000.0001)  ploadbar=  1.01047882785058E+05
 cg2d: Sum(rhs),rhsMax =  -3.61089094297161E+01  3.14327560095065E+00
(PID.TID 0000.0001)  ploadbar=  1.01050244329163E+05
 cg2d: Sum(rhs),rhsMax =  -3.54277941642488E+01  3.20305921166961E+00
(PID.TID 0000.0001)  ploadbar=  1.01052605873268E+05
 cg2d: Sum(rhs),rhsMax =  -3.48666492401483E+01  3.25396318113625E+00
(PID.TID 0000.0001)  ploadbar=  1.01054967417373E+05
 cg2d: Sum(rhs),rhsMax =  -3.44313455774440E+01  3.29445232003000E+00
(PID.TID 0000.0001)  ploadbar=  1.01057328961479E+05
 cg2d: Sum(rhs),rhsMax =  -3.41532107999192E+01  3.32057128891854E+00
(PID.TID 0000.0001)  ploadbar=  1.01058414463418E+05
 cg2d: Sum(rhs),rhsMax =  -3.39748258170684E+01  3.33722404915425E+00
(PID.TID 0000.0001)  ploadbar=  1.01059499965356E+05
 cg2d: Sum(rhs),rhsMax =  -3.38902581615098E+01  3.34469390016361E+00
(PID.TID 0000.0001)  ploadbar=  1.01060585467295E+05
 cg2d: Sum(rhs),rhsMax =  -3.38825559588230E+01  3.34451467199844E+00
(PID.TID 0000.0001)  ploadbar=  1.01061670969234E+05
 cg2d: Sum(rhs),rhsMax =  -3.39314063802525E+01  3.33866750869619E+00
(PID.TID 0000.0001)  ploadbar=  1.01062756471173E+05
 cg2d: Sum(rhs),rhsMax =  -3.40206574854938E+01  3.32877206971452E+00
(PID.TID 0000.0001)  ploadbar=  1.01063841973112E+05
 cg2d: Sum(rhs),rhsMax =  -3.41439917165992E+01  3.31570148873771E+00
(PID.TID 0000.0001)  ploadbar=  1.01063451579496E+05
 cg2d: Sum(rhs),rhsMax =  -3.42949168586847E+01  3.30014557290486E+00
(PID.TID 0000.0001)  ploadbar=  1.01063061185880E+05
 cg2d: Sum(rhs),rhsMax =  -3.44785010058995E+01  3.28168554574192E+00
(PID.TID 0000.0001)  ploadbar=  1.01062670792263E+05
 cg2d: Sum(rhs),rhsMax =  -3.46992383500950E+01  3.25998574116398E+00
(PID.TID 0000.0001)  ploadbar=  1.01062280398647E+05
 cg2d: Sum(rhs),rhsMax =  -3.49604520516093E+01  3.23486309525119E+00
(PID.TID 0000.0001)  ploadbar=  1.01061890005031E+05
 cg2d: Sum(rhs),rhsMax =  -3.52658952999740E+01  3.20613454242219E+00
(PID.TID 0000.0001)  ploadbar=  1.01061499611414E+05
 cg2d: Sum(rhs),rhsMax =  -3.55964680255975E+01  3.17561711326974E+00
(PID.TID 0000.0001)  ploadbar=  1.01061195176100E+05
 cg2d: Sum(rhs),rhsMax =  -3.59510839277214E+01  3.14350811365197E+00
(PID.TID 0000.0001)  ploadbar=  1.01060890740785E+05
 cg2d: Sum(rhs),rhsMax =  -3.63271707111965E+01  3.11013202972200E+00
(PID.TID 0000.0001)  ploadbar=  1.01060586305470E+05
 cg2d: Sum(rhs),rhsMax =  -3.67198048339647E+01  3.07599582974130E+00
(PID.TID 0000.0001)  ploadbar=  1.01060281870155E+05
 cg2d: Sum(rhs),rhsMax =  -3.71269949667470E+01  3.04131872434460E+00
(PID.TID 0000.0001)  ploadbar=  1.01059977434840E+05
 cg2d: Sum(rhs),rhsMax =  -3.75484465485572E+01  3.00617161295362E+00
(PID.TID 0000.0001)  ploadbar=  1.01059672999526E+05
 cg2d: Sum(rhs),rhsMax =  -3.79651555083834E+01  2.97223039619845E+00
(PID.TID 0000.0001)  ploadbar=  1.01059262190127E+05
 cg2d: Sum(rhs),rhsMax =  -3.83905949341503E+01  2.93840649412000E+00
(PID.TID 0000.0001)  ploadbar=  1.01058851380729E+05
 cg2d: Sum(rhs),rhsMax =  -3.88224525274693E+01  2.90488792775869E+00
(PID.TID 0000.0001)  ploadbar=  1.01058440571330E+05
 cg2d: Sum(rhs),rhsMax =  -3.92564371979482E+01  2.87198950533932E+00
(PID.TID 0000.0001)  ploadbar=  1.01058029761932E+05
 cg2d: Sum(rhs),rhsMax =  -3.96884017256368E+01  2.83998152187225E+00
(PID.TID 0000.0001)  ploadbar=  1.01057618952533E+05
 cg2d: Sum(rhs),rhsMax =  -4.01136837956853E+01  2.80914395126612E+00
(PID.TID 0000.0001)  ploadbar=  1.01057208143135E+05
 cg2d: Sum(rhs),rhsMax =  -4.05353768412160E+01  2.77917214228668E+00
(PID.TID 0000.0001)  ploadbar=  1.01057744515797E+05
 cg2d: Sum(rhs),rhsMax =  -4.09653789288200E+01  2.74922261430212E+00
(PID.TID 0000.0001)  ploadbar=  1.01058280888458E+05
 cg2d: Sum(rhs),rhsMax =  -4.14155584423966E+01  2.71852784104891E+00
(PID.TID 0000.0001)  ploadbar=  1.01058817261120E+05
 cg2d: Sum(rhs),rhsMax =  -4.18911845739176E+01  2.68681189487500E+00
(PID.TID 0000.0001)  ploadbar=  1.01059353633782E+05
 cg2d: Sum(rhs),rhsMax =  -4.23938114530166E+01  2.65405989333520E+00
(PID.TID 0000.0001)  ploadbar=  1.01059890006444E+05
 cg2d: Sum(rhs),rhsMax =  -4.29202989643913E+01  2.62055125859225E+00
(PID.TID 0000.0001)  ploadbar=  1.01060426379105E+05
 cg2d: Sum(rhs),rhsMax =  -4.34465805245631E+01  2.58793256200569E+00
(PID.TID 0000.0001)  ploadbar=  1.01060609737929E+05
 cg2d: Sum(rhs),rhsMax =  -4.39591909298682E+01  2.55695097534592E+00
(PID.TID 0000.0001)  ploadbar=  1.01060793096753E+05
 cg2d: Sum(rhs),rhsMax =  -4.44469486488174E+01  2.52815270607277E+00
(PID.TID 0000.0001)  ploadbar=  1.01060976455577E+05
 cg2d: Sum(rhs),rhsMax =  -4.49056723900057E+01  2.50164247443852E+00
(PID.TID 0000.0001)  ploadbar=  1.01061159814401E+05
 cg2d: Sum(rhs),rhsMax =  -4.53376009527925E+01  2.47717124788895E+00
(PID.TID 0000.0001)  ploadbar=  1.01061343173225E+05
 cg2d: Sum(rhs),rhsMax =  -4.57464035894494E+01  2.45443322117222E+00
(PID.TID 0000.0001)  ploadbar=  1.01061526532049E+05
 cg2d: Sum(rhs),rhsMax =  -4.61479060082198E+01  2.43247994898084E+00
(PID.TID 0000.0001)  ploadbar=  1.01060913040665E+05
 cg2d: Sum(rhs),rhsMax =  -4.65428782337463E+01  2.41123222296152E+00
(PID.TID 0000.0001)  ploadbar=  1.01060299549280E+05
 cg2d: Sum(rhs),rhsMax =  -4.69406863027451E+01  2.39018019137602E+00
(PID.TID 0000.0001)  ploadbar=  1.01059686057896E+05
 cg2d: Sum(rhs),rhsMax =  -4.73432996537044E+01  2.36921490617597E+00
(PID.TID 0000.0001)  ploadbar=  1.01059072566512E+05
 cg2d: Sum(rhs),rhsMax =  -4.77506830788129E+01  2.34833213874869E+00
(PID.TID 0000.0001)  ploadbar=  1.01058459075128E+05
 cg2d: Sum(rhs),rhsMax =  -4.81612791239926E+01  2.32760330785228E+00
(PID.TID 0000.0001)  ploadbar=  1.01057845583744E+05
 cg2d: Sum(rhs),rhsMax =  -4.85651892295656E+01  2.30759721633760E+00
(PID.TID 0000.0001)  ploadbar=  1.01057382400916E+05
 cg2d: Sum(rhs),rhsMax =  -4.89727425108413E+01  2.28780027671422E+00
(PID.TID 0000.0001)  ploadbar=  1.01056919218087E+05
 cg2d: Sum(rhs),rhsMax =  -4.93566849780706E+01  2.26946361735822E+00
(PID.TID 0000.0001)  ploadbar=  1.01056456035258E+05
 cg2d: Sum(rhs),rhsMax =  -4.95753982389308E+01  2.25895701202513E+00
(PID.TID 0000.0001)  ploadbar=  1.01055992852430E+05
 cg2d: Sum(rhs),rhsMax =  -4.95873191035020E+01  2.25795633735108E+00
(PID.TID 0000.0001)  ploadbar=  1.01055529669601E+05
 cg2d: Sum(rhs),rhsMax =  -4.96035744848073E+01  2.25678895793882E+00
(PID.TID 0000.0001)  ploadbar=  1.01055066486772E+05
 cg2d: Sum(rhs),rhsMax =  -4.96229808567568E+01  2.25547694402289E+00
(PID.TID 0000.0001)  ploadbar=  1.01054246324216E+05
 cg2d: Sum(rhs),rhsMax =  -4.96432093323030E+01  2.25411764719087E+00
(PID.TID 0000.0001)  ploadbar=  1.01053426161659E+05
 cg2d: Sum(rhs),rhsMax =  -4.96608391767563E+01  2.25286133788477E+00
(PID.TID 0000.0001)  ploadbar=  1.01052605999103E+05
 cg2d: Sum(rhs),rhsMax =  -4.96758151643198E+01  2.25170691166666E+00
(PID.TID 0000.0001)  ploadbar=  1.01051785836546E+05
 cg2d: Sum(rhs),rhsMax =  -4.96883498009892E+01  2.25063901451794E+00
(PID.TID 0000.0001)  ploadbar=  1.01050965673990E+05
 cg2d: Sum(rhs),rhsMax =  -4.96987191524736E+01  2.24964004773361E+00
(PID.TID 0000.0001)  ploadbar=  1.01050145511433E+05
 cg2d: Sum(rhs),rhsMax =  -4.97009403927316E+01  2.24903905387132E+00
(PID.TID 0000.0001)  ploadbar=  1.01048355450267E+05
 cg2d: Sum(rhs),rhsMax =  -4.97041716216941E+01  2.24842041690898E+00
(PID.TID 0000.0001)  ploadbar=  1.01046565389101E+05
 cg2d: Sum(rhs),rhsMax =  -4.97072911821341E+01  2.24783231374796E+00
(PID.TID 0000.0001)  ploadbar=  1.01044775327935E+05
 cg2d: Sum(rhs),rhsMax =  -4.97097105057462E+01  2.24729753572680E+00
(PID.TID 0000.0001)  ploadbar=  1.01042985266769E+05
 cg2d: Sum(rhs),rhsMax =  -4.97107356204233E+01  2.24684171320424E+00
(PID.TID 0000.0001)  ploadbar=  1.01041195205604E+05
 cg2d: Sum(rhs),rhsMax =  -4.97150007034573E+01  2.24625134586357E+00
(PID.TID 0000.0001)  ploadbar=  1.01039405144438E+05
 cg2d: Sum(rhs),rhsMax =  -4.97095188129752E+01  2.24607697951425E+00
(PID.TID 0000.0001)  ploadbar=  1.01037768616506E+05
 cg2d: Sum(rhs),rhsMax =  -4.96903530788632E+01  2.24649225099189E+00
(PID.TID 0000.0001)  ploadbar=  1.01036132088575E+05
 cg2d: Sum(rhs),rhsMax =  -4.96635060136956E+01  2.24722155434845E+00
(PID.TID 0000.0001)  ploadbar=  1.01034495560643E+05
 cg2d: Sum(rhs),rhsMax =  -4.96293850541369E+01  2.24824302093426E+00
(PID.TID 0000.0001)  ploadbar=  1.01032859032712E+05
 cg2d: Sum(rhs),rhsMax =  -4.95882469138880E+01  2.24954012508700E+00
(PID.TID 0000.0001)  ploadbar=  1.01031222504781E+05
 cg2d: Sum(rhs),rhsMax =  -4.95410305267756E+01  2.25106389309321E+00
(PID.TID 0000.0001)  ploadbar=  1.01029585976849E+05
 cg2d: Sum(rhs),rhsMax =  -4.94893841391256E+01  2.25283935981075E+00
(PID.TID 0000.0001)  ploadbar=  1.01028903624495E+05
 cg2d: Sum(rhs),rhsMax =  -4.94317771258942E+01  2.25493274694986E+00
(PID.TID 0000.0001)  ploadbar=  1.01028221272140E+05
 cg2d: Sum(rhs),rhsMax =  -4.93736959470251E+01  2.25709674502245E+00
(PID.TID 0000.0001)  ploadbar=  1.01027538919786E+05
 cg2d: Sum(rhs),rhsMax =  -4.93178056427994E+01  2.25920417345922E+00
(PID.TID 0000.0001)  ploadbar=  1.01026856567431E+05
 cg2d: Sum(rhs),rhsMax =  -4.92647412786042E+01  2.26122118685475E+00
(PID.TID 0000.0001)  ploadbar=  1.01026174215077E+05
 cg2d: Sum(rhs),rhsMax =  -4.92150216617688E+01  2.26311860533712E+00
(PID.TID 0000.0001)  ploadbar=  1.01025491862722E+05
 cg2d: Sum(rhs),rhsMax =  -4.91698279239794E+01  2.26478585566378E+00
(PID.TID 0000.0001)  ploadbar=  1.01025047937463E+05
 cg2d: Sum(rhs),rhsMax =  -4.91294974970437E+01  2.26620012126043E+00
(PID.TID 0000.0001)  ploadbar=  1.01024604012204E+05
 cg2d: Sum(rhs),rhsMax =  -4.90982038870718E+01  2.26716257792661E+00
(PID.TID 0000.0001)  ploadbar=  1.01024160086945E+05
 cg2d: Sum(rhs),rhsMax =  -4.90774817577368E+01  2.26759831750655E+00
(PID.TID 0000.0001)  ploadbar=  1.01023716161686E+05
 cg2d: Sum(rhs),rhsMax =  -4.90680525873287E+01  2.26747181265702E+00
(PID.TID 0000.0001)  ploadbar=  1.01023272236427E+05
 cg2d: Sum(rhs),rhsMax =  -4.90708742760769E+01  2.26673137455838E+00
(PID.TID 0000.0001)  ploadbar=  1.01022828311168E+05
 cg2d: Sum(rhs),rhsMax =  -4.90929208861735E+01  2.26512854210848E+00
(PID.TID 0000.0001)  ploadbar=  1.01023412649126E+05
 cg2d: Sum(rhs),rhsMax =  -4.91297768854241E+01  2.26286631137473E+00
(PID.TID 0000.0001)  ploadbar=  1.01023996987084E+05
 cg2d: Sum(rhs),rhsMax =  -4.91789061076827E+01  2.26005981097239E+00
(PID.TID 0000.0001)  ploadbar=  1.01024581325043E+05
 cg2d: Sum(rhs),rhsMax =  -4.92387064748247E+01  2.25677922838048E+00
(PID.TID 0000.0001)  ploadbar=  1.01025165663001E+05
 cg2d: Sum(rhs),rhsMax =  -4.93074003176421E+01  2.25309943045623E+00
(PID.TID 0000.0001)  ploadbar=  1.01025750000959E+05
 cg2d: Sum(rhs),rhsMax =  -4.93829754125512E+01  2.24910772287502E+00
(PID.TID 0000.0001)  ploadbar=  1.01026334338918E+05
 cg2d: Sum(rhs),rhsMax =  -4.94693916624070E+01  2.24462652668489E+00
(PID.TID 0000.0001)  ploadbar=  1.01026465902956E+05
 cg2d: Sum(rhs),rhsMax =  -4.95650961063025E+01  2.23972553219715E+00
(PID.TID 0000.0001)  ploadbar=  1.01026597466995E+05
 cg2d: Sum(rhs),rhsMax =  -4.96683350481496E+01  2.23448271737872E+00
(PID.TID 0000.0001)  ploadbar=  1.01026729031034E+05
 cg2d: Sum(rhs),rhsMax =  -4.97759501033704E+01  2.22903975548282E+00
(PID.TID 0000.0001)  ploadbar=  1.01026860595073E+05
 cg2d: Sum(rhs),rhsMax =  -4.98860392427365E+01  2.22347871047934E+00
(PID.TID 0000.0001)  ploadbar=  1.01026992159112E+05
 cg2d: Sum(rhs),rhsMax =  -4.99961071589403E+01  2.21790734437574E+00
(PID.TID 0000.0001)  ploadbar=  1.01027123723151E+05
 cg2d: Sum(rhs),rhsMax =  -5.01081240978583E+01  2.21228541644216E+00
(PID.TID 0000.0001)  ploadbar=  1.01026758008447E+05
 cg2d: Sum(rhs),rhsMax =  -5.02168366178483E+01  2.20683788125942E+00
(PID.TID 0000.0001)  ploadbar=  1.01026392293742E+05
 cg2d: Sum(rhs),rhsMax =  -5.03205280761399E+01  2.20163178151932E+00
(PID.TID 0000.0001)  ploadbar=  1.01026026579038E+05
 cg2d: Sum(rhs),rhsMax =  -5.04163665919671E+01  2.19678124990334E+00
(PID.TID 0000.0001)  ploadbar=  1.01025660864334E+05
 cg2d: Sum(rhs),rhsMax =  -5.05041195714541E+01  2.19228126834229E+00
(PID.TID 0000.0001)  ploadbar=  1.01025295149629E+05
 cg2d: Sum(rhs),rhsMax =  -5.05842065079739E+01  2.18810358644994E+00
(PID.TID 0000.0001)  ploadbar=  1.01024929434925E+05
 cg2d: Sum(rhs),rhsMax =  -5.06594607768972E+01  2.18417557728011E+00
(PID.TID 0000.0001)  ploadbar=  1.01024534132106E+05
 cg2d: Sum(rhs),rhsMax =  -5.07349917538789E+01  2.18027053223936E+00
(PID.TID 0000.0001)  ploadbar=  1.01024138829286E+05
 cg2d: Sum(rhs),rhsMax =  -5.08070575252508E+01  2.17654356421271E+00
(PID.TID 0000.0001)  ploadbar=  1.01023743526467E+05
 cg2d: Sum(rhs),rhsMax =  -5.08750335451249E+01  2.17300982248953E+00
(PID.TID 0000.0001)  ploadbar=  1.01023348223647E+05
 cg2d: Sum(rhs),rhsMax =  -5.09418969163249E+01  2.16953413026976E+00
(PID.TID 0000.0001)  ploadbar=  1.01022952920828E+05
 cg2d: Sum(rhs),rhsMax =  -5.10144748197145E+01  2.16581878876335E+00
(PID.TID 0000.0001)  ploadbar=  1.01022557618008E+05
 cg2d: Sum(rhs),rhsMax =  -5.11107117538869E+01  2.16116209463142E+00
(PID.TID 0000.0001)  ploadbar=  1.01023299677392E+05
 cg2d: Sum(rhs),rhsMax =  -5.12417489811591E+01  2.15510290161869E+00
(PID.TID 0000.0001)  ploadbar=  1.01024041736776E+05
 cg2d: Sum(rhs),rhsMax =  -5.14086705323188E+01  2.14761384297191E+00
(PID.TID 0000.0001)  ploadbar=  1.01024783796161E+05
 cg2d: Sum(rhs),rhsMax =  -5.16109281848852E+01  2.13874113134590E+00
(PID.TID 0000.0001)  ploadbar=  1.01025525855545E+05
 cg2d: Sum(rhs),rhsMax =  -5.18481552384439E+01  2.12852650508814E+00
(PID.TID 0000.0001)  ploadbar=  1.01026267914929E+05
 cg2d: Sum(rhs),rhsMax =  -5.21219456969865E+01  2.11693597716681E+00
(PID.TID 0000.0001)  ploadbar=  1.01027009974313E+05
 cg2d: Sum(rhs),rhsMax =  -5.24276203386492E+01  2.10422371493525E+00
(PID.TID 0000.0001)  ploadbar=  1.01026606544881E+05
 cg2d: Sum(rhs),rhsMax =  -5.27644680895954E+01  2.09045466481801E+00
(PID.TID 0000.0001)  ploadbar=  1.01026203115448E+05
 cg2d: Sum(rhs),rhsMax =  -5.31144487788084E+01  2.07637308783813E+00
(PID.TID 0000.0001)  ploadbar=  1.01025799686016E+05
 cg2d: Sum(rhs),rhsMax =  -5.34709790366342E+01  2.06224145349670E+00
(PID.TID 0000.0001)  ploadbar=  1.01025396256584E+05
 cg2d: Sum(rhs),rhsMax =  -5.38294566212135E+01  2.04823728417575E+00
(PID.TID 0000.0001)  ploadbar=  1.01024992827152E+05
 cg2d: Sum(rhs),rhsMax =  -5.41821116504649E+01  2.03464532663697E+00
(PID.TID 0000.0001)  ploadbar=  1.01024589397720E+05
 cg2d: Sum(rhs),rhsMax =  -5.44937454276698E+01  2.02274188342238E+00
(PID.TID 0000.0001)  ploadbar=  1.01023975649582E+05
 cg2d: Sum(rhs),rhsMax =  -5.47646351042337E+01  2.01246548322092E+00
(PID.TID 0000.0001)  ploadbar=  1.01023361901445E+05
 cg2d: Sum(rhs),rhsMax =  -5.49796445752723E+01  2.00431669794192E+00
(PID.TID 0000.0001)  ploadbar=  1.01022748153308E+05
 cg2d: Sum(rhs),rhsMax =  -5.51418390918802E+01  1.99813181642618E+00
(PID.TID 0000.0001)  ploadbar=  1.01022134405171E+05
 cg2d: Sum(rhs),rhsMax =  -5.52636578945602E+01  1.99342238748090E+00
(PID.TID 0000.0001)  ploadbar=  1.01021520657034E+05
 cg2d: Sum(rhs),rhsMax =  -5.53599024256403E+01  1.98962984283667E+00
(PID.TID 0000.0001)  ploadbar=  1.01020906908897E+05
 cg2d: Sum(rhs),rhsMax =  -5.54377434686384E+01  1.98654722842875E+00
(PID.TID 0000.0001)  ploadbar=  1.01020955911927E+05
 cg2d: Sum(rhs),rhsMax =  -5.55086370186168E+01  1.98375552799515E+00
(PID.TID 0000.0001)  ploadbar=  1.01021004914958E+05
 cg2d: Sum(rhs),rhsMax =  -5.55688565591316E+01  1.98138036237690E+00
(PID.TID 0000.0001)  ploadbar=  1.01021053917988E+05
 cg2d: Sum(rhs),rhsMax =  -5.56075324867446E+01  1.97979810571404E+00
(PID.TID 0000.0001)  ploadbar=  1.01021102921018E+05
 cg2d: Sum(rhs),rhsMax =  -5.56066192641941E+01  1.97964166796337E+00
(PID.TID 0000.0001)  ploadbar=  1.01021151924048E+05
 cg2d: Sum(rhs),rhsMax =  -5.55458560416744E+01  1.98162495015558E+00
(PID.TID 0000.0001)  ploadbar=  1.01021200927078E+05
 cg2d: Sum(rhs),rhsMax =  -5.53995052226011E+01  1.98670559159031E+00
(PID.TID 0000.0001)  ploadbar=  1.01021240021388E+05
 cg2d: Sum(rhs),rhsMax =  -5.51736823253488E+01  1.99470733638382E+00
(PID.TID 0000.0001)  ploadbar=  1.01021279115698E+05
 cg2d: Sum(rhs),rhsMax =  -5.49083397053827E+01  2.00423711127137E+00
(PID.TID 0000.0001)  ploadbar=  1.01021318210009E+05
 cg2d: Sum(rhs),rhsMax =  -5.46037932392363E+01  2.01532202062077E+00
(PID.TID 0000.0001)  ploadbar=  1.01021357304319E+05
 cg2d: Sum(rhs),rhsMax =  -5.42698770178626E+01  2.02764007504730E+00
(PID.TID 0000.0001)  ploadbar=  1.01021396398629E+05
 cg2d: Sum(rhs),rhsMax =  -5.39202234427518E+01  2.04071204134660E+00
(PID.TID 0000.0001)  ploadbar=  1.01021435492939E+05
 cg2d: Sum(rhs),rhsMax =  -5.36220283921974E+01  2.05200088938236E+00
(PID.TID 0000.0001)  ploadbar=  1.01022319737040E+05
 cg2d: Sum(rhs),rhsMax =  -5.33465981753885E+01  2.06255189993716E+00
(PID.TID 0000.0001)  ploadbar=  1.01023203981140E+05
 cg2d: Sum(rhs),rhsMax =  -5.31103382103237E+01  2.07169048408026E+00
(PID.TID 0000.0001)  ploadbar=  1.01024088225240E+05
 cg2d: Sum(rhs),rhsMax =  -5.29159119101480E+01  2.07926809271832E+00
(PID.TID 0000.0001)  ploadbar=  1.01024972469341E+05
 cg2d: Sum(rhs),rhsMax =  -5.27578419791432E+01  2.08545876546631E+00
(PID.TID 0000.0001)  ploadbar=  1.01025856713441E+05
 cg2d: Sum(rhs),rhsMax =  -5.26343032726436E+01  2.09030620717047E+00
(PID.TID 0000.0001)  ploadbar=  1.01026740957541E+05
 cg2d: Sum(rhs),rhsMax =  -5.25500539456335E+01  2.09361599613654E+00
(PID.TID 0000.0001)  ploadbar=  1.01028171995960E+05
 cg2d: Sum(rhs),rhsMax =  -5.24905684875207E+01  2.09594830291714E+00
(PID.TID 0000.0001)  ploadbar=  1.01029603034379E+05
 cg2d: Sum(rhs),rhsMax =  -5.24436289788671E+01  2.09778093571852E+00
(PID.TID 0000.0001)  ploadbar=  1.01031034072798E+05
 cg2d: Sum(rhs),rhsMax =  -5.24116867693664E+01  2.09900406001197E+00
(PID.TID 0000.0001)  ploadbar=  1.01032465111217E+05
 cg2d: Sum(rhs),rhsMax =  -5.23970391265579E+01  2.09951668031276E+00
(PID.TID 0000.0001)  ploadbar=  1.01033896149636E+05
 cg2d: Sum(rhs),rhsMax =  -5.24008940078295E+01  2.09926263896162E+00
(PID.TID 0000.0001)  ploadbar=  1.01035327188055E+05
 cg2d: Sum(rhs),rhsMax =  -5.24350375193590E+01  2.09780752654625E+00
(PID.TID 0000.0001)  ploadbar=  1.01036201908655E+05
 cg2d: Sum(rhs),rhsMax =  -5.24972106007383E+01  2.09524257055099E+00
(PID.TID 0000.0001)  ploadbar=  1.01037076629255E+05
 cg2d: Sum(rhs),rhsMax =  -5.25779188525568E+01  2.09194744516641E+00
(PID.TID 0000.0001)  ploadbar=  1.01037951349855E+05
 cg2d: Sum(rhs),rhsMax =  -5.26724351863667E+01  2.08810805930934E+00
(PID.TID 0000.0001)  ploadbar=  1.01038826070455E+05
 cg2d: Sum(rhs),rhsMax =  -5.27764302039718E+01  2.08390223659141E+00
(PID.TID 0000.0001)  ploadbar=  1.01039700791055E+05
 cg2d: Sum(rhs),rhsMax =  -5.28885991594774E+01  2.07937760268242E+00
(PID.TID 0000.0001)  ploadbar=  1.01040575511655E+05
 cg2d: Sum(rhs),rhsMax =  -5.29976203860350E+01  2.07502400726835E+00
(PID.TID 0000.0001)  ploadbar=  1.01041320139312E+05
 cg2d: Sum(rhs),rhsMax =  -5.31232508004671E+01  2.07006234923321E+00
(PID.TID 0000.0001)  ploadbar=  1.01042064766970E+05
 cg2d: Sum(rhs),rhsMax =  -5.32668002485982E+01  2.06444523076319E+00
(PID.TID 0000.0001)  ploadbar=  1.01042809394628E+05
 cg2d: Sum(rhs),rhsMax =  -5.34280398608757E+01  2.05819346155584E+00
(PID.TID 0000.0001)  ploadbar=  1.01043554022286E+05
 cg2d: Sum(rhs),rhsMax =  -5.36049400913947E+01  2.05139408788674E+00
(PID.TID 0000.0001)  ploadbar=  1.01044298649944E+05
 cg2d: Sum(rhs),rhsMax =  -5.37998035324286E+01  2.04396876350314E+00
(PID.TID 0000.0001)  ploadbar=  1.01045043277601E+05
 cg2d: Sum(rhs),rhsMax =  -5.39963961688570E+01  2.03656178524874E+00
(PID.TID 0000.0001)  ploadbar=  1.01045631316328E+05
 cg2d: Sum(rhs),rhsMax =  -5.42057286064700E+01  2.02875922602351E+00
(PID.TID 0000.0001)  ploadbar=  1.01046219355054E+05
 cg2d: Sum(rhs),rhsMax =  -5.44228346835423E+01  2.02075178352231E+00
(PID.TID 0000.0001)  ploadbar=  1.01046807393781E+05
 cg2d: Sum(rhs),rhsMax =  -5.46460999634484E+01  2.01260062754859E+00
(PID.TID 0000.0001)  ploadbar=  1.01047395432507E+05
 cg2d: Sum(rhs),rhsMax =  -5.48742993100093E+01  2.00435095588127E+00
(PID.TID 0000.0001)  ploadbar=  1.01047983471233E+05
 cg2d: Sum(rhs),rhsMax =  -5.51064918335920E+01  1.99603846291798E+00
(PID.TID 0000.0001)  ploadbar=  1.01048571509960E+05
 cg2d: Sum(rhs),rhsMax =  -5.53294086194095E+01  1.98812274424881E+00
(PID.TID 0000.0001)  ploadbar=  1.01049954984982E+05
 cg2d: Sum(rhs),rhsMax =  -5.55558015968019E+01  1.98013272981842E+00
(PID.TID 0000.0001)  ploadbar=  1.01051338460005E+05
 cg2d: Sum(rhs),rhsMax =  -5.57829265662746E+01  1.97216236958780E+00
(PID.TID 0000.0001)  ploadbar=  1.01052721935027E+05
 cg2d: Sum(rhs),rhsMax =  -5.60083396821003E+01  1.96429205257178E+00
(PID.TID 0000.0001)  ploadbar=  1.01054105410050E+05
 cg2d: Sum(rhs),rhsMax =  -5.62300227068483E+01  1.95658712341878E+00
(PID.TID 0000.0001)  ploadbar=  1.01055488885072E+05
 cg2d: Sum(rhs),rhsMax =  -5.64452751058126E+01  1.94913579975463E+00
(PID.TID 0000.0001)  ploadbar=  1.01056872360094E+05
 cg2d: Sum(rhs),rhsMax =  -5.66638987883796E+01  1.94163957619277E+00
(PID.TID 0000.0001)  ploadbar=  1.01056330413372E+05
 cg2d: Sum(rhs),rhsMax =  -5.68689783773841E+01  1.93467112412661E+00
(PID.TID 0000.0001)  ploadbar=  1.01055788466649E+05
 cg2d: Sum(rhs),rhsMax =  -5.70597013359723E+01  1.92824444740296E+00
(PID.TID 0000.0001)  ploadbar=  1.01055246519926E+05
 cg2d: Sum(rhs),rhsMax =  -5.72372469782648E+01  1.92230632110106E+00
(PID.TID 0000.0001)  ploadbar=  1.01054704573203E+05
 cg2d: Sum(rhs),rhsMax =  -5.73994065298883E+01  1.91691574328547E+00
(PID.TID 0000.0001)  ploadbar=  1.01054162626481E+05
 cg2d: Sum(rhs),rhsMax =  -5.75460781747790E+01  1.91206059970181E+00
(PID.TID 0000.0001)  ploadbar=  1.01053620679758E+05
 cg2d: Sum(rhs),rhsMax =  -5.76788401221372E+01  1.90771680225117E+00
(PID.TID 0000.0001)  ploadbar=  1.01052442602887E+05
 cg2d: Sum(rhs),rhsMax =  -5.78016089878337E+01  1.90374480697903E+00
(PID.TID 0000.0001)  ploadbar=  1.01051264526016E+05
 cg2d: Sum(rhs),rhsMax =  -5.79237902594808E+01  1.89983039160457E+00
(PID.TID 0000.0001)  ploadbar=  1.01050086449145E+05
 cg2d: Sum(rhs),rhsMax =  -5.80445782083002E+01  1.89599674526655E+00
(PID.TID 0000.0001)  ploadbar=  1.01048908372274E+05
 cg2d: Sum(rhs),rhsMax =  -5.81654229110923E+01  1.89218871264344E+00
(PID.TID 0000.0001)  ploadbar=  1.01047730295403E+05
 cg2d: Sum(rhs),rhsMax =  -5.82867210565081E+01  1.88839252541415E+00
(PID.TID 0000.0001)  ploadbar=  1.01046552218532E+05
 cg2d: Sum(rhs),rhsMax =  -5.83878382931986E+01  1.88524545317906E+00
(PID.TID 0000.0001)  ploadbar=  1.01045263603393E+05
 cg2d: Sum(rhs),rhsMax =  -5.84830526025658E+01  1.88227761823002E+00
(PID.TID 0000.0001)  ploadbar=  1.01043974988254E+05
 cg2d: Sum(rhs),rhsMax =  -5.85771166908810E+01  1.87933079646091E+00
(PID.TID 0000.0001)  ploadbar=  1.01042686373115E+05
 cg2d: Sum(rhs),rhsMax =  -5.86703005273032E+01  1.87638877764264E+00
(PID.TID 0000.0001)  ploadbar=  1.01041397757977E+05
 cg2d: Sum(rhs),rhsMax =  -5.87632930350787E+01  1.87342510410652E+00
(PID.TID 0000.0001)  ploadbar=  1.01040109142838E+05
 cg2d: Sum(rhs),rhsMax =  -5.88563333996279E+01  1.87042834168710E+00
(PID.TID 0000.0001)  ploadbar=  1.01038820527699E+05
 cg2d: Sum(rhs),rhsMax =  -5.89547507846793E+01  1.86727100493213E+00
(PID.TID 0000.0001)  ploadbar=  1.01038816408192E+05
 cg2d: Sum(rhs),rhsMax =  -5.90606387510802E+01  1.86388593804696E+00
(PID.TID 0000.0001)  ploadbar=  1.01038812288685E+05
 cg2d: Sum(rhs),rhsMax =  -5.91662372089902E+01  1.86051505844208E+00
(PID.TID 0000.0001)  ploadbar=  1.01038808169178E+05
 cg2d: Sum(rhs),rhsMax =  -5.92750108435120E+01  1.85704733661170E+00
(PID.TID 0000.0001)  ploadbar=  1.01038804049671E+05
 cg2d: Sum(rhs),rhsMax =  -5.93895730182026E+01  1.85340043074271E+00
(PID.TID 0000.0001)  ploadbar=  1.01038799930164E+05
 cg2d: Sum(rhs),rhsMax =  -5.95135522242257E+01  1.84945917708738E+00
(PID.TID 0000.0001)  ploadbar=  1.01038795810657E+05
 cg2d: Sum(rhs),rhsMax =  -5.96359687704559E+01  1.84555700661949E+00
(PID.TID 0000.0001)  ploadbar=  1.01038351506348E+05
 cg2d: Sum(rhs),rhsMax =  -5.97673977859125E+01  1.84136548390399E+00
(PID.TID 0000.0001)  ploadbar=  1.01037907202038E+05
 cg2d: Sum(rhs),rhsMax =  -5.99257825267838E+01  1.83633537305004E+00
(PID.TID 0000.0001)  ploadbar=  1.01037462897729E+05
 cg2d: Sum(rhs),rhsMax =  -6.01211606195908E+01  1.83016847595234E+00
(PID.TID 0000.0001)  ploadbar=  1.01037018593419E+05
 cg2d: Sum(rhs),rhsMax =  -6.03624455958847E+01  1.82261572037993E+00
(PID.TID 0000.0001)  ploadbar=  1.01036574289110E+05
 cg2d: Sum(rhs),rhsMax =  -6.06459344543203E+01  1.81381847289629E+00
(PID.TID 0000.0001)  ploadbar=  1.01036129984801E+05
 cg2d: Sum(rhs),rhsMax =  -6.09620282870921E+01  1.80417618962686E+00
(PID.TID 0000.0001)  ploadbar=  1.01035254698044E+05
 cg2d: Sum(rhs),rhsMax =  -6.12542152179344E+01  1.79537380910398E+00
(PID.TID 0000.0001)  ploadbar=  1.01034379411288E+05
 cg2d: Sum(rhs),rhsMax =  -6.15478819277967E+01  1.78664940758398E+00
(PID.TID 0000.0001)  ploadbar=  1.01033504124531E+05
 cg2d: Sum(rhs),rhsMax =  -6.17665249569587E+01  1.78020595935474E+00
(PID.TID 0000.0001)  ploadbar=  1.01032628837775E+05
 cg2d: Sum(rhs),rhsMax =  -6.18838500822497E+01  1.77675331315613E+00
(PID.TID 0000.0001)  ploadbar=  1.01031753551018E+05
 cg2d: Sum(rhs),rhsMax =  -6.19480504033698E+01  1.77487781320990E+00
(PID.TID 0000.0001)  ploadbar=  1.01030878264262E+05
 cg2d: Sum(rhs),rhsMax =  -6.19528179689911E+01  1.77470927143386E+00
(PID.TID 0000.0001)  ploadbar=  1.01029722958956E+05
 cg2d: Sum(rhs),rhsMax =  -6.18294710562594E+01  1.77821823519479E+00
(PID.TID 0000.0001)  ploadbar=  1.01028567653649E+05
 cg2d: Sum(rhs),rhsMax =  -6.14978791097041E+01  1.78777292525515E+00
(PID.TID 0000.0001)  ploadbar=  1.01027412348343E+05
 cg2d: Sum(rhs),rhsMax =  -6.11309385447559E+01  1.79846456736564E+00
(PID.TID 0000.0001)  ploadbar=  1.01026257043037E+05
 cg2d: Sum(rhs),rhsMax =  -6.08865766322768E+01  1.80563251080379E+00
(PID.TID 0000.0001)  ploadbar=  1.01025101737730E+05
 cg2d: Sum(rhs),rhsMax =  -6.06829276305149E+01  1.81162816270239E+00
(PID.TID 0000.0001)  ploadbar=  1.01023946432424E+05
 cg2d: Sum(rhs),rhsMax =  -6.04924410759380E+01  1.81725944203972E+00
(PID.TID 0000.0001)  ploadbar=  1.01024357943090E+05
 cg2d: Sum(rhs),rhsMax =  -6.03170069097502E+01  1.82245939225548E+00
(PID.TID 0000.0001)  ploadbar=  1.01024769453755E+05
 cg2d: Sum(rhs),rhsMax =  -6.01477872156307E+01  1.82748775457473E+00
(PID.TID 0000.0001)  ploadbar=  1.01025180964421E+05
 cg2d: Sum(rhs),rhsMax =  -5.99757526397304E+01  1.83261102079426E+00
(PID.TID 0000.0001)  ploadbar=  1.01025592475086E+05
 cg2d: Sum(rhs),rhsMax =  -5.97967916382128E+01  1.83795327989346E+00
(PID.TID 0000.0001)  ploadbar=  1.01026003985752E+05
 cg2d: Sum(rhs),rhsMax =  -5.96090713940046E+01  1.84357292238992E+00
(PID.TID 0000.0001)  ploadbar=  1.01026415496417E+05
 cg2d: Sum(rhs),rhsMax =  -5.94006404880777E+01  1.84985395645815E+00
(PID.TID 0000.0001)  ploadbar=  1.01027313136430E+05
 cg2d: Sum(rhs),rhsMax =  -5.91930380691831E+01  1.85612941789297E+00
(PID.TID 0000.0001)  ploadbar=  1.01028210776443E+05
 cg2d: Sum(rhs),rhsMax =  -5.89945537137896E+01  1.86213190190328E+00
(PID.TID 0000.0001)  ploadbar=  1.01029108416456E+05
 cg2d: Sum(rhs),rhsMax =  -5.88117610496746E+01  1.86764587346869E+00
(PID.TID 0000.0001)  ploadbar=  1.01030006056469E+05
 cg2d: Sum(rhs),rhsMax =  -5.86477513887586E+01  1.87255413725866E+00
(PID.TID 0000.0001)  ploadbar=  1.01030903696482E+05
 cg2d: Sum(rhs),rhsMax =  -5.85028951738129E+01  1.87682923362139E+00
(PID.TID 0000.0001)  ploadbar=  1.01031801336495E+05
 cg2d: Sum(rhs),rhsMax =  -5.83801549726596E+01  1.88043355901150E+00
(PID.TID 0000.0001)  ploadbar=  1.01033433228360E+05
 cg2d: Sum(rhs),rhsMax =  -5.82791188581637E+01  1.88336904654752E+00
(PID.TID 0000.0001)  ploadbar=  1.01035065120224E+05
 cg2d: Sum(rhs),rhsMax =  -5.81923128013146E+01  1.88586953649766E+00
(PID.TID 0000.0001)  ploadbar=  1.01036697012089E+05
 cg2d: Sum(rhs),rhsMax =  -5.81172074495653E+01  1.88801246198624E+00
(PID.TID 0000.0001)  ploadbar=  1.01038328903954E+05
 cg2d: Sum(rhs),rhsMax =  -5.80536179476545E+01  1.88979551096288E+00
(PID.TID 0000.0001)  ploadbar=  1.01039960795819E+05
 cg2d: Sum(rhs),rhsMax =  -5.80003536967693E+01  1.89125102027676E+00
(PID.TID 0000.0001)  ploadbar=  1.01041592687684E+05
 cg2d: Sum(rhs),rhsMax =  -5.79634952623032E+01  1.89217873491067E+00
(PID.TID 0000.0001)  ploadbar=  1.01042804702434E+05
 cg2d: Sum(rhs),rhsMax =  -5.79352728495445E+01  1.89282711927770E+00
(PID.TID 0000.0001)  ploadbar=  1.01044016717184E+05
 cg2d: Sum(rhs),rhsMax =  -5.79153346152798E+01  1.89320442764280E+00
(PID.TID 0000.0001)  ploadbar=  1.01045228731935E+05
 cg2d: Sum(rhs),rhsMax =  -5.79029905912477E+01  1.89332728187045E+00
(PID.TID 0000.0001)  ploadbar=  1.01046440746685E+05
 cg2d: Sum(rhs),rhsMax =  -5.78967767689015E+01  1.89323743558191E+00
(PID.TID 0000.0001)  ploadbar=  1.01047652761435E+05
 cg2d: Sum(rhs),rhsMax =  -5.78960961258714E+01  1.89295019362350E+00
(PID.TID 0000.0001)  ploadbar=  1.01048864776185E+05
 cg2d: Sum(rhs),rhsMax =  -5.79059737710571E+01  1.89234762716718E+00
(PID.TID 0000.0001)  ploadbar=  1.01050299676914E+05
 cg2d: Sum(rhs),rhsMax =  -5.79202585820015E+01  1.89162470298168E+00
(PID.TID 0000.0001)  ploadbar=  1.01051734577643E+05
 cg2d: Sum(rhs),rhsMax =  -5.79367911565686E+01  1.89085055542067E+00
(PID.TID 0000.0001)  ploadbar=  1.01053169478371E+05
 cg2d: Sum(rhs),rhsMax =  -5.79571477873722E+01  1.88996935056410E+00
(PID.TID 0000.0001)  ploadbar=  1.01054604379100E+05
 cg2d: Sum(rhs),rhsMax =  -5.79813278847149E+01  1.88897402372606E+00
(PID.TID 0000.0001)  ploadbar=  1.01056039279828E+05
 cg2d: Sum(rhs),rhsMax =  -5.80099552855476E+01  1.88783921000887E+00
(PID.TID 0000.0001)  ploadbar=  1.01057474180557E+05
 cg2d: Sum(rhs),rhsMax =  -5.80334905396489E+01  1.88686116328698E+00
(PID.TID 0000.0001)  ploadbar=  1.01058147640260E+05
 cg2d: Sum(rhs),rhsMax =  -5.80561531553171E+01  1.88589727322557E+00
(PID.TID 0000.0001)  ploadbar=  1.01058821099964E+05
 cg2d: Sum(rhs),rhsMax =  -5.80779834322888E+01  1.88494051368406E+00
(PID.TID 0000.0001)  ploadbar=  1.01059494559668E+05
 cg2d: Sum(rhs),rhsMax =  -5.80998913701748E+01  1.88395447999876E+00
(PID.TID 0000.0001)  ploadbar=  1.01060168019371E+05
 cg2d: Sum(rhs),rhsMax =  -5.81207912451401E+01  1.88296665240584E+00
(PID.TID 0000.0001)  ploadbar=  1.01060841479075E+05
 cg2d: Sum(rhs),rhsMax =  -5.81402859211362E+01  1.88198533613828E+00
(PID.TID 0000.0001)  ploadbar=  1.01061514938778E+05
 cg2d: Sum(rhs),rhsMax =  -5.81622878530416E+01  1.88094639303419E+00
(PID.TID 0000.0001)  ploadbar=  1.01062298042271E+05
 cg2d: Sum(rhs),rhsMax =  -5.81824269976212E+01  1.87998680954641E+00
(PID.TID 0000.0001)  ploadbar=  1.01063081145763E+05
 cg2d: Sum(rhs),rhsMax =  -5.81975867825873E+01  1.87920205885518E+00
(PID.TID 0000.0001)  ploadbar=  1.01063864249255E+05
 cg2d: Sum(rhs),rhsMax =  -5.82096296642045E+01  1.87852416462531E+00
(PID.TID 0000.0001)  ploadbar=  1.01064647352748E+05
 cg2d: Sum(rhs),rhsMax =  -5.82186818568884E+01  1.87794247356495E+00
(PID.TID 0000.0001)  ploadbar=  1.01065430456240E+05
 cg2d: Sum(rhs),rhsMax =  -5.82236408485306E+01  1.87748767813721E+00
(PID.TID 0000.0001)  ploadbar=  1.01066213559732E+05
 cg2d: Sum(rhs),rhsMax =  -5.82315458035422E+01  1.87693360166028E+00
(PID.TID 0000.0001)  ploadbar=  1.01067074828687E+05
 cg2d: Sum(rhs),rhsMax =  -5.82355397232971E+01  1.87649830504473E+00
(PID.TID 0000.0001)  ploadbar=  1.01067936097642E+05
 cg2d: Sum(rhs),rhsMax =  -5.82419238493179E+01  1.87597401045913E+00
(PID.TID 0000.0001)  ploadbar=  1.01068797366597E+05
 cg2d: Sum(rhs),rhsMax =  -5.82516423040958E+01  1.87532441165689E+00
(PID.TID 0000.0001)  ploadbar=  1.01069658635551E+05
 cg2d: Sum(rhs),rhsMax =  -5.82644715492412E+01  1.87454990572007E+00
(PID.TID 0000.0001)  ploadbar=  1.01070519904506E+05
 cg2d: Sum(rhs),rhsMax =  -5.82814300471817E+01  1.87361508756298E+00
(PID.TID 0000.0001)  ploadbar=  1.01071381173461E+05
 cg2d: Sum(rhs),rhsMax =  -5.82933497259819E+01  1.87284822094755E+00
(PID.TID 0000.0001)  ploadbar=  1.01071611254124E+05
 cg2d: Sum(rhs),rhsMax =  -5.83129640500011E+01  1.87183650980506E+00
(PID.TID 0000.0001)  ploadbar=  1.01071841334787E+05
 cg2d: Sum(rhs),rhsMax =  -5.83440173200385E+01  1.87045741455539E+00
(PID.TID 0000.0001)  ploadbar=  1.01072071415450E+05
 cg2d: Sum(rhs),rhsMax =  -5.83855621023465E+01  1.86873612923595E+00
(PID.TID 0000.0001)  ploadbar=  1.01072301496113E+05
 cg2d: Sum(rhs),rhsMax =  -5.84401463176205E+01  1.86658610612108E+00
(PID.TID 0000.0001)  ploadbar=  1.01072531576776E+05
 cg2d: Sum(rhs),rhsMax =  -5.85081068423678E+01  1.86399139382699E+00
(PID.TID 0000.0001)  ploadbar=  1.01072761657439E+05
 cg2d: Sum(rhs),rhsMax =  -5.85864025514518E+01  1.86109044757774E+00
(PID.TID 0000.0001)  ploadbar=  1.01074111242271E+05
 cg2d: Sum(rhs),rhsMax =  -5.86783195604734E+01  1.85777753104982E+00
(PID.TID 0000.0001)  ploadbar=  1.01075460827104E+05
 cg2d: Sum(rhs),rhsMax =  -5.87876569710095E+01  1.85393133233124E+00
(PID.TID 0000.0001)  ploadbar=  1.01076810411936E+05
 cg2d: Sum(rhs),rhsMax =  -5.89107841477427E+01  1.84966513727656E+00
(PID.TID 0000.0001)  ploadbar=  1.01078159996768E+05
 cg2d: Sum(rhs),rhsMax =  -5.90475600037707E+01  1.84498513489715E+00
(PID.TID 0000.0001)  ploadbar=  1.01079509581600E+05
 cg2d: Sum(rhs),rhsMax =  -5.91980437893910E+01  1.83989236172670E+00
(PID.TID 0000.0001)  ploadbar=  1.01080859166432E+05
 cg2d: Sum(rhs),rhsMax =  -5.93637839297387E+01  1.83437060167505E+00
(PID.TID 0000.0001)  ploadbar=  1.01082920753139E+05
 cg2d: Sum(rhs),rhsMax =  -5.95471782526304E+01  1.82835324335909E+00
(PID.TID 0000.0001)  ploadbar=  1.01084982339845E+05
 cg2d: Sum(rhs),rhsMax =  -5.97522075843036E+01  1.82172608439679E+00
(PID.TID 0000.0001)  ploadbar=  1.01087043926552E+05
 cg2d: Sum(rhs),rhsMax =  -5.99853068015971E+01  1.81430377874882E+00
(PID.TID 0000.0001)  ploadbar=  1.01089105513259E+05
 cg2d: Sum(rhs),rhsMax =  -6.02533151490460E+01  1.80589859831238E+00
(PID.TID 0000.0001)  ploadbar=  1.01091167099965E+05
 cg2d: Sum(rhs),rhsMax =  -6.05536866685957E+01  1.79661151605734E+00
(PID.TID 0000.0001)  ploadbar=  1.01093228686672E+05
 cg2d: Sum(rhs),rhsMax =  -6.08807116834174E+01  1.78664164965739E+00
(PID.TID 0000.0001)  ploadbar=  1.01094313657841E+05
 cg2d: Sum(rhs),rhsMax =  -6.12289387353197E+01  1.77616859010207E+00
(PID.TID 0000.0001)  ploadbar=  1.01095398629011E+05
 cg2d: Sum(rhs),rhsMax =  -6.15877135913968E+01  1.76551295748705E+00
(PID.TID 0000.0001)  ploadbar=  1.01096483600180E+05
 cg2d: Sum(rhs),rhsMax =  -6.19492087702084E+01  1.75489689119668E+00
(PID.TID 0000.0001)  ploadbar=  1.01097568571349E+05
 cg2d: Sum(rhs),rhsMax =  -6.22674210973133E+01  1.74560471171524E+00
(PID.TID 0000.0001)  ploadbar=  1.01098653542519E+05
 cg2d: Sum(rhs),rhsMax =  -6.25434085379920E+01  1.73756596639096E+00
(PID.TID 0000.0001)  ploadbar=  1.01099738513688E+05
 cg2d: Sum(rhs),rhsMax =  -6.28120141401364E+01  1.72979204299851E+00
(PID.TID 0000.0001)  ploadbar=  1.01099399417284E+05
 cg2d: Sum(rhs),rhsMax =  -6.30763949424424E+01  1.72218989201543E+00
(PID.TID 0000.0001)  ploadbar=  1.01099060320881E+05
 cg2d: Sum(rhs),rhsMax =  -6.33286242893176E+01  1.71496619294658E+00
(PID.TID 0000.0001)  ploadbar=  1.01098721224477E+05
 cg2d: Sum(rhs),rhsMax =  -6.35720958926792E+01  1.70801515896306E+00
(PID.TID 0000.0001)  ploadbar=  1.01098382128074E+05
 cg2d: Sum(rhs),rhsMax =  -6.38091198355259E+01  1.70126142761406E+00
(PID.TID 0000.0001)  ploadbar=  1.01098043031670E+05
 cg2d: Sum(rhs),rhsMax =  -6.40402807561378E+01  1.69468186797603E+00
(PID.TID 0000.0001)  ploadbar=  1.01097703935266E+05
 cg2d: Sum(rhs),rhsMax =  -6.42655251525246E+01  1.68832776320779E+00
(PID.TID 0000.0001)  ploadbar=  1.01097084696041E+05
 cg2d: Sum(rhs),rhsMax =  -6.44898272688967E+01  1.68206189294206E+00
(PID.TID 0000.0001)  ploadbar=  1.01096465456815E+05
 cg2d: Sum(rhs),rhsMax =  -6.36151339850439E+01  1.70480768497241E+00
(PID.TID 0000.0001)  ploadbar=  1.01095846217589E+05
 cg2d: Sum(rhs),rhsMax =  -6.23406949033802E+01  1.73928331072553E+00
(PID.TID 0000.0001)  ploadbar=  1.01095226978363E+05
 cg2d: Sum(rhs),rhsMax =  -6.11567274543291E+01  1.77258396600167E+00
(PID.TID 0000.0001)  ploadbar=  1.01094607739137E+05
 cg2d: Sum(rhs),rhsMax =  -6.00556685447187E+01  1.80471561398610E+00
(PID.TID 0000.0001)  ploadbar=  1.01093988499912E+05
 cg2d: Sum(rhs),rhsMax =  -5.90227381992973E+01  1.83595722868042E+00
(PID.TID 0000.0001)  ploadbar=  1.01092887726821E+05
 cg2d: Sum(rhs),rhsMax =  -5.80567933425540E+01  1.86618878774796E+00
(PID.TID 0000.0001)  ploadbar=  1.01091786953730E+05
 cg2d: Sum(rhs),rhsMax =  -5.71476074990649E+01  1.89558743895362E+00
(PID.TID 0000.0001)  ploadbar=  1.01090686180639E+05
 cg2d: Sum(rhs),rhsMax =  -5.62903909787634E+01  1.92418321076146E+00
(PID.TID 0000.0001)  ploadbar=  1.01089585407548E+05
 cg2d: Sum(rhs),rhsMax =  -5.54812185794398E+01  1.95199119309360E+00
(PID.TID 0000.0001)  ploadbar=  1.01088484634457E+05
 cg2d: Sum(rhs),rhsMax =  -5.47201746396766E+01  1.97889468539703E+00
(PID.TID 0000.0001)  ploadbar=  1.01087383861366E+05
 cg2d: Sum(rhs),rhsMax =  -5.40148757159033E+01  2.00448667553820E+00
(PID.TID 0000.0001)  ploadbar=  1.01085991733769E+05
 cg2d: Sum(rhs),rhsMax =  -5.33977709731679E+01  2.02739832565590E+00
(PID.TID 0000.0001)  ploadbar=  1.01084599606173E+05
 cg2d: Sum(rhs),rhsMax =  -5.28947818071661E+01  2.04641320365051E+00
(PID.TID 0000.0001)  ploadbar=  1.01083207478577E+05
 cg2d: Sum(rhs),rhsMax =  -5.25248203702312E+01  2.06055078272833E+00
(PID.TID 0000.0001)  ploadbar=  1.01081815350980E+05
 cg2d: Sum(rhs),rhsMax =  -5.22796256630351E+01  2.06992212177592E+00
(PID.TID 0000.0001)  ploadbar=  1.01080423223384E+05
 cg2d: Sum(rhs),rhsMax =  -5.21530849387266E+01  2.07463194959331E+00
(PID.TID 0000.0001)  ploadbar=  1.01079031095787E+05
 cg2d: Sum(rhs),rhsMax =  -5.21325654926197E+01  2.07518839123186E+00
(PID.TID 0000.0001)  ploadbar=  1.01078273852598E+05
 cg2d: Sum(rhs),rhsMax =  -5.21686025953701E+01  2.07354273345963E+00
(PID.TID 0000.0001)  ploadbar=  1.01077516609409E+05
 cg2d: Sum(rhs),rhsMax =  -5.22345609839181E+01  2.07075167447971E+00
(PID.TID 0000.0001)  ploadbar=  1.01076759366220E+05
 cg2d: Sum(rhs),rhsMax =  -5.23330831631870E+01  2.06671212730271E+00
(PID.TID 0000.0001)  ploadbar=  1.01076002123031E+05
 cg2d: Sum(rhs),rhsMax =  -5.24614426118982E+01  2.06154106967017E+00
(PID.TID 0000.0001)  ploadbar=  1.01075244879842E+05
 cg2d: Sum(rhs),rhsMax =  -5.26204445696251E+01  2.05521832425480E+00
(PID.TID 0000.0001)  ploadbar=  1.01074487636653E+05
 cg2d: Sum(rhs),rhsMax =  -5.28106619391785E+01  2.04772209511013E+00
(PID.TID 0000.0001)  ploadbar=  1.01075159813561E+05
 cg2d: Sum(rhs),rhsMax =  -5.30151076132985E+01  2.03972986237486E+00
(PID.TID 0000.0001)  ploadbar=  1.01075831990469E+05
 cg2d: Sum(rhs),rhsMax =  -5.32192578778635E+01  2.03180398739164E+00
(PID.TID 0000.0001)  ploadbar=  1.01076504167376E+05
 cg2d: Sum(rhs),rhsMax =  -5.34113244878838E+01  2.02438643663630E+00
(PID.TID 0000.0001)  ploadbar=  1.01077176344284E+05
 cg2d: Sum(rhs),rhsMax =  -5.35857715520583E+01  2.01766909855999E+00
(PID.TID 0000.0001)  ploadbar=  1.01077848521192E+05
 cg2d: Sum(rhs),rhsMax =  -5.37390326519742E+01  2.01176534117340E+00
(PID.TID 0000.0001)  ploadbar=  1.01078520698099E+05
 cg2d: Sum(rhs),rhsMax =  -5.38884672583124E+01  2.00604904048519E+00
(PID.TID 0000.0001)  ploadbar=  1.01079360005564E+05
 cg2d: Sum(rhs),rhsMax =  -5.40233653875374E+01  2.00091062015607E+00
(PID.TID 0000.0001)  ploadbar=  1.01080199313028E+05
 cg2d: Sum(rhs),rhsMax =  -5.41415045075854E+01  1.99641745381549E+00
(PID.TID 0000.0001)  ploadbar=  1.01081038620492E+05
 cg2d: Sum(rhs),rhsMax =  -5.42469522536277E+01  1.99240620322171E+00
(PID.TID 0000.0001)  ploadbar=  1.01081877927956E+05
 cg2d: Sum(rhs),rhsMax =  -5.43394329223665E+01  1.98887423450778E+00
(PID.TID 0000.0001)  ploadbar=  1.01082717235421E+05
 cg2d: Sum(rhs),rhsMax =  -5.44287381671175E+01  1.98545530519469E+00
(PID.TID 0000.0001)  ploadbar=  1.01083556542885E+05
 cg2d: Sum(rhs),rhsMax =  -5.45323875511023E+01  1.98150511834076E+00
(PID.TID 0000.0001)  ploadbar=  1.01084300986885E+05
 cg2d: Sum(rhs),rhsMax =  -5.46688390076939E+01  1.97635964630766E+00
(PID.TID 0000.0001)  ploadbar=  1.01085045430886E+05
 cg2d: Sum(rhs),rhsMax =  -5.48536179855949E+01  1.96947367017147E+00
(PID.TID 0000.0001)  ploadbar=  1.01085789874886E+05
 cg2d: Sum(rhs),rhsMax =  -5.50899301062715E+01  1.96076533868610E+00
(PID.TID 0000.0001)  ploadbar=  1.01086534318887E+05
 cg2d: Sum(rhs),rhsMax =  -5.53755327015718E+01  1.95035676326180E+00
(PID.TID 0000.0001)  ploadbar=  1.01087278762887E+05
 cg2d: Sum(rhs),rhsMax =  -5.57114820837867E+01  1.93826143898901E+00
(PID.TID 0000.0001)  ploadbar=  1.01088023206888E+05
 cg2d: Sum(rhs),rhsMax =  -5.60969568148878E+01  1.92460078623202E+00
(PID.TID 0000.0001)  ploadbar=  1.01087853708233E+05
 cg2d: Sum(rhs),rhsMax =  -5.65159769843537E+01  1.90997707180620E+00
(PID.TID 0000.0001)  ploadbar=  1.01087684209579E+05
 cg2d: Sum(rhs),rhsMax =  -5.69670201786060E+01  1.89448309142663E+00
(PID.TID 0000.0001)  ploadbar=  1.01087514710925E+05
 cg2d: Sum(rhs),rhsMax =  -5.74536056529683E+01  1.87804289099207E+00
(PID.TID 0000.0001)  ploadbar=  1.01087345212271E+05
 cg2d: Sum(rhs),rhsMax =  -5.79844842814491E+01  1.86042549966620E+00
(PID.TID 0000.0001)  ploadbar=  1.01087175713616E+05
 cg2d: Sum(rhs),rhsMax =  -5.85713219492960E+01  1.84133301837502E+00
(PID.TID 0000.0001)  ploadbar=  1.01087006214962E+05
 cg2d: Sum(rhs),rhsMax =  -5.92145892764747E+01  1.82085288553485E+00
(PID.TID 0000.0001)  ploadbar=  1.01086807730523E+05
 cg2d: Sum(rhs),rhsMax =  -5.99362611353125E+01  1.79842679425632E+00
(PID.TID 0000.0001)  ploadbar=  1.01086609246083E+05
 cg2d: Sum(rhs),rhsMax =  -6.07544561341574E+01  1.77367814049402E+00
(PID.TID 0000.0001)  ploadbar=  1.01086410761644E+05
 cg2d: Sum(rhs),rhsMax =  -6.16574473347819E+01  1.74714259606888E+00
(PID.TID 0000.0001)  ploadbar=  1.01086212277205E+05
 cg2d: Sum(rhs),rhsMax =  -6.26231469868079E+01  1.71960457117796E+00
(PID.TID 0000.0001)  ploadbar=  1.01086013792765E+05
 cg2d: Sum(rhs),rhsMax =  -6.36137776448432E+01  1.69219008483251E+00
(PID.TID 0000.0001)  ploadbar=  1.01085815308326E+05
 cg2d: Sum(rhs),rhsMax =  -6.45532569836710E+01  1.66697158071466E+00
(PID.TID 0000.0001)  ploadbar=  1.01085495996548E+05
 cg2d: Sum(rhs),rhsMax =  -6.54467191403025E+01  1.64366013774376E+00
(PID.TID 0000.0001)  ploadbar=  1.01085176684769E+05
 cg2d: Sum(rhs),rhsMax =  -6.62957838847754E+01  1.62208808390508E+00
(PID.TID 0000.0001)  ploadbar=  1.01084857372990E+05
 cg2d: Sum(rhs),rhsMax =  -6.71166958493879E+01  1.60175304115369E+00
(PID.TID 0000.0001)  ploadbar=  1.01084538061212E+05
 cg2d: Sum(rhs),rhsMax =  -6.73287613740896E+01  1.59622921399741E+00
(PID.TID 0000.0001)  ploadbar=  1.01084218749433E+05
 cg2d: Sum(rhs),rhsMax =  -6.73784250655880E+01  1.59458334865760E+00
(PID.TID 0000.0001)  ploadbar=  1.01083899437655E+05
 cg2d: Sum(rhs),rhsMax =  -6.74338218198124E+01  1.59279266684599E+00
(PID.TID 0000.0001)  ploadbar=  1.01083693476190E+05
 cg2d: Sum(rhs),rhsMax =  -6.74829321363229E+01  1.59113774581932E+00
(PID.TID 0000.0001)  ploadbar=  1.01083487514725E+05
 cg2d: Sum(rhs),rhsMax =  -6.75249408171696E+01  1.58963052514257E+00
(PID.TID 0000.0001)  ploadbar=  1.01083281553260E+05
 cg2d: Sum(rhs),rhsMax =  -6.75659386121338E+01  1.58812106977487E+00
(PID.TID 0000.0001)  ploadbar=  1.01083075591795E+05
 cg2d: Sum(rhs),rhsMax =  -6.76084614388734E+01  1.58654517671011E+00
(PID.TID 0000.0001)  ploadbar=  1.01082869630330E+05
 cg2d: Sum(rhs),rhsMax =  -6.76536280041611E+01  1.58486949701829E+00
(PID.TID 0000.0001)  ploadbar=  1.01082663668866E+05
 cg2d: Sum(rhs),rhsMax =  -6.77105312964056E+01  1.58294703048340E+00
(PID.TID 0000.0001)  ploadbar=  1.01082534177788E+05
 cg2d: Sum(rhs),rhsMax =  -6.77831374509471E+01  1.58068793981771E+00
(PID.TID 0000.0001)  ploadbar=  1.01082404686711E+05
 cg2d: Sum(rhs),rhsMax =  -6.78706128476068E+01  1.57810838479273E+00
(PID.TID 0000.0001)  ploadbar=  1.01082275195634E+05
 cg2d: Sum(rhs),rhsMax =  -6.79618589364090E+01  1.57546420769449E+00
(PID.TID 0000.0001)  ploadbar=  1.01082145704557E+05
 cg2d: Sum(rhs),rhsMax =  -6.80675358184103E+01  1.57250452943375E+00
(PID.TID 0000.0001)  ploadbar=  1.01082016213480E+05
 cg2d: Sum(rhs),rhsMax =  -6.82191322329650E+01  1.56850131407409E+00
(PID.TID 0000.0001)  ploadbar=  1.01081886722403E+05
 cg2d: Sum(rhs),rhsMax =  -6.83472473265791E+01  1.56504861609998E+00
(PID.TID 0000.0001)  ploadbar=  1.01083244598755E+05
 cg2d: Sum(rhs),rhsMax =  -6.83870592122372E+01  1.56361968109177E+00
(PID.TID 0000.0001)  ploadbar=  1.01084602475106E+05
 cg2d: Sum(rhs),rhsMax =  -6.83137674613370E+01  1.56476597231970E+00
(PID.TID 0000.0001)  ploadbar=  1.01085960351457E+05
 cg2d: Sum(rhs),rhsMax =  -6.81362817367507E+01  1.56829002082772E+00
(PID.TID 0000.0001)  ploadbar=  1.01087318227809E+05
 cg2d: Sum(rhs),rhsMax =  -6.78921998378605E+01  1.57334819327737E+00
(PID.TID 0000.0001)  ploadbar=  1.01088676104160E+05
 cg2d: Sum(rhs),rhsMax =  -6.76102833302720E+01  1.57929371069103E+00
(PID.TID 0000.0001)  ploadbar=  1.01090033980512E+05
 cg2d: Sum(rhs),rhsMax =  -6.73332467374634E+01  1.58523168442303E+00
(PID.TID 0000.0001)  ploadbar=  1.01091270570684E+05
 cg2d: Sum(rhs),rhsMax =  -6.70297451538041E+01  1.59189876708807E+00
(PID.TID 0000.0001)  ploadbar=  1.01092507160856E+05
 cg2d: Sum(rhs),rhsMax =  -6.67050295967054E+01  1.59918119407565E+00
(PID.TID 0000.0001)  ploadbar=  1.01093743751029E+05
 cg2d: Sum(rhs),rhsMax =  -6.63590563358342E+01  1.60708943375777E+00
(PID.TID 0000.0001)  ploadbar=  1.01094980341201E+05
 cg2d: Sum(rhs),rhsMax =  -6.59879542000689E+01  1.61573059965204E+00
(PID.TID 0000.0001)  ploadbar=  1.01096216931373E+05
 cg2d: Sum(rhs),rhsMax =  -6.55905236163599E+01  1.62514916013661E+00
(PID.TID 0000.0001)  ploadbar=  1.01097453521545E+05
 cg2d: Sum(rhs),rhsMax =  -6.51637646646287E+01  1.63543023761654E+00
(PID.TID 0000.0001)  ploadbar=  1.01097182380303E+05
 cg2d: Sum(rhs),rhsMax =  -6.47386702289598E+01  1.64581457685818E+00
(PID.TID 0000.0001)  ploadbar=  1.01096911239060E+05
 cg2d: Sum(rhs),rhsMax =  -6.43289877694673E+01  1.65594315023371E+00
(PID.TID 0000.0001)  ploadbar=  1.01096640097817E+05
 cg2d: Sum(rhs),rhsMax =  -6.39469255458250E+01  1.66548213578802E+00
(PID.TID 0000.0001)  ploadbar=  1.01096368956574E+05
 cg2d: Sum(rhs),rhsMax =  -6.36006759643195E+01  1.67418630423838E+00
(PID.TID 0000.0001)  ploadbar=  1.01096097815331E+05
 cg2d: Sum(rhs),rhsMax =  -6.32964264867565E+01  1.68185560283792E+00
(PID.TID 0000.0001)  ploadbar=  1.01095826674088E+05
 cg2d: Sum(rhs),rhsMax =  -6.30593202798178E+01  1.68784041133117E+00
(PID.TID 0000.0001)  ploadbar=  1.01093779344615E+05
 cg2d: Sum(rhs),rhsMax =  -6.28753170088987E+01  1.69247254598038E+00
(PID.TID 0000.0001)  ploadbar=  1.01091732015141E+05
 cg2d: Sum(rhs),rhsMax =  -6.27497438066750E+01  1.69558176587704E+00
(PID.TID 0000.0001)  ploadbar=  1.01089684685668E+05
 cg2d: Sum(rhs),rhsMax =  -6.26807870074603E+01  1.69719267816819E+00
(PID.TID 0000.0001)  ploadbar=  1.01087637356194E+05
 cg2d: Sum(rhs),rhsMax =  -6.26666277613110E+01  1.69733651407983E+00
(PID.TID 0000.0001)  ploadbar=  1.01085590026720E+05
 cg2d: Sum(rhs),rhsMax =  -6.27078056664555E+01  1.69599245649891E+00
(PID.TID 0000.0001)  ploadbar=  1.01083542697247E+05
 cg2d: Sum(rhs),rhsMax =  -6.28128710011447E+01  1.69291578904410E+00
(PID.TID 0000.0001)  ploadbar=  1.01082221798952E+05
 cg2d: Sum(rhs),rhsMax =  -6.29702132837657E+01  1.68843004068442E+00
(PID.TID 0000.0001)  ploadbar=  1.01080900900658E+05
 cg2d: Sum(rhs),rhsMax =  -6.31650922255070E+01  1.68294211073781E+00
(PID.TID 0000.0001)  ploadbar=  1.01079580002363E+05
 cg2d: Sum(rhs),rhsMax =  -6.33851499637242E+01  1.67679544052031E+00
(PID.TID 0000.0001)  ploadbar=  1.01078259104068E+05
 cg2d: Sum(rhs),rhsMax =  -6.36181559220490E+01  1.67031828973718E+00
(PID.TID 0000.0001)  ploadbar=  1.01076938205774E+05
 cg2d: Sum(rhs),rhsMax =  -6.38531703269492E+01  1.66379997471436E+00
(PID.TID 0000.0001)  ploadbar=  1.01075617307479E+05
 cg2d: Sum(rhs),rhsMax =  -6.40772239895169E+01  1.65763760826212E+00
(PID.TID 0000.0001)  ploadbar=  1.01074143934982E+05
 cg2d: Sum(rhs),rhsMax =  -6.43078777183974E+01  1.65136715034571E+00
(PID.TID 0000.0001)  ploadbar=  1.01072670562484E+05
 cg2d: Sum(rhs),rhsMax =  -6.45699077457809E+01  1.64435364243398E+00
(PID.TID 0000.0001)  ploadbar=  1.01071197189987E+05
 cg2d: Sum(rhs),rhsMax =  -6.48677508536007E+01  1.63650095633600E+00
(PID.TID 0000.0001)  ploadbar=  1.01069723817489E+05
 cg2d: Sum(rhs),rhsMax =  -6.52027740518119E+01  1.62779335047730E+00
(PID.TID 0000.0001)  ploadbar=  1.01068250444991E+05
 cg2d: Sum(rhs),rhsMax =  -6.55811068391574E+01  1.61810251755866E+00
(PID.TID 0000.0001)  ploadbar=  1.01066777072494E+05
 cg2d: Sum(rhs),rhsMax =  -6.59859228208735E+01  1.60789172126245E+00
(PID.TID 0000.0001)  ploadbar=  1.01065735262939E+05
 cg2d: Sum(rhs),rhsMax =  -6.64398236808848E+01  1.59663447363556E+00
(PID.TID 0000.0001)  ploadbar=  1.01064693453383E+05
 cg2d: Sum(rhs),rhsMax =  -6.69113573535722E+01  1.58511715836815E+00
(PID.TID 0000.0001)  ploadbar=  1.01063651643828E+05
 cg2d: Sum(rhs),rhsMax =  -6.74050044025853E+01  1.57324529836080E+00
(PID.TID 0000.0001)  ploadbar=  1.01062609834273E+05
 cg2d: Sum(rhs),rhsMax =  -6.79207957623399E+01  1.56103397469811E+00
(PID.TID 0000.0001)  ploadbar=  1.01061568024718E+05
 cg2d: Sum(rhs),rhsMax =  -6.84553487061402E+01  1.54857521972358E+00
(PID.TID 0000.0001)  ploadbar=  1.01060526215163E+05
 cg2d: Sum(rhs),rhsMax =  -6.89640754012593E+01  1.53688061101060E+00
(PID.TID 0000.0001)  ploadbar=  1.01058557142878E+05
 cg2d: Sum(rhs),rhsMax =  -6.94827252022807E+01  1.52513265766499E+00
(PID.TID 0000.0001)  ploadbar=  1.01056588070593E+05
 cg2d: Sum(rhs),rhsMax =  -7.00411819657920E+01  1.51268942101043E+00
(PID.TID 0000.0001)  ploadbar=  1.01054618998309E+05
 cg2d: Sum(rhs),rhsMax =  -7.06531452971117E+01  1.49928955314378E+00
(PID.TID 0000.0001)  ploadbar=  1.01052649926024E+05
 cg2d: Sum(rhs),rhsMax =  -7.13125850348293E+01  1.48510691026385E+00
(PID.TID 0000.0001)  ploadbar=  1.01050680853740E+05
 cg2d: Sum(rhs),rhsMax =  -7.19865982729577E+01  1.47085896017096E+00
(PID.TID 0000.0001)  ploadbar=  1.01048711781455E+05
 cg2d: Sum(rhs),rhsMax =  -7.26901395681218E+01  1.45625401904819E+00
(PID.TID 0000.0001)  ploadbar=  1.01046485147899E+05
 cg2d: Sum(rhs),rhsMax =  -7.35161397259561E+01  1.43949794173470E+00
(PID.TID 0000.0001)  ploadbar=  1.01044258514342E+05
 cg2d: Sum(rhs),rhsMax =  -7.45303984910890E+01  1.41948836553051E+00
(PID.TID 0000.0001)  ploadbar=  1.01042031880786E+05
 cg2d: Sum(rhs),rhsMax =  -7.57762618729919E+01  1.39570232097651E+00
(PID.TID 0000.0001)  ploadbar=  1.01039805247230E+05
 cg2d: Sum(rhs),rhsMax =  -7.72176834629728E+01  1.36917256376981E+00
(PID.TID 0000.0001)  ploadbar=  1.01037578613673E+05
 cg2d: Sum(rhs),rhsMax =  -7.86313783452596E+01  1.34404931820009E+00
(PID.TID 0000.0001)  ploadbar=  1.01035351980117E+05
 cg2d: Sum(rhs),rhsMax =  -7.99141694950291E+01  1.32201059440727E+00
(PID.TID 0000.0001)  ploadbar=  1.01034186179004E+05
 cg2d: Sum(rhs),rhsMax =  -8.12377074398887E+01  1.30004767651704E+00
(PID.TID 0000.0001)  ploadbar=  1.01033020377891E+05
 cg2d: Sum(rhs),rhsMax =  -8.25794608682304E+01  1.27853632746823E+00
(PID.TID 0000.0001)  ploadbar=  1.01031854576778E+05
 cg2d: Sum(rhs),rhsMax =  -8.24270461538131E+01  1.28053683722985E+00
(PID.TID 0000.0001)  ploadbar=  1.01030688775665E+05
 cg2d: Sum(rhs),rhsMax =  -8.22690179736532E+01  1.28265404097554E+00
(PID.TID 0000.0001)  ploadbar=  1.01029522974552E+05
 cg2d: Sum(rhs),rhsMax =  -8.20327383511879E+01  1.28602500721682E+00
(PID.TID 0000.0001)  ploadbar=  1.01028357173439E+05
 cg2d: Sum(rhs),rhsMax =  -8.22688236743720E+01  1.28202513191247E+00
(PID.TID 0000.0001)  ploadbar=  1.01027275732797E+05
 cg2d: Sum(rhs),rhsMax =  -8.19720854568780E+01  1.28636491506425E+00
(PID.TID 0000.0001)  ploadbar=  1.01026194292156E+05
 cg2d: Sum(rhs),rhsMax =  -8.15677785849860E+01  1.29244277173336E+00
(PID.TID 0000.0001)  ploadbar=  1.01025112851514E+05
 cg2d: Sum(rhs),rhsMax =  -8.10861876120622E+01  1.29982030110483E+00
(PID.TID 0000.0001)  ploadbar=  1.01024031410873E+05
 cg2d: Sum(rhs),rhsMax =  -8.05323817816859E+01  1.30845817720397E+00
(PID.TID 0000.0001)  ploadbar=  1.01022949970231E+05
 cg2d: Sum(rhs),rhsMax =  -7.99523722615340E+01  1.31764511085813E+00
(PID.TID 0000.0001)  ploadbar=  1.01021868529590E+05
 cg2d: Sum(rhs),rhsMax =  -7.95447287564826E+01  1.32410088887538E+00
(PID.TID 0000.0001)  ploadbar=  1.01019493177638E+05
 cg2d: Sum(rhs),rhsMax =  -7.91558651861063E+01  1.33031477879929E+00
(PID.TID 0000.0001)  ploadbar=  1.01017117825685E+05
 cg2d: Sum(rhs),rhsMax =  -7.88071608143566E+01  1.33591206034498E+00
(PID.TID 0000.0001)  ploadbar=  1.01014742473733E+05
 cg2d: Sum(rhs),rhsMax =  -7.85082861211022E+01  1.34070507930944E+00
(PID.TID 0000.0001)  ploadbar=  1.01012367121780E+05
 cg2d: Sum(rhs),rhsMax =  -7.82584250946082E+01  1.34468476242259E+00
(PID.TID 0000.0001)  ploadbar=  1.01009991769828E+05
 cg2d: Sum(rhs),rhsMax =  -7.80577308758298E+01  1.34783028110807E+00
(PID.TID 0000.0001)  ploadbar=  1.01007616417876E+05
 cg2d: Sum(rhs),rhsMax =  -7.79353667227349E+01  1.34960063901593E+00
(PID.TID 0000.0001)  ploadbar=  1.01006686297017E+05
 cg2d: Sum(rhs),rhsMax =  -7.77811017625644E+01  1.35189697247504E+00
(PID.TID 0000.0001)  ploadbar=  1.01005756176158E+05
 cg2d: Sum(rhs),rhsMax =  -7.75482063242798E+01  1.35553932284982E+00
(PID.TID 0000.0001)  ploadbar=  1.01004826055300E+05
 cg2d: Sum(rhs),rhsMax =  -7.72769245805774E+01  1.35983692325170E+00
(PID.TID 0000.0001)  ploadbar=  1.01003895934441E+05
 cg2d: Sum(rhs),rhsMax =  -7.69925846851478E+01  1.36435013987347E+00
(PID.TID 0000.0001)  ploadbar=  1.01002965813583E+05
 cg2d: Sum(rhs),rhsMax =  -7.67052697600122E+01  1.36890109600545E+00
(PID.TID 0000.0001)  ploadbar=  1.01002035692724E+05
 cg2d: Sum(rhs),rhsMax =  -7.64680389861082E+01  1.37264227436762E+00
(PID.TID 0000.0001)  ploadbar=  1.01002088671689E+05
 cg2d: Sum(rhs),rhsMax =  -7.62746255621490E+01  1.37567197695659E+00
(PID.TID 0000.0001)  ploadbar=  1.01002141650654E+05
 cg2d: Sum(rhs),rhsMax =  -7.60711941928662E+01  1.37895106656350E+00
(PID.TID 0000.0001)  ploadbar=  1.01002194629619E+05
 cg2d: Sum(rhs),rhsMax =  -7.58742148492531E+01  1.38217546537267E+00
(PID.TID 0000.0001)  ploadbar=  1.01002247608584E+05
 cg2d: Sum(rhs),rhsMax =  -7.56819537030051E+01  1.38537062320655E+00
(PID.TID 0000.0001)  ploadbar=  1.01002300587549E+05
 cg2d: Sum(rhs),rhsMax =  -7.54686305848265E+01  1.38900850813096E+00
(PID.TID 0000.0001)  ploadbar=  1.01002353566514E+05
 cg2d: Sum(rhs),rhsMax =  -7.52551916951007E+01  1.39268075067352E+00
(PID.TID 0000.0001)  ploadbar=  1.01002084293769E+05
 cg2d: Sum(rhs),rhsMax =  -7.50567085069178E+01  1.39610668194064E+00
(PID.TID 0000.0001)  ploadbar=  1.01001815021024E+05
 cg2d: Sum(rhs),rhsMax =  -7.48223266814922E+01  1.40023052840895E+00
(PID.TID 0000.0001)  ploadbar=  1.01001545748279E+05
 cg2d: Sum(rhs),rhsMax =  -7.49492149740256E+01  1.39761691551687E+00
(PID.TID 0000.0001)  ploadbar=  1.01001276475534E+05
 cg2d: Sum(rhs),rhsMax =  -6.98709857876784E+01  1.49893810590604E+00
(PID.TID 0000.0001)  ploadbar=  1.01001007202789E+05
 cg2d: Sum(rhs),rhsMax =  -6.18781224525042E+01  1.69226676391971E+00
(PID.TID 0000.0001)  ploadbar=  1.01000737930044E+05
 cg2d: Sum(rhs),rhsMax =  -5.45385260082540E+01  1.91968188786171E+00
(PID.TID 0000.0001)  ploadbar=  1.01000696353111E+05
 cg2d: Sum(rhs),rhsMax =  -4.94894135419024E+01  2.11518132354283E+00
(PID.TID 0000.0001)  ploadbar=  1.01000654776179E+05
 cg2d: Sum(rhs),rhsMax =  -4.57224433590031E+01  2.28905910159778E+00
(PID.TID 0000.0001)  ploadbar=  1.01000613199246E+05
 cg2d: Sum(rhs),rhsMax =  -4.26135038527282E+01  2.45563227198314E+00
(PID.TID 0000.0001)  ploadbar=  1.01000571622314E+05
 cg2d: Sum(rhs),rhsMax =  -3.97337252420876E+01  2.63312586259727E+00
(PID.TID 0000.0001)  ploadbar=  1.01000530045381E+05
 cg2d: Sum(rhs),rhsMax =  -3.76330582296684E+01  2.77956484624354E+00
(PID.TID 0000.0001)  ploadbar=  1.01000488468449E+05
 cg2d: Sum(rhs),rhsMax =  -3.62595798857361E+01  2.88425259747662E+00
(PID.TID 0000.0001)  ploadbar=  1.01000887906104E+05
 cg2d: Sum(rhs),rhsMax =  -3.52658689172338E+01  2.96486741163850E+00
(PID.TID 0000.0001)  ploadbar=  1.01001287343759E+05
 cg2d: Sum(rhs),rhsMax =  -3.47025850140528E+01  3.01228005634016E+00
(PID.TID 0000.0001)  ploadbar=  1.01001686781415E+05
 cg2d: Sum(rhs),rhsMax =  -3.45225626928106E+01  3.02722120623353E+00
(PID.TID 0000.0001)  ploadbar=  1.01002086219070E+05
 cg2d: Sum(rhs),rhsMax =  -3.46637657754112E+01  3.01407298975662E+00
(PID.TID 0000.0001)  ploadbar=  1.01002485656725E+05
 cg2d: Sum(rhs),rhsMax =  -3.51331702463690E+01  2.97293875233614E+00
(PID.TID 0000.0001)  ploadbar=  1.01002885094381E+05
 cg2d: Sum(rhs),rhsMax =  -3.58997501135208E+01  2.90869274770337E+00
(PID.TID 0000.0001)  ploadbar=  1.01002356310882E+05
 cg2d: Sum(rhs),rhsMax =  -3.69284302250494E+01  2.82699735213082E+00
(PID.TID 0000.0001)  ploadbar=  1.01001827527384E+05
 cg2d: Sum(rhs),rhsMax =  -3.81476119336758E+01  2.73606371172795E+00
(PID.TID 0000.0001)  ploadbar=  1.01001298743885E+05
 cg2d: Sum(rhs),rhsMax =  -3.96854329314907E+01  2.62953499140973E+00
(PID.TID 0000.0001)  ploadbar=  1.01000769960387E+05
 cg2d: Sum(rhs),rhsMax =  -4.14755869481725E+01  2.51559965274571E+00
(PID.TID 0000.0001)  ploadbar=  1.01000241176888E+05
 cg2d: Sum(rhs),rhsMax =  -4.33898173031685E+01  2.40423140549593E+00
(PID.TID 0000.0001)  ploadbar=  1.00999712393390E+05
 cg2d: Sum(rhs),rhsMax =  -4.53371782817660E+01  2.30061160567866E+00
(PID.TID 0000.0001)  ploadbar=  1.01000629195126E+05
 cg2d: Sum(rhs),rhsMax =  -4.72806944525098E+01  2.20572007116609E+00
(PID.TID 0000.0001)  ploadbar=  1.01001545996862E+05
 cg2d: Sum(rhs),rhsMax =  -4.91981893151616E+01  2.11945207895354E+00
(PID.TID 0000.0001)  ploadbar=  1.01002462798598E+05
 cg2d: Sum(rhs),rhsMax =  -5.11818440643199E+01  2.03702467226867E+00
(PID.TID 0000.0001)  ploadbar=  1.01003379600334E+05
 cg2d: Sum(rhs),rhsMax =  -4.86335881675269E+01  2.14345952948108E+00
(PID.TID 0000.0001)  ploadbar=  1.01004296402071E+05
 cg2d: Sum(rhs),rhsMax =  -4.57793871683447E+01  2.27677216589665E+00
(PID.TID 0000.0001)  ploadbar=  1.01005213203807E+05
 cg2d: Sum(rhs),rhsMax =  -4.35638176261921E+01  2.39221368024646E+00
(PID.TID 0000.0001)  ploadbar=  1.01005952425574E+05
 cg2d: Sum(rhs),rhsMax =  -4.18100112392240E+01  2.49217437025028E+00
(PID.TID 0000.0001)  ploadbar=  1.01006691647341E+05
 cg2d: Sum(rhs),rhsMax =  -4.03838784958306E+01  2.57975613489055E+00
(PID.TID 0000.0001)  ploadbar=  1.01007430869109E+05
 cg2d: Sum(rhs),rhsMax =  -3.92041109185666E+01  2.65690906556394E+00
(PID.TID 0000.0001)  ploadbar=  1.01008170090876E+05
 cg2d: Sum(rhs),rhsMax =  -3.82170288883853E+01  2.72498977360508E+00
(PID.TID 0000.0001)  ploadbar=  1.01008909312643E+05
 cg2d: Sum(rhs),rhsMax =  -3.73859488224671E+01  2.78494500355747E+00
(PID.TID 0000.0001)  ploadbar=  1.01009648534410E+05
 cg2d: Sum(rhs),rhsMax =  -3.66384049243134E+01  2.84108725228334E+00
(PID.TID 0000.0001)  ploadbar=  1.01010365342816E+05
 cg2d: Sum(rhs),rhsMax =  -3.59712510343074E+01  2.89303536660572E+00
(PID.TID 0000.0001)  ploadbar=  1.01011082151222E+05
 cg2d: Sum(rhs),rhsMax =  -3.55512649387100E+01  2.92639946539602E+00
(PID.TID 0000.0001)  ploadbar=  1.01011798959628E+05
 cg2d: Sum(rhs),rhsMax =  -3.53375370142562E+01  2.94321340342853E+00
(PID.TID 0000.0001)  ploadbar=  1.01012515768035E+05
 cg2d: Sum(rhs),rhsMax =  -3.52655569272525E+01  2.94826438544417E+00
(PID.TID 0000.0001)  ploadbar=  1.01013232576441E+05
 cg2d: Sum(rhs),rhsMax =  -3.52232152646705E+01  2.95077308622396E+00
(PID.TID 0000.0001)  ploadbar=  1.01013949384847E+05
 cg2d: Sum(rhs),rhsMax =  -3.52078429664234E+01  2.95113550707976E+00
(PID.TID 0000.0001)  ploadbar=  1.01014010139742E+05
 cg2d: Sum(rhs),rhsMax =  -3.52195675624592E+01  2.94932993587666E+00
(PID.TID 0000.0001)  ploadbar=  1.01014070894638E+05
 cg2d: Sum(rhs),rhsMax =  -3.52538780453779E+01  2.94573177470632E+00
(PID.TID 0000.0001)  ploadbar=  1.01014131649533E+05
 cg2d: Sum(rhs),rhsMax =  -3.53160122500233E+01  2.93990901795550E+00
(PID.TID 0000.0001)  ploadbar=  1.01014192404428E+05
 cg2d: Sum(rhs),rhsMax =  -3.54103973942623E+01  2.93151094978333E+00
(PID.TID 0000.0001)  ploadbar=  1.01014253159324E+05
 cg2d: Sum(rhs),rhsMax =  -3.55319118306864E+01  2.92099359722002E+00
(PID.TID 0000.0001)  ploadbar=  1.01014313914219E+05
 cg2d: Sum(rhs),rhsMax =  -3.57091858920743E+01  2.90598960130640E+00
(PID.TID 0000.0001)  ploadbar=  1.01016147119366E+05
 cg2d: Sum(rhs),rhsMax =  -3.59112385645862E+01  2.88911731566303E+00
(PID.TID 0000.0001)  ploadbar=  1.01017980324513E+05
 cg2d: Sum(rhs),rhsMax =  -3.61331202808692E+01  2.87082844211563E+00
(PID.TID 0000.0001)  ploadbar=  1.01019813529660E+05
 cg2d: Sum(rhs),rhsMax =  -3.63699772190765E+01  2.85155057207051E+00
(PID.TID 0000.0001)  ploadbar=  1.01021646734807E+05
 cg2d: Sum(rhs),rhsMax =  -3.66178055050010E+01  2.83163370223661E+00
(PID.TID 0000.0001)  ploadbar=  1.01023479939954E+05
 cg2d: Sum(rhs),rhsMax =  -3.68735841666748E+01  2.81133334715129E+00
(PID.TID 0000.0001)  ploadbar=  1.01025313145101E+05
 cg2d: Sum(rhs),rhsMax =  -3.71284710968714E+01  2.79141801309219E+00
(PID.TID 0000.0001)  ploadbar=  1.01027691607735E+05
 cg2d: Sum(rhs),rhsMax =  -3.73911360430277E+01  2.77121885596414E+00
(PID.TID 0000.0001)  ploadbar=  1.01030070070369E+05
 cg2d: Sum(rhs),rhsMax =  -3.76605046904678E+01  2.75082484730371E+00
(PID.TID 0000.0001)  ploadbar=  1.01032448533003E+05
 cg2d: Sum(rhs),rhsMax =  -3.79365856982195E+01  2.73024673315358E+00
(PID.TID 0000.0001)  ploadbar=  1.01034826995637E+05
 cg2d: Sum(rhs),rhsMax =  -3.82197185186455E+01  2.70946724992494E+00
(PID.TID 0000.0001)  ploadbar=  1.01037205458271E+05
 cg2d: Sum(rhs),rhsMax =  -3.85093421460421E+01  2.68853124137424E+00
(PID.TID 0000.0001)  ploadbar=  1.01039583920905E+05
 cg2d: Sum(rhs),rhsMax =  -3.88121491213263E+01  2.66698343918632E+00
(PID.TID 0000.0001)  ploadbar=  1.01041229190506E+05
 cg2d: Sum(rhs),rhsMax =  -3.91245775758021E+01  2.64509621620965E+00
(PID.TID 0000.0001)  ploadbar=  1.01042874460107E+05
 cg2d: Sum(rhs),rhsMax =  -3.94473043044970E+01  2.62284297808974E+00
(PID.TID 0000.0001)  ploadbar=  1.01044519729709E+05
 cg2d: Sum(rhs),rhsMax =  -3.97802136373862E+01  2.60025095263191E+00
(PID.TID 0000.0001)  ploadbar=  1.01046164999310E+05
 cg2d: Sum(rhs),rhsMax =  -4.01230681979325E+01  2.57735155033265E+00
(PID.TID 0000.0001)  ploadbar=  1.01047810268911E+05
 cg2d: Sum(rhs),rhsMax =  -4.04754913482648E+01  2.55418572976237E+00
(PID.TID 0000.0001)  ploadbar=  1.01049455538512E+05
 cg2d: Sum(rhs),rhsMax =  -4.08277169212289E+01  2.53148410000631E+00
(PID.TID 0000.0001)  ploadbar=  1.01051461323973E+05
 cg2d: Sum(rhs),rhsMax =  -4.11880576443214E+01  2.50872056816979E+00
(PID.TID 0000.0001)  ploadbar=  1.01053467109433E+05
 cg2d: Sum(rhs),rhsMax =  -4.15536128808867E+01  2.48607539541429E+00
(PID.TID 0000.0001)  ploadbar=  1.01055472894893E+05
 cg2d: Sum(rhs),rhsMax =  -4.19257508270935E+01  2.46346624304412E+00
(PID.TID 0000.0001)  ploadbar=  1.01057478680354E+05
 cg2d: Sum(rhs),rhsMax =  -4.23048627246936E+01  2.44086851920197E+00
(PID.TID 0000.0001)  ploadbar=  1.01059484465814E+05
 cg2d: Sum(rhs),rhsMax =  -4.26917327407619E+01  2.41823874322583E+00
(PID.TID 0000.0001)  ploadbar=  1.01061490251275E+05
 cg2d: Sum(rhs),rhsMax =  -4.30906057425687E+01  2.39530959466272E+00
(PID.TID 0000.0001)  ploadbar=  1.01063246779660E+05
 cg2d: Sum(rhs),rhsMax =  -4.34906590930904E+01  2.37269390532557E+00
(PID.TID 0000.0001)  ploadbar=  1.01065003308045E+05
 cg2d: Sum(rhs),rhsMax =  -4.38974500232169E+01  2.35008097316058E+00
(PID.TID 0000.0001)  ploadbar=  1.01066759836430E+05
 cg2d: Sum(rhs),rhsMax =  -4.43095456918026E+01  2.32755140305439E+00
(PID.TID 0000.0001)  ploadbar=  1.01068516364815E+05
 cg2d: Sum(rhs),rhsMax =  -4.47289351385276E+01  2.30500260515591E+00
(PID.TID 0000.0001)  ploadbar=  1.01070272893201E+05
 cg2d: Sum(rhs),rhsMax =  -4.51558099508088E+01  2.28243183362333E+00
(PID.TID 0000.0001)  ploadbar=  1.01072029421586E+05
 cg2d: Sum(rhs),rhsMax =  -4.55890035395408E+01  2.26001275363029E+00
(PID.TID 0000.0001)  ploadbar=  1.01073260296643E+05
 cg2d: Sum(rhs),rhsMax =  -4.60240936742831E+01  2.23795334828989E+00
(PID.TID 0000.0001)  ploadbar=  1.01074491171700E+05
 cg2d: Sum(rhs),rhsMax =  -4.64600004803968E+01  2.21629151804593E+00
(PID.TID 0000.0001)  ploadbar=  1.01075722046757E+05
 cg2d: Sum(rhs),rhsMax =  -4.68926110288829E+01  2.19520207794223E+00
(PID.TID 0000.0001)  ploadbar=  1.01076952921814E+05
 cg2d: Sum(rhs),rhsMax =  -4.73163414264706E+01  2.17491528251569E+00
(PID.TID 0000.0001)  ploadbar=  1.01078183796871E+05
 cg2d: Sum(rhs),rhsMax =  -4.77233061460385E+01  2.15574589379038E+00
(PID.TID 0000.0001)  ploadbar=  1.01079414671928E+05
 cg2d: Sum(rhs),rhsMax =  -4.81256979039300E+01  2.13708211605917E+00
(PID.TID 0000.0001)  ploadbar=  1.01080233914893E+05
 cg2d: Sum(rhs),rhsMax =  -4.85102737480255E+01  2.11948025073891E+00
(PID.TID 0000.0001)  ploadbar=  1.01081053157858E+05
 cg2d: Sum(rhs),rhsMax =  -4.88751424782677E+01  2.10296782921984E+00
(PID.TID 0000.0001)  ploadbar=  1.01081872400823E+05
 cg2d: Sum(rhs),rhsMax =  -4.92160834347883E+01  2.08766843619118E+00
(PID.TID 0000.0001)  ploadbar=  1.01082691643788E+05
 cg2d: Sum(rhs),rhsMax =  -4.95332744592791E+01  2.07352240359394E+00
(PID.TID 0000.0001)  ploadbar=  1.01083510886753E+05
 cg2d: Sum(rhs),rhsMax =  -4.98286416477091E+01  2.06040210612893E+00
(PID.TID 0000.0001)  ploadbar=  1.01084330129718E+05
 cg2d: Sum(rhs),rhsMax =  -5.01118353460066E+01  2.04801237457003E+00
(PID.TID 0000.0001)  ploadbar=  1.01084636131699E+05
 cg2d: Sum(rhs),rhsMax =  -5.04004549841836E+01  2.03561865201279E+00
(PID.TID 0000.0001)  ploadbar=  1.01084942133680E+05
 cg2d: Sum(rhs),rhsMax =  -5.06650406908185E+01  2.02439420251727E+00
(PID.TID 0000.0001)  ploadbar=  1.01085248135661E+05
 cg2d: Sum(rhs),rhsMax =  -5.09164049858975E+01  2.01387014948091E+00
(PID.TID 0000.0001)  ploadbar=  1.01085554137641E+05
 cg2d: Sum(rhs),rhsMax =  -5.11657892948523E+01  2.00358012613133E+00
(PID.TID 0000.0001)  ploadbar=  1.01085860139622E+05
 cg2d: Sum(rhs),rhsMax =  -5.14033368809865E+01  1.99389987167059E+00
(PID.TID 0000.0001)  ploadbar=  1.01086166141603E+05
 cg2d: Sum(rhs),rhsMax =  -5.16291020950199E+01  1.98476036555275E+00
(PID.TID 0000.0001)  ploadbar=  1.01085337284306E+05
 cg2d: Sum(rhs),rhsMax =  -5.18150319264154E+01  1.97721329563348E+00
(PID.TID 0000.0001)  ploadbar=  1.01084508427009E+05
 cg2d: Sum(rhs),rhsMax =  -5.19344455508944E+01  1.97223122396286E+00
(PID.TID 0000.0001)  ploadbar=  1.01083679569712E+05
 cg2d: Sum(rhs),rhsMax =  -5.20058553692004E+01  1.96907227661716E+00
(PID.TID 0000.0001)  ploadbar=  1.01082850712415E+05
 cg2d: Sum(rhs),rhsMax =  -5.20558865729238E+01  1.96670368071605E+00
(PID.TID 0000.0001)  ploadbar=  1.01082021855118E+05
 cg2d: Sum(rhs),rhsMax =  -5.20956968089827E+01  1.96469281361399E+00
(PID.TID 0000.0001)  ploadbar=  1.01081192997821E+05
 cg2d: Sum(rhs),rhsMax =  -5.21074618345410E+01  1.96378881821378E+00
(PID.TID 0000.0001)  ploadbar=  1.01079912296023E+05
 cg2d: Sum(rhs),rhsMax =  -5.21293386887759E+01  1.96254764882008E+00
(PID.TID 0000.0001)  ploadbar=  1.01078631594224E+05
 cg2d: Sum(rhs),rhsMax =  -5.21199097531794E+01  1.96252229910371E+00
(PID.TID 0000.0001)  ploadbar=  1.01077350892426E+05
 cg2d: Sum(rhs),rhsMax =  -5.20940913783160E+01  1.96314258021990E+00
(PID.TID 0000.0001)  ploadbar=  1.01076070190628E+05
 cg2d: Sum(rhs),rhsMax =  -5.20325236179311E+01  1.96513369583988E+00
(PID.TID 0000.0001)  ploadbar=  1.01074789488829E+05
 cg2d: Sum(rhs),rhsMax =  -5.19257781536084E+01  1.96885838806172E+00
(PID.TID 0000.0001)  ploadbar=  1.01073508787031E+05
 cg2d: Sum(rhs),rhsMax =  -5.17392155193914E+01  1.97562887700946E+00
(PID.TID 0000.0001)  ploadbar=  1.01073027512710E+05
 cg2d: Sum(rhs),rhsMax =  -5.15480537817134E+01  1.98261217644061E+00
(PID.TID 0000.0001)  ploadbar=  1.01072546238388E+05
 cg2d: Sum(rhs),rhsMax =  -5.13794414754500E+01  1.98875605270228E+00
(PID.TID 0000.0001)  ploadbar=  1.01072064964066E+05
 cg2d: Sum(rhs),rhsMax =  -5.12730190991568E+01  1.99249601264992E+00
(PID.TID 0000.0001)  ploadbar=  1.01071583689745E+05
 cg2d: Sum(rhs),rhsMax =  -5.12654530753009E+01  1.99237030441487E+00
(PID.TID 0000.0001)  ploadbar=  1.01071102415423E+05
 cg2d: Sum(rhs),rhsMax =  -5.13757919311852E+01  1.98763728904294E+00
(PID.TID 0000.0001)  ploadbar=  1.01070621141102E+05
 cg2d: Sum(rhs),rhsMax =  -5.16685479452116E+01  1.97598761219527E+00
(PID.TID 0000.0001)  ploadbar=  1.01070750223783E+05
 cg2d: Sum(rhs),rhsMax =  -5.22093825361047E+01  1.95519602754114E+00
(PID.TID 0000.0001)  ploadbar=  1.01070879306465E+05
 cg2d: Sum(rhs),rhsMax =  -5.22512656237891E+01  1.95336204238237E+00
(PID.TID 0000.0001)  ploadbar=  1.01071008389146E+05
 cg2d: Sum(rhs),rhsMax =  -5.20326423768312E+01  1.96135190695844E+00
(PID.TID 0000.0001)  ploadbar=  1.01071137471828E+05
 cg2d: Sum(rhs),rhsMax =  -5.17769779008509E+01  1.97086289191632E+00
(PID.TID 0000.0001)  ploadbar=  1.01071266554509E+05
 cg2d: Sum(rhs),rhsMax =  -5.14785098711351E+01  1.98215228778274E+00
(PID.TID 0000.0001)  ploadbar=  1.01071395637190E+05
 cg2d: Sum(rhs),rhsMax =  -5.11755070045013E+01  1.99373521162311E+00
(PID.TID 0000.0001)  ploadbar=  1.01072734981630E+05
 cg2d: Sum(rhs),rhsMax =  -5.08633648690430E+01  2.00579763633311E+00
(PID.TID 0000.0001)  ploadbar=  1.01074074326071E+05
 cg2d: Sum(rhs),rhsMax =  -5.05619677877382E+01  2.01755564017013E+00
(PID.TID 0000.0001)  ploadbar=  1.01075413670511E+05
 cg2d: Sum(rhs),rhsMax =  -5.02798353275876E+01  2.02864638902950E+00
(PID.TID 0000.0001)  ploadbar=  1.01076753014951E+05
 cg2d: Sum(rhs),rhsMax =  -5.00209493055780E+01  2.03887874035877E+00
(PID.TID 0000.0001)  ploadbar=  1.01078092359391E+05
 cg2d: Sum(rhs),rhsMax =  -4.97862856828096E+01  2.04818046704773E+00
(PID.TID 0000.0001)  ploadbar=  1.01079431703831E+05
 cg2d: Sum(rhs),rhsMax =  -4.95771141462780E+01  2.05654289165525E+00
(PID.TID 0000.0001)  ploadbar=  1.01079398214477E+05
 cg2d: Sum(rhs),rhsMax =  -4.93855744260556E+01  2.06426381972088E+00
(PID.TID 0000.0001)  ploadbar=  1.01079364725124E+05
 cg2d: Sum(rhs),rhsMax =  -4.92014464213948E+01  2.07175274656427E+00
(PID.TID 0000.0001)  ploadbar=  1.01079331235770E+05
 cg2d: Sum(rhs),rhsMax =  -4.90295525300846E+01  2.07879216595551E+00
(PID.TID 0000.0001)  ploadbar=  1.01079297746417E+05
 cg2d: Sum(rhs),rhsMax =  -4.88933542413843E+01  2.08436849737369E+00
(PID.TID 0000.0001)  ploadbar=  1.01079264257063E+05
 cg2d: Sum(rhs),rhsMax =  -4.87777213762729E+01  2.08910274051138E+00
(PID.TID 0000.0001)  ploadbar=  1.01079230767710E+05
 cg2d: Sum(rhs),rhsMax =  -4.86677096706020E+01  2.09361605922727E+00
(PID.TID 0000.0001)  ploadbar=  1.01079499770181E+05
 cg2d: Sum(rhs),rhsMax =  -4.85860764174779E+01  2.09692110408668E+00
(PID.TID 0000.0001)  ploadbar=  1.01079768772651E+05
 cg2d: Sum(rhs),rhsMax =  -4.85375470003011E+01  2.09879641945271E+00
(PID.TID 0000.0001)  ploadbar=  1.01080037775122E+05
 cg2d: Sum(rhs),rhsMax =  -4.85412079699776E+01  2.09840503315512E+00
(PID.TID 0000.0001)  ploadbar=  1.01080306777593E+05
 cg2d: Sum(rhs),rhsMax =  -4.86259804536908E+01  2.09449609367501E+00
(PID.TID 0000.0001)  ploadbar=  1.01080575780064E+05
 cg2d: Sum(rhs),rhsMax =  -4.88157920037266E+01  2.08608183377519E+00
(PID.TID 0000.0001)  ploadbar=  1.01080844782535E+05
 cg2d: Sum(rhs),rhsMax =  -4.90498551670700E+01  2.07591032381327E+00
(PID.TID 0000.0001)  ploadbar=  1.01079508708155E+05
 cg2d: Sum(rhs),rhsMax =  -4.93380426851389E+01  2.06361957853376E+00
(PID.TID 0000.0001)  ploadbar=  1.01078172633775E+05
 cg2d: Sum(rhs),rhsMax =  -4.97111554243191E+01  2.04801655703236E+00
(PID.TID 0000.0001)  ploadbar=  1.01076836559395E+05
 cg2d: Sum(rhs),rhsMax =  -5.04517071150884E+01  2.01788908113565E+00
(PID.TID 0000.0001)  ploadbar=  1.01075500485016E+05
 cg2d: Sum(rhs),rhsMax =  -5.14469769914093E+01  1.97882932103073E+00
(PID.TID 0000.0001)  ploadbar=  1.01074164410636E+05
 cg2d: Sum(rhs),rhsMax =  -5.24771505830542E+01  1.93999938501783E+00
(PID.TID 0000.0001)  ploadbar=  1.01072828336256E+05
 cg2d: Sum(rhs),rhsMax =  -5.30919009604017E+01  1.91751549451370E+00
(PID.TID 0000.0001)  ploadbar=  1.01072570594464E+05
 cg2d: Sum(rhs),rhsMax =  -5.25855061563038E+01  1.93592022799225E+00
(PID.TID 0000.0001)  ploadbar=  1.01072312852672E+05
 cg2d: Sum(rhs),rhsMax =  -5.19813399878691E+01  1.95831587164696E+00
(PID.TID 0000.0001)  ploadbar=  1.01072055110879E+05
 cg2d: Sum(rhs),rhsMax =  -5.21238760855344E+01  1.95280881483129E+00
(PID.TID 0000.0001)  ploadbar=  1.01071797369087E+05
 cg2d: Sum(rhs),rhsMax =  -5.19376333749980E+01  1.95960946387516E+00
(PID.TID 0000.0001)  ploadbar=  1.01071539627295E+05
 cg2d: Sum(rhs),rhsMax =  -5.11536874594285E+01  1.98938715086332E+00
(PID.TID 0000.0001)  ploadbar=  1.01071281885503E+05
 cg2d: Sum(rhs),rhsMax =  -5.03846620706223E+01  2.01950168570537E+00
(PID.TID 0000.0001)  ploadbar=  1.01070540366926E+05
 cg2d: Sum(rhs),rhsMax =  -4.96472816101319E+01  2.04924446115715E+00
(PID.TID 0000.0001)  ploadbar=  1.01069798848349E+05
 cg2d: Sum(rhs),rhsMax =  -4.89319424712368E+01  2.07894502039885E+00
(PID.TID 0000.0001)  ploadbar=  1.01069057329773E+05
 cg2d: Sum(rhs),rhsMax =  -4.82352368986128E+01  2.10870453732923E+00
(PID.TID 0000.0001)  ploadbar=  1.01068315811196E+05
 cg2d: Sum(rhs),rhsMax =  -4.70565107232357E+01  2.16123501930164E+00
(PID.TID 0000.0001)  ploadbar=  1.01067574292619E+05
 cg2d: Sum(rhs),rhsMax =  -4.48573265539197E+01  2.26686566820530E+00
(PID.TID 0000.0001)  ploadbar=  1.01066832774043E+05
 cg2d: Sum(rhs),rhsMax =  -4.30397656691341E+01  2.36221293316004E+00
(PID.TID 0000.0001)  ploadbar=  1.01066141915548E+05
 cg2d: Sum(rhs),rhsMax =  -4.15031097100869E+01  2.44923352862362E+00
(PID.TID 0000.0001)  ploadbar=  1.01065451057054E+05
 cg2d: Sum(rhs),rhsMax =  -4.03069302555313E+01  2.52141386769658E+00
(PID.TID 0000.0001)  ploadbar=  1.01064760198559E+05
 cg2d: Sum(rhs),rhsMax =  -3.93923338988721E+01  2.57937527927176E+00
(PID.TID 0000.0001)  ploadbar=  1.01064069340065E+05
 cg2d: Sum(rhs),rhsMax =  -3.87360309009119E+01  2.62241768156651E+00
(PID.TID 0000.0001)  ploadbar=  1.01063378481571E+05
 cg2d: Sum(rhs),rhsMax =  -3.80696558777505E+01  2.66757007910518E+00
(PID.TID 0000.0001)  ploadbar=  1.01062687623076E+05
 cg2d: Sum(rhs),rhsMax =  -3.76548374091830E+01  2.69629299136892E+00
(PID.TID 0000.0001)  ploadbar=  1.01062871133530E+05
 cg2d: Sum(rhs),rhsMax =  -3.75872483350230E+01  2.70056697915727E+00
(PID.TID 0000.0001)  ploadbar=  1.01063054643983E+05
 cg2d: Sum(rhs),rhsMax =  -3.79201742139159E+01  2.67637577003928E+00
(PID.TID 0000.0001)  ploadbar=  1.01063238154437E+05
 cg2d: Sum(rhs),rhsMax =  -3.83941791909721E+01  2.64293705476006E+00
(PID.TID 0000.0001)  ploadbar=  1.01063421664890E+05
 cg2d: Sum(rhs),rhsMax =  -3.88275955567169E+01  2.61311427866913E+00
(PID.TID 0000.0001)  ploadbar=  1.01063605175344E+05
 cg2d: Sum(rhs),rhsMax =  -3.91099577087807E+01  2.59399749031070E+00
(PID.TID 0000.0001)  ploadbar=  1.01063788685797E+05
 cg2d: Sum(rhs),rhsMax =  -3.90632130631767E+01  2.59684795791397E+00
(PID.TID 0000.0001)  ploadbar=  1.01063904249148E+05
 cg2d: Sum(rhs),rhsMax =  -3.87801602696582E+01  2.61554044882445E+00
(PID.TID 0000.0001)  ploadbar=  1.01064019812500E+05
 cg2d: Sum(rhs),rhsMax =  -3.83555887273873E+01  2.64421503185280E+00
(PID.TID 0000.0001)  ploadbar=  1.01064135375851E+05
 cg2d: Sum(rhs),rhsMax =  -3.78364331593155E+01  2.68020042301454E+00
(PID.TID 0000.0001)  ploadbar=  1.01064250939202E+05
 cg2d: Sum(rhs),rhsMax =  -3.72866687805342E+01  2.71939916258206E+00
(PID.TID 0000.0001)  ploadbar=  1.01064366502553E+05
 cg2d: Sum(rhs),rhsMax =  -3.67156346841232E+01  2.76134985218405E+00
(PID.TID 0000.0001)  ploadbar=  1.01064482065904E+05
 cg2d: Sum(rhs),rhsMax =  -3.61151132877186E+01  2.80685164218188E+00
(PID.TID 0000.0001)  ploadbar=  1.01065025376384E+05
 cg2d: Sum(rhs),rhsMax =  -3.54673435930649E+01  2.85762169151392E+00
(PID.TID 0000.0001)  ploadbar=  1.01065568686864E+05
 cg2d: Sum(rhs),rhsMax =  -3.48203906985979E+01  2.91013752385278E+00
(PID.TID 0000.0001)  ploadbar=  1.01066111997344E+05
 cg2d: Sum(rhs),rhsMax =  -3.42135958859205E+01  2.96107857772797E+00
(PID.TID 0000.0001)  ploadbar=  1.01066655307824E+05
 cg2d: Sum(rhs),rhsMax =  -3.36704772255766E+01  3.00806946969099E+00
(PID.TID 0000.0001)  ploadbar=  1.01067198618304E+05
 cg2d: Sum(rhs),rhsMax =  -3.32115759235211E+01  3.04875214388538E+00
(PID.TID 0000.0001)  ploadbar=  1.01067741928785E+05
 cg2d: Sum(rhs),rhsMax =  -3.31111207056309E+01  3.05706243766322E+00
(PID.TID 0000.0001)  ploadbar=  1.01068187669685E+05
 cg2d: Sum(rhs),rhsMax =  -3.33055033107464E+01  3.03822686125466E+00
(PID.TID 0000.0001)  ploadbar=  1.01068633410586E+05
 cg2d: Sum(rhs),rhsMax =  -3.34104998483169E+01  3.02762184414644E+00
(PID.TID 0000.0001)  ploadbar=  1.01069079151486E+05
 cg2d: Sum(rhs),rhsMax =  -3.35397212241049E+01  3.01482847877977E+00
(PID.TID 0000.0001)  ploadbar=  1.01069524892387E+05
 cg2d: Sum(rhs),rhsMax =  -3.36855107060001E+01  3.00057261505697E+00
(PID.TID 0000.0001)  ploadbar=  1.01069970633288E+05
 cg2d: Sum(rhs),rhsMax =  -3.38536548456394E+01  2.98437282988490E+00
(PID.TID 0000.0001)  ploadbar=  1.01070416374188E+05
 cg2d: Sum(rhs),rhsMax =  -3.40562534052773E+01  2.96537410450471E+00
(PID.TID 0000.0001)  ploadbar=  1.01071685352178E+05
 cg2d: Sum(rhs),rhsMax =  -3.42916376923400E+01  2.94382100602029E+00
(PID.TID 0000.0001)  ploadbar=  1.01072954330167E+05
 cg2d: Sum(rhs),rhsMax =  -3.45473213761340E+01  2.92087750867579E+00
(PID.TID 0000.0001)  ploadbar=  1.01074223308156E+05
 cg2d: Sum(rhs),rhsMax =  -3.48175916825663E+01  2.89708003431200E+00
(PID.TID 0000.0001)  ploadbar=  1.01075492286146E+05
 cg2d: Sum(rhs),rhsMax =  -3.50948057326101E+01  2.87309273713061E+00
(PID.TID 0000.0001)  ploadbar=  1.01076761264135E+05
 cg2d: Sum(rhs),rhsMax =  -3.53683968102498E+01  2.84977503224151E+00
(PID.TID 0000.0001)  ploadbar=  1.01078030242125E+05
 cg2d: Sum(rhs),rhsMax =  -3.56405752731097E+01  2.82689975243369E+00
(PID.TID 0000.0001)  ploadbar=  1.01079447088565E+05
 cg2d: Sum(rhs),rhsMax =  -3.59038384501833E+01  2.80503376882726E+00
(PID.TID 0000.0001)  ploadbar=  1.01080863935005E+05
 cg2d: Sum(rhs),rhsMax =  -3.61557750406859E+01  2.78431829139924E+00
(PID.TID 0000.0001)  ploadbar=  1.01082280781446E+05
 cg2d: Sum(rhs),rhsMax =  -3.64001519068601E+01  2.76441776065743E+00
(PID.TID 0000.0001)  ploadbar=  1.01083697627886E+05
 cg2d: Sum(rhs),rhsMax =  -3.66234423564060E+01  2.74631176302423E+00
(PID.TID 0000.0001)  ploadbar=  1.01085114474326E+05
 cg2d: Sum(rhs),rhsMax =  -3.68229725546544E+01  2.73013001667543E+00
(PID.TID 0000.0001)  ploadbar=  1.01086531320767E+05
 cg2d: Sum(rhs),rhsMax =  -3.69774726919713E+01  2.71744427509941E+00
(PID.TID 0000.0001)  ploadbar=  1.01087920924903E+05
 cg2d: Sum(rhs),rhsMax =  -3.71002719734666E+01  2.70718534025305E+00
(PID.TID 0000.0001)  ploadbar=  1.01089310529039E+05
 cg2d: Sum(rhs),rhsMax =  -3.71894151868470E+01  2.69943945260031E+00
(PID.TID 0000.0001)  ploadbar=  1.01090700133175E+05
 cg2d: Sum(rhs),rhsMax =  -3.72526719912093E+01  2.69359582779565E+00
(PID.TID 0000.0001)  ploadbar=  1.01092089737311E+05
 cg2d: Sum(rhs),rhsMax =  -3.73028127067776E+01  2.68870603540831E+00
(PID.TID 0000.0001)  ploadbar=  1.01093479341447E+05
 cg2d: Sum(rhs),rhsMax =  -3.73466714733708E+01  2.68426221400667E+00
(PID.TID 0000.0001)  ploadbar=  1.01094868945583E+05
 cg2d: Sum(rhs),rhsMax =  -3.73694739295412E+01  2.68133048544061E+00
(PID.TID 0000.0001)  ploadbar=  1.01095455152549E+05
 cg2d: Sum(rhs),rhsMax =  -3.73948304611361E+01  2.67820665906612E+00
(PID.TID 0000.0001)  ploadbar=  1.01096041359516E+05
 cg2d: Sum(rhs),rhsMax =  -3.74175496840042E+01  2.67525956221591E+00
(PID.TID 0000.0001)  ploadbar=  1.01096627566483E+05
 cg2d: Sum(rhs),rhsMax =  -3.74380381314585E+01  2.67245223815104E+00
(PID.TID 0000.0001)  ploadbar=  1.01097213773450E+05
 cg2d: Sum(rhs),rhsMax =  -3.74560682088585E+01  2.66979425309772E+00
(PID.TID 0000.0001)  ploadbar=  1.01097799980416E+05
 cg2d: Sum(rhs),rhsMax =  -3.74705430292946E+01  2.66735779049600E+00
(PID.TID 0000.0001)  ploadbar=  1.01098386187383E+05
 cg2d: Sum(rhs),rhsMax =  -3.74516566420864E+01  2.66734637307602E+00
(PID.TID 0000.0001)  ploadbar=  1.01098762334951E+05
 cg2d: Sum(rhs),rhsMax =  -3.74225582528460E+01  2.66810970834972E+00
(PID.TID 0000.0001)  ploadbar=  1.01099138482520E+05
 cg2d: Sum(rhs),rhsMax =  -3.73896682731036E+01  2.66918981276378E+00
(PID.TID 0000.0001)  ploadbar=  1.01099514630088E+05
 cg2d: Sum(rhs),rhsMax =  -3.73561523766599E+01  2.67035042240128E+00
(PID.TID 0000.0001)  ploadbar=  1.01099890777657E+05
 cg2d: Sum(rhs),rhsMax =  -3.73248075590220E+01  2.67138194707561E+00
(PID.TID 0000.0001)  ploadbar=  1.01100266925225E+05
 cg2d: Sum(rhs),rhsMax =  -3.72995517602520E+01  2.67199056914485E+00
(PID.TID 0000.0001)  ploadbar=  1.01100643072794E+05
 cg2d: Sum(rhs),rhsMax =  -3.72956771194013E+01  2.67114663687503E+00
(PID.TID 0000.0001)  ploadbar=  1.01100940399897E+05
 cg2d: Sum(rhs),rhsMax =  -3.72793332685382E+01  2.67126887076892E+00
(PID.TID 0000.0001)  ploadbar=  1.01101237727001E+05
 cg2d: Sum(rhs),rhsMax =  -3.72503305981503E+01  2.67236347801959E+00
(PID.TID 0000.0001)  ploadbar=  1.01101535054104E+05
 cg2d: Sum(rhs),rhsMax =  -3.72008731165949E+01  2.67498575782218E+00
(PID.TID 0000.0001)  ploadbar=  1.01101832381208E+05
 cg2d: Sum(rhs),rhsMax =  -3.71282967298875E+01  2.67933345625203E+00
(PID.TID 0000.0001)  ploadbar=  1.01102129708311E+05
 cg2d: Sum(rhs),rhsMax =  -3.70305850558858E+01  2.68556617068108E+00
(PID.TID 0000.0001)  ploadbar=  1.01102427035415E+05
 cg2d: Sum(rhs),rhsMax =  -3.69125547429733E+01  2.69337613158229E+00
(PID.TID 0000.0001)  ploadbar=  1.01103557619709E+05
 cg2d: Sum(rhs),rhsMax =  -3.67693525765789E+01  2.70314049999768E+00
(PID.TID 0000.0001)  ploadbar=  1.01104688204003E+05
 cg2d: Sum(rhs),rhsMax =  -3.65957015142344E+01  2.71528357390772E+00
(PID.TID 0000.0001)  ploadbar=  1.01105818788297E+05
 cg2d: Sum(rhs),rhsMax =  -3.63815097231806E+01  2.73061615426247E+00
(PID.TID 0000.0001)  ploadbar=  1.01106949372591E+05
 cg2d: Sum(rhs),rhsMax =  -3.61294776506875E+01  2.74903322154434E+00
(PID.TID 0000.0001)  ploadbar=  1.01108079956886E+05
 cg2d: Sum(rhs),rhsMax =  -3.58420255052662E+01  2.77045995851937E+00
(PID.TID 0000.0001)  ploadbar=  1.01109210541180E+05
 cg2d: Sum(rhs),rhsMax =  -3.55143386369034E+01  2.79531790069950E+00
(PID.TID 0000.0001)  ploadbar=  1.01108598721862E+05
 cg2d: Sum(rhs),rhsMax =  -3.51567978308472E+01  2.82294957338748E+00
(PID.TID 0000.0001)  ploadbar=  1.01107986902545E+05
 cg2d: Sum(rhs),rhsMax =  -3.47741873013986E+01  2.85311398046919E+00
(PID.TID 0000.0001)  ploadbar=  1.01107375083227E+05
 cg2d: Sum(rhs),rhsMax =  -3.43862735136101E+01  2.88428201029395E+00
(PID.TID 0000.0001)  ploadbar=  1.01106763263910E+05
 cg2d: Sum(rhs),rhsMax =  -3.39912437491220E+01  2.91665785083942E+00
(PID.TID 0000.0001)  ploadbar=  1.01106151444593E+05
 cg2d: Sum(rhs),rhsMax =  -3.35985020231479E+01  2.94947693232861E+00
(PID.TID 0000.0001)  ploadbar=  1.01105539625275E+05
 cg2d: Sum(rhs),rhsMax =  -3.32351672591032E+01  2.98052501685104E+00
(PID.TID 0000.0001)  ploadbar=  1.01105070464296E+05
 cg2d: Sum(rhs),rhsMax =  -3.29128612834393E+01  3.00859301139615E+00
(PID.TID 0000.0001)  ploadbar=  1.01104601303317E+05
 cg2d: Sum(rhs),rhsMax =  -3.26304572743822E+01  3.03358664298674E+00
(PID.TID 0000.0001)  ploadbar=  1.01104132142338E+05
 cg2d: Sum(rhs),rhsMax =  -3.23879623882270E+01  3.05532211456521E+00
(PID.TID 0000.0001)  ploadbar=  1.01103662981359E+05
 cg2d: Sum(rhs),rhsMax =  -3.21824535169218E+01  3.07391273115380E+00
(PID.TID 0000.0001)  ploadbar=  1.01103193820380E+05
 cg2d: Sum(rhs),rhsMax =  -3.20090473318614E+01  3.08969982971125E+00
(PID.TID 0000.0001)  ploadbar=  1.01102724659401E+05
 cg2d: Sum(rhs),rhsMax =  -3.18555131565215E+01  3.10377986088192E+00
(PID.TID 0000.0001)  ploadbar=  1.01102248446998E+05
 cg2d: Sum(rhs),rhsMax =  -3.19614950071363E+01  3.09272894449867E+00
(PID.TID 0000.0001)  ploadbar=  1.01101772234595E+05
 cg2d: Sum(rhs),rhsMax =  -3.21663422761378E+01  3.07231349263427E+00
(PID.TID 0000.0001)  ploadbar=  1.01101296022192E+05
 cg2d: Sum(rhs),rhsMax =  -3.23734777550470E+01  3.05196537660300E+00
(PID.TID 0000.0001)  ploadbar=  1.01100819809789E+05
 cg2d: Sum(rhs),rhsMax =  -3.25819073427327E+01  3.03176648540494E+00
(PID.TID 0000.0001)  ploadbar=  1.01100343597386E+05
 cg2d: Sum(rhs),rhsMax =  -3.27914578379129E+01  3.01172962391757E+00
(PID.TID 0000.0001)  ploadbar=  1.01099867384983E+05
 cg2d: Sum(rhs),rhsMax =  -3.30118223102816E+01  2.99098623313162E+00
(PID.TID 0000.0001)  ploadbar=  1.01099539901682E+05
 cg2d: Sum(rhs),rhsMax =  -3.32364814832906E+01  2.97014981069156E+00
(PID.TID 0000.0001)  ploadbar=  1.01099212418382E+05
 cg2d: Sum(rhs),rhsMax =  -3.34654149926347E+01  2.94922782336928E+00
(PID.TID 0000.0001)  ploadbar=  1.01098884935082E+05
 cg2d: Sum(rhs),rhsMax =  -3.37004797807804E+01  2.92806025360234E+00
(PID.TID 0000.0001)  ploadbar=  1.01098557451782E+05
 cg2d: Sum(rhs),rhsMax =  -3.39420558228258E+01  2.90662066161942E+00
(PID.TID 0000.0001)  ploadbar=  1.01098229968482E+05
 cg2d: Sum(rhs),rhsMax =  -3.41895681999746E+01  2.88496873038577E+00
(PID.TID 0000.0001)  ploadbar=  1.01097902485181E+05
 cg2d: Sum(rhs),rhsMax =  -3.44414306288225E+01  2.86320408814692E+00
(PID.TID 0000.0001)  ploadbar=  1.01096837892639E+05
 cg2d: Sum(rhs),rhsMax =  -3.46981993994078E+01  2.84128682484396E+00
(PID.TID 0000.0001)  ploadbar=  1.01095773300097E+05
 cg2d: Sum(rhs),rhsMax =  -3.49626229553210E+01  2.81899987192551E+00
(PID.TID 0000.0001)  ploadbar=  1.01094708707555E+05
 cg2d: Sum(rhs),rhsMax =  -3.52363879795441E+01  2.79622119541453E+00
(PID.TID 0000.0001)  ploadbar=  1.01093644115013E+05
 cg2d: Sum(rhs),rhsMax =  -3.55215069561527E+01  2.77281850402052E+00
(PID.TID 0000.0001)  ploadbar=  1.01092579522471E+05
 cg2d: Sum(rhs),rhsMax =  -3.58170448467340E+01  2.74890105215308E+00
(PID.TID 0000.0001)  ploadbar=  1.01091514929929E+05
 cg2d: Sum(rhs),rhsMax =  -3.61210093894067E+01  2.72481403839247E+00
(PID.TID 0000.0001)  ploadbar=  1.01091819617786E+05
 cg2d: Sum(rhs),rhsMax =  -3.64357262501507E+01  2.70040259599869E+00
(PID.TID 0000.0001)  ploadbar=  1.01092124305644E+05
 cg2d: Sum(rhs),rhsMax =  -3.67587023092695E+01  2.67587111819753E+00
(PID.TID 0000.0001)  ploadbar=  1.01092428993502E+05
 cg2d: Sum(rhs),rhsMax =  -3.70882224331098E+01  2.65135003004013E+00
(PID.TID 0000.0001)  ploadbar=  1.01092733681359E+05
 cg2d: Sum(rhs),rhsMax =  -3.74221196568618E+01  2.62700112312656E+00
(PID.TID 0000.0001)  ploadbar=  1.01093038369217E+05
 cg2d: Sum(rhs),rhsMax =  -3.77584730728297E+01  2.60295219917387E+00
(PID.TID 0000.0001)  ploadbar=  1.01093343057075E+05
 cg2d: Sum(rhs),rhsMax =  -3.80965634415258E+01  2.57925037681466E+00
(PID.TID 0000.0001)  ploadbar=  1.01092413705705E+05
 cg2d: Sum(rhs),rhsMax =  -3.84383963401138E+01  2.55575148253886E+00
(PID.TID 0000.0001)  ploadbar=  1.01091484354335E+05
 cg2d: Sum(rhs),rhsMax =  -3.87881873511295E+01  2.53217281159993E+00
(PID.TID 0000.0001)  ploadbar=  1.01090555002965E+05
 cg2d: Sum(rhs),rhsMax =  -3.91527871111383E+01  2.50808217711864E+00
(PID.TID 0000.0001)  ploadbar=  1.01089625651595E+05
 cg2d: Sum(rhs),rhsMax =  -3.95322696963181E+01  2.48351064107029E+00
(PID.TID 0000.0001)  ploadbar=  1.01088696300225E+05
 cg2d: Sum(rhs),rhsMax =  -3.99233921390855E+01  2.45868986364104E+00
(PID.TID 0000.0001)  ploadbar=  1.01087766948855E+05
 cg2d: Sum(rhs),rhsMax =  -4.02924539471528E+01  2.43569759860849E+00
(PID.TID 0000.0001)  ploadbar=  1.01085888696090E+05
 cg2d: Sum(rhs),rhsMax =  -4.05697924166765E+01  2.41858702589850E+00
(PID.TID 0000.0001)  ploadbar=  1.01084010443325E+05
 cg2d: Sum(rhs),rhsMax =  -4.08331454574889E+01  2.40253337250316E+00
(PID.TID 0000.0001)  ploadbar=  1.01082132190560E+05
 cg2d: Sum(rhs),rhsMax =  -4.10982528912998E+01  2.38657390992984E+00
(PID.TID 0000.0001)  ploadbar=  1.01080253937795E+05
 cg2d: Sum(rhs),rhsMax =  -4.13687319865219E+01  2.37048880207395E+00
(PID.TID 0000.0001)  ploadbar=  1.01078375685030E+05
 cg2d: Sum(rhs),rhsMax =  -4.16448156147482E+01  2.35426824451977E+00
(PID.TID 0000.0001)  ploadbar=  1.01076497432265E+05
 cg2d: Sum(rhs),rhsMax =  -4.19154246482753E+01  2.33851807673744E+00
(PID.TID 0000.0001)  ploadbar=  1.01075491137783E+05
 cg2d: Sum(rhs),rhsMax =  -4.21847383299715E+01  2.32298932278142E+00
(PID.TID 0000.0001)  ploadbar=  1.01074484843301E+05
 cg2d: Sum(rhs),rhsMax =  -4.24503225343864E+01  2.30780024249081E+00
(PID.TID 0000.0001)  ploadbar=  1.01073478548819E+05
 cg2d: Sum(rhs),rhsMax =  -4.27071521536705E+01  2.29319457013505E+00
(PID.TID 0000.0001)  ploadbar=  1.01072472254337E+05
 cg2d: Sum(rhs),rhsMax =  -4.29479737150582E+01  2.27952712057526E+00
(PID.TID 0000.0001)  ploadbar=  1.01071465959855E+05
 cg2d: Sum(rhs),rhsMax =  -4.31636763896210E+01  2.26724191291273E+00
(PID.TID 0000.0001)  ploadbar=  1.01070459665373E+05
 cg2d: Sum(rhs),rhsMax =  -4.33433815853253E+01  2.25704385053930E+00
(PID.TID 0000.0001)  ploadbar=  1.01070341059394E+05
 cg2d: Sum(rhs),rhsMax =  -4.34928862063641E+01  2.24857885434518E+00
(PID.TID 0000.0001)  ploadbar=  1.01070222453415E+05
 cg2d: Sum(rhs),rhsMax =  -4.36168500727543E+01  2.24156380154559E+00
(PID.TID 0000.0001)  ploadbar=  1.01070103847437E+05
 cg2d: Sum(rhs),rhsMax =  -4.37199379989437E+01  2.23572755141237E+00
(PID.TID 0000.0001)  ploadbar=  1.01069985241458E+05
 cg2d: Sum(rhs),rhsMax =  -4.38101650425052E+01  2.23063679332034E+00
(PID.TID 0000.0001)  ploadbar=  1.01069866635479E+05
 cg2d: Sum(rhs),rhsMax =  -4.38934589442434E+01  2.22597385851006E+00
(PID.TID 0000.0001)  ploadbar=  1.01069748029501E+05
 cg2d: Sum(rhs),rhsMax =  -4.39775202796944E+01  2.22133606965185E+00
(PID.TID 0000.0001)  ploadbar=  1.01068796806073E+05
 cg2d: Sum(rhs),rhsMax =  -4.40700155708942E+01  2.21633046800353E+00
(PID.TID 0000.0001)  ploadbar=  1.01067845582645E+05
 cg2d: Sum(rhs),rhsMax =  -4.41957507850780E+01  2.20971323206977E+00
(PID.TID 0000.0001)  ploadbar=  1.01066894359216E+05
 cg2d: Sum(rhs),rhsMax =  -4.43549439996329E+01  2.20149688660689E+00
(PID.TID 0000.0001)  ploadbar=  1.01065943135788E+05
 cg2d: Sum(rhs),rhsMax =  -4.45500474385611E+01  2.19159141226714E+00
(PID.TID 0000.0001)  ploadbar=  1.01064991912360E+05
 cg2d: Sum(rhs),rhsMax =  -4.47849981419785E+01  2.17984620246394E+00
(PID.TID 0000.0001)  ploadbar=  1.01064040688932E+05
 cg2d: Sum(rhs),rhsMax =  -4.50560610564835E+01  2.16649155622012E+00
(PID.TID 0000.0001)  ploadbar=  1.01063322732117E+05
 cg2d: Sum(rhs),rhsMax =  -4.53345067576940E+01  2.15294460916503E+00
(PID.TID 0000.0001)  ploadbar=  1.01062604775303E+05
 cg2d: Sum(rhs),rhsMax =  -4.56254495471816E+01  2.13897143431547E+00
(PID.TID 0000.0001)  ploadbar=  1.01061886818488E+05
 cg2d: Sum(rhs),rhsMax =  -4.59324078426654E+01  2.12441584934627E+00
(PID.TID 0000.0001)  ploadbar=  1.01061168861673E+05
 cg2d: Sum(rhs),rhsMax =  -4.62602027226692E+01  2.10907704004183E+00
(PID.TID 0000.0001)  ploadbar=  1.01060450904858E+05
 cg2d: Sum(rhs),rhsMax =  -4.66168985944589E+01  2.09261887813281E+00
(PID.TID 0000.0001)  ploadbar=  1.01059732948043E+05
 cg2d: Sum(rhs),rhsMax =  -4.70023904762613E+01  2.07510602978487E+00
(PID.TID 0000.0001)  ploadbar=  1.01058900309908E+05
 cg2d: Sum(rhs),rhsMax =  -4.74070269161276E+01  2.05701232853496E+00
(PID.TID 0000.0001)  ploadbar=  1.01058067671773E+05
 cg2d: Sum(rhs),rhsMax =  -4.78506789212792E+01  2.03751652127441E+00
(PID.TID 0000.0001)  ploadbar=  1.01057235033638E+05
 cg2d: Sum(rhs),rhsMax =  -4.78232217731961E+01  2.03820337875967E+00
(PID.TID 0000.0001)  ploadbar=  1.01056402395502E+05
 cg2d: Sum(rhs),rhsMax =  -4.76870183088540E+01  2.04347261868501E+00
(PID.TID 0000.0001)  ploadbar=  1.01055569757367E+05
 cg2d: Sum(rhs),rhsMax =  -4.75482664034789E+01  2.04880879587622E+00
(PID.TID 0000.0001)  ploadbar=  1.01054737119232E+05
 cg2d: Sum(rhs),rhsMax =  -4.74131864855910E+01  2.05406743747116E+00
(PID.TID 0000.0001)  ploadbar=  1.01054914790028E+05
 cg2d: Sum(rhs),rhsMax =  -4.72810607756067E+01  2.05927319522628E+00
(PID.TID 0000.0001)  ploadbar=  1.01055092460824E+05
 cg2d: Sum(rhs),rhsMax =  -4.71501061790713E+01  2.06449606791386E+00
(PID.TID 0000.0001)  ploadbar=  1.01055270131619E+05
 cg2d: Sum(rhs),rhsMax =  -4.70218145631564E+01  2.06966687373489E+00
(PID.TID 0000.0001)  ploadbar=  1.01055447802415E+05
 cg2d: Sum(rhs),rhsMax =  -4.68971553426688E+01  2.07473340702196E+00
(PID.TID 0000.0001)  ploadbar=  1.01055625473211E+05
 cg2d: Sum(rhs),rhsMax =  -4.67772310137427E+01  2.07963827549703E+00
(PID.TID 0000.0001)  ploadbar=  1.01055803144007E+05
 cg2d: Sum(rhs),rhsMax =  -4.66705672855847E+01  2.08397972082974E+00
(PID.TID 0000.0001)  ploadbar=  1.01056500444550E+05
 cg2d: Sum(rhs),rhsMax =  -4.65690603401222E+01  2.08810703580404E+00
(PID.TID 0000.0001)  ploadbar=  1.01057197745093E+05
 cg2d: Sum(rhs),rhsMax =  -4.64762574383181E+01  2.09185253945166E+00
(PID.TID 0000.0001)  ploadbar=  1.01057895045636E+05
 cg2d: Sum(rhs),rhsMax =  -4.63933714737979E+01  2.09515115638387E+00
(PID.TID 0000.0001)  ploadbar=  1.01058592346180E+05
 cg2d: Sum(rhs),rhsMax =  -4.63201504810269E+01  2.09800405650569E+00
(PID.TID 0000.0001)  ploadbar=  1.01059289646723E+05
 cg2d: Sum(rhs),rhsMax =  -4.62572859543955E+01  2.10036983233058E+00
(PID.TID 0000.0001)  ploadbar=  1.01059986947266E+05
 cg2d: Sum(rhs),rhsMax =  -4.62135948118775E+01  2.10189176087663E+00
(PID.TID 0000.0001)  ploadbar=  1.01061471055024E+05
 cg2d: Sum(rhs),rhsMax =  -4.61858327587664E+01  2.10270736432660E+00
(PID.TID 0000.0001)  ploadbar=  1.01062955162781E+05
 cg2d: Sum(rhs),rhsMax =  -4.61708231771629E+01  2.10295098921616E+00
(PID.TID 0000.0001)  ploadbar=  1.01064439270539E+05
 cg2d: Sum(rhs),rhsMax =  -4.61692046386735E+01  2.10258183059580E+00
(PID.TID 0000.0001)  ploadbar=  1.01065923378296E+05
 cg2d: Sum(rhs),rhsMax =  -4.61810908345700E+01  2.10158465067096E+00
(PID.TID 0000.0001)  ploadbar=  1.01067407486054E+05
 cg2d: Sum(rhs),rhsMax =  -4.62054481153892E+01  2.09999919077419E+00
(PID.TID 0000.0001)  ploadbar=  1.01068891593811E+05
 cg2d: Sum(rhs),rhsMax =  -4.62436970918998E+01  2.09776194563919E+00
(PID.TID 0000.0001)  ploadbar=  1.01068692750907E+05
 cg2d: Sum(rhs),rhsMax =  -4.62931279366852E+01  2.09498710278735E+00
(PID.TID 0000.0001)  ploadbar=  1.01068493908002E+05
 cg2d: Sum(rhs),rhsMax =  -4.63482203896410E+01  2.09192351484352E+00
(PID.TID 0000.0001)  ploadbar=  1.01068295065098E+05
 cg2d: Sum(rhs),rhsMax =  -4.64080568436797E+01  2.08860856432623E+00
(PID.TID 0000.0001)  ploadbar=  1.01068096222193E+05
 cg2d: Sum(rhs),rhsMax =  -4.64726098162220E+01  2.08503875150926E+00
(PID.TID 0000.0001)  ploadbar=  1.01067897379289E+05
 cg2d: Sum(rhs),rhsMax =  -4.65411403102035E+01  2.08124544290445E+00
(PID.TID 0000.0001)  ploadbar=  1.01067698536384E+05
 cg2d: Sum(rhs),rhsMax =  -4.66132016510344E+01  2.07739051565609E+00
(PID.TID 0000.0001)  ploadbar=  1.01068368803043E+05
 cg2d: Sum(rhs),rhsMax =  -4.66948813445870E+01  2.07320188221916E+00
(PID.TID 0000.0001)  ploadbar=  1.01069039069702E+05
 cg2d: Sum(rhs),rhsMax =  -4.67820159715829E+01  2.06886394281194E+00
(PID.TID 0000.0001)  ploadbar=  1.01069709336361E+05
 cg2d: Sum(rhs),rhsMax =  -4.68737048034252E+01  2.06441584029999E+00
(PID.TID 0000.0001)  ploadbar=  1.01070379603020E+05
 cg2d: Sum(rhs),rhsMax =  -4.69702192066363E+01  2.05983718837470E+00
(PID.TID 0000.0001)  ploadbar=  1.01071049869679E+05
 cg2d: Sum(rhs),rhsMax =  -4.70715286703872E+01  2.05512568470589E+00
(PID.TID 0000.0001)  ploadbar=  1.01071720136338E+05
 cg2d: Sum(rhs),rhsMax =  -4.71639038371243E+01  2.05086817329742E+00
(PID.TID 0000.0001)  ploadbar=  1.01072942513307E+05
 cg2d: Sum(rhs),rhsMax =  -4.72611432901352E+01  2.04645981172281E+00
(PID.TID 0000.0001)  ploadbar=  1.01074164890276E+05
 cg2d: Sum(rhs),rhsMax =  -4.73646750577097E+01  2.04183576598870E+00
(PID.TID 0000.0001)  ploadbar=  1.01075387267245E+05
 cg2d: Sum(rhs),rhsMax =  -4.74723290673112E+01  2.03708579695359E+00
(PID.TID 0000.0001)  ploadbar=  1.01076609644214E+05
 cg2d: Sum(rhs),rhsMax =  -4.75835894809058E+01  2.03222557237662E+00
(PID.TID 0000.0001)  ploadbar=  1.01077832021183E+05
 cg2d: Sum(rhs),rhsMax =  -4.76981132132151E+01  2.02726004975613E+00
(PID.TID 0000.0001)  ploadbar=  1.01079054398153E+05
 cg2d: Sum(rhs),rhsMax =  -4.78171626761614E+01  2.02210548603027E+00
(PID.TID 0000.0001)  ploadbar=  1.01078975715657E+05
 cg2d: Sum(rhs),rhsMax =  -4.79393077463589E+01  2.01682016339505E+00
(PID.TID 0000.0001)  ploadbar=  1.01078897033161E+05
 cg2d: Sum(rhs),rhsMax =  -4.80653319840720E+01  2.01136776843299E+00
(PID.TID 0000.0001)  ploadbar=  1.01078818350665E+05
 cg2d: Sum(rhs),rhsMax =  -4.81931828216886E+01  2.00583208095070E+00
(PID.TID 0000.0001)  ploadbar=  1.01078739668169E+05
 cg2d: Sum(rhs),rhsMax =  -4.83204866503760E+01  2.00030631355575E+00
(PID.TID 0000.0001)  ploadbar=  1.01078660985673E+05
 cg2d: Sum(rhs),rhsMax =  -4.84460341209303E+01  1.99483396284905E+00
(PID.TID 0000.0001)  ploadbar=  1.01078582303177E+05
 cg2d: Sum(rhs),rhsMax =  -4.85687767695677E+01  1.98946264239315E+00
(PID.TID 0000.0001)  ploadbar=  1.01078540943981E+05
 cg2d: Sum(rhs),rhsMax =  -4.86897164690669E+01  1.98414351781143E+00
(PID.TID 0000.0001)  ploadbar=  1.01078499584785E+05
 cg2d: Sum(rhs),rhsMax =  -4.88097735212576E+01  1.97883393287841E+00
(PID.TID 0000.0001)  ploadbar=  1.01078458225589E+05
 cg2d: Sum(rhs),rhsMax =  -4.89284002786506E+01  1.97355321194883E+00
(PID.TID 0000.0001)  ploadbar=  1.01078416866393E+05
 cg2d: Sum(rhs),rhsMax =  -4.90448195376618E+01  1.96832974711139E+00
(PID.TID 0000.0001)  ploadbar=  1.01078375507197E+05
 cg2d: Sum(rhs),rhsMax =  -4.91583520952647E+01  1.96318652788313E+00
(PID.TID 0000.0001)  ploadbar=  1.01078334148001E+05
 cg2d: Sum(rhs),rhsMax =  -4.92803360915139E+01  1.95782468671299E+00
(PID.TID 0000.0001)  ploadbar=  1.01079350392767E+05
 cg2d: Sum(rhs),rhsMax =  -4.94010304403590E+01  1.95262992115683E+00
(PID.TID 0000.0001)  ploadbar=  1.01080366637532E+05
 cg2d: Sum(rhs),rhsMax =  -4.95200574112775E+01  1.94761158857975E+00
(PID.TID 0000.0001)  ploadbar=  1.01081382882298E+05
 cg2d: Sum(rhs),rhsMax =  -4.96385779976181E+01  1.94271928153728E+00
(PID.TID 0000.0001)  ploadbar=  1.01082399127064E+05
 cg2d: Sum(rhs),rhsMax =  -4.97572307755448E+01  1.93792159424619E+00
(PID.TID 0000.0001)  ploadbar=  1.01083415371829E+05
 cg2d: Sum(rhs),rhsMax =  -4.98752054010850E+01  1.93324271944485E+00
(PID.TID 0000.0001)  ploadbar=  1.01084431616595E+05
 cg2d: Sum(rhs),rhsMax =  -4.99953959096266E+01  1.92852182267390E+00
(PID.TID 0000.0001)  ploadbar=  1.01084421160623E+05
 cg2d: Sum(rhs),rhsMax =  -5.01148083875302E+01  1.92387160878414E+00
(PID.TID 0000.0001)  ploadbar=  1.01084410704651E+05
 cg2d: Sum(rhs),rhsMax =  -5.02297168623104E+01  1.91943063137917E+00
(PID.TID 0000.0001)  ploadbar=  1.01084400248679E+05
 cg2d: Sum(rhs),rhsMax =  -5.03426463839438E+01  1.91509261179021E+00
(PID.TID 0000.0001)  ploadbar=  1.01084389792707E+05
 cg2d: Sum(rhs),rhsMax =  -5.04556082303446E+01  1.91077700374345E+00
(PID.TID 0000.0001)  ploadbar=  1.01084379336735E+05
 cg2d: Sum(rhs),rhsMax =  -5.05689007027129E+01  1.90646767960224E+00
(PID.TID 0000.0001)  ploadbar=  1.01084368880763E+05
 cg2d: Sum(rhs),rhsMax =  -5.06794336450891E+01  1.90226642751947E+00
(PID.TID 0000.0001)  ploadbar=  1.01084777539960E+05
 cg2d: Sum(rhs),rhsMax =  -5.07901094486261E+01  1.89805972831552E+00
(PID.TID 0000.0001)  ploadbar=  1.01085186199157E+05
 cg2d: Sum(rhs),rhsMax =  -5.08982174150069E+01  1.89394551863603E+00
(PID.TID 0000.0001)  ploadbar=  1.01085594858354E+05
 cg2d: Sum(rhs),rhsMax =  -5.10034799307727E+01  1.88993038132857E+00
(PID.TID 0000.0001)  ploadbar=  1.01086003517551E+05
 cg2d: Sum(rhs),rhsMax =  -5.11055318167012E+01  1.88602117664991E+00
(PID.TID 0000.0001)  ploadbar=  1.01086412176749E+05
 cg2d: Sum(rhs),rhsMax =  -5.12040286643512E+01  1.88222561378536E+00
(PID.TID 0000.0001)  ploadbar=  1.01086820835946E+05
 cg2d: Sum(rhs),rhsMax =  -5.12983069056821E+01  1.87854501842491E+00
(PID.TID 0000.0001)  ploadbar=  1.01086353845880E+05
 cg2d: Sum(rhs),rhsMax =  -5.13903268787983E+01  1.87490411741756E+00
(PID.TID 0000.0001)  ploadbar=  1.01085886855814E+05
 cg2d: Sum(rhs),rhsMax =  -5.14794593049916E+01  1.87132302237409E+00
(PID.TID 0000.0001)  ploadbar=  1.01085419865749E+05
 cg2d: Sum(rhs),rhsMax =  -5.15653974386769E+01  1.86780679882387E+00
(PID.TID 0000.0001)  ploadbar=  1.01084952875683E+05
 cg2d: Sum(rhs),rhsMax =  -5.16436151327273E+01  1.86451251794815E+00
(PID.TID 0000.0001)  ploadbar=  1.01084485885617E+05
 cg2d: Sum(rhs),rhsMax =  -5.17102469562281E+01  1.86157550339810E+00
(PID.TID 0000.0001)  ploadbar=  1.01084018895551E+05
 cg2d: Sum(rhs),rhsMax =  -5.17724925920924E+01  1.85888610313554E+00
(PID.TID 0000.0001)  ploadbar=  1.01082179717137E+05
 cg2d: Sum(rhs),rhsMax =  -5.18256293116239E+01  1.85660597764304E+00
(PID.TID 0000.0001)  ploadbar=  1.01080340538722E+05
 cg2d: Sum(rhs),rhsMax =  -5.18733879731814E+01  1.85459257598499E+00
(PID.TID 0000.0001)  ploadbar=  1.01078501360308E+05
 cg2d: Sum(rhs),rhsMax =  -5.19175799005840E+01  1.85277518689901E+00
(PID.TID 0000.0001)  ploadbar=  1.01076662181893E+05
 cg2d: Sum(rhs),rhsMax =  -5.19583433689621E+01  1.85114507716439E+00
(PID.TID 0000.0001)  ploadbar=  1.01074823003479E+05
 cg2d: Sum(rhs),rhsMax =  -5.19960768635552E+01  1.84968462398659E+00
(PID.TID 0000.0001)  ploadbar=  1.01072983825064E+05
 cg2d: Sum(rhs),rhsMax =  -5.20260759619636E+01  1.84852268061813E+00
(PID.TID 0000.0001)  ploadbar=  1.01071853264084E+05
 cg2d: Sum(rhs),rhsMax =  -5.20484308857849E+01  1.84765120631109E+00
(PID.TID 0000.0001)  ploadbar=  1.01070722703104E+05
 cg2d: Sum(rhs),rhsMax =  -5.20618645931367E+01  1.84711089299904E+00
(PID.TID 0000.0001)  ploadbar=  1.01069592142123E+05
 cg2d: Sum(rhs),rhsMax =  -5.20669348839866E+01  1.84687790756666E+00
(PID.TID 0000.0001)  ploadbar=  1.01068461581143E+05
 cg2d: Sum(rhs),rhsMax =  -5.20640428352491E+01  1.84693234230110E+00
(PID.TID 0000.0001)  ploadbar=  1.01067331020163E+05
 cg2d: Sum(rhs),rhsMax =  -5.20532124924387E+01  1.84727077157573E+00
(PID.TID 0000.0001)  ploadbar=  1.01066200459182E+05
 cg2d: Sum(rhs),rhsMax =  -5.20291326475996E+01  1.84808111548615E+00
(PID.TID 0000.0001)  ploadbar=  1.01066924826054E+05
 cg2d: Sum(rhs),rhsMax =  -5.19953208208016E+01  1.84923613141457E+00
(PID.TID 0000.0001)  ploadbar=  1.01067649192925E+05
 cg2d: Sum(rhs),rhsMax =  -5.19502852909372E+01  1.85078460984605E+00
(PID.TID 0000.0001)  ploadbar=  1.01068373559797E+05
 cg2d: Sum(rhs),rhsMax =  -5.18927312221345E+01  1.85276907472462E+00
(PID.TID 0000.0001)  ploadbar=  1.01069097926669E+05
 cg2d: Sum(rhs),rhsMax =  -5.18222785754449E+01  1.85519994403483E+00
(PID.TID 0000.0001)  ploadbar=  1.01069822293540E+05
 cg2d: Sum(rhs),rhsMax =  -5.17389460703981E+01  1.85807481635786E+00
(PID.TID 0000.0001)  ploadbar=  1.01070546660412E+05
 cg2d: Sum(rhs),rhsMax =  -5.16498060812007E+01  1.86112580581164E+00
(PID.TID 0000.0001)  ploadbar=  1.01069638644633E+05
 cg2d: Sum(rhs),rhsMax =  -5.15535551908335E+01  1.86439868013510E+00
(PID.TID 0000.0001)  ploadbar=  1.01068730628854E+05
 cg2d: Sum(rhs),rhsMax =  -5.14505077511192E+01  1.86787773892733E+00
(PID.TID 0000.0001)  ploadbar=  1.01067822613075E+05
 cg2d: Sum(rhs),rhsMax =  -5.13472611914452E+01  1.87131925411477E+00
(PID.TID 0000.0001)  ploadbar=  1.01066914597296E+05
 cg2d: Sum(rhs),rhsMax =  -5.12505470272721E+01  1.87447453153212E+00
(PID.TID 0000.0001)  ploadbar=  1.01066006581517E+05
 cg2d: Sum(rhs),rhsMax =  -5.11595404368325E+01  1.87736439567166E+00
(PID.TID 0000.0001)  ploadbar=  1.01065098565738E+05
 cg2d: Sum(rhs),rhsMax =  -5.10585448019635E+01  1.88068225671795E+00
(PID.TID 0000.0001)  ploadbar=  1.01064009867662E+05
 cg2d: Sum(rhs),rhsMax =  -5.09577936370957E+01  1.88404711543358E+00
(PID.TID 0000.0001)  ploadbar=  1.01062921169586E+05
 cg2d: Sum(rhs),rhsMax =  -5.08578761788064E+01  1.88743225303352E+00
(PID.TID 0000.0001)  ploadbar=  1.01061832471511E+05
 cg2d: Sum(rhs),rhsMax =  -5.07524796412767E+01  1.89106733329020E+00
(PID.TID 0000.0001)  ploadbar=  1.01060743773435E+05
 cg2d: Sum(rhs),rhsMax =  -5.06377394134529E+01  1.89509328988647E+00
(PID.TID 0000.0001)  ploadbar=  1.01059655075359E+05
 cg2d: Sum(rhs),rhsMax =  -5.05131258723087E+01  1.89952772070621E+00
(PID.TID 0000.0001)  ploadbar=  1.01058566377283E+05
 cg2d: Sum(rhs),rhsMax =  -5.03684071037037E+01  1.90471382647964E+00
(PID.TID 0000.0001)  ploadbar=  1.01059428007307E+05
 cg2d: Sum(rhs),rhsMax =  -5.02126734428229E+01  1.91031261558496E+00
(PID.TID 0000.0001)  ploadbar=  1.01060289637331E+05
 cg2d: Sum(rhs),rhsMax =  -5.00447019902362E+01  1.91637526791559E+00
(PID.TID 0000.0001)  ploadbar=  1.01061151267355E+05
 cg2d: Sum(rhs),rhsMax =  -4.98621643444279E+01  1.92299455287489E+00
(PID.TID 0000.0001)  ploadbar=  1.01062012897379E+05
 cg2d: Sum(rhs),rhsMax =  -4.96668917966029E+01  1.93010738377574E+00
(PID.TID 0000.0001)  ploadbar=  1.01062874527403E+05
 cg2d: Sum(rhs),rhsMax =  -4.94620989990425E+01  1.93759424861062E+00
(PID.TID 0000.0001)  ploadbar=  1.01063736157427E+05
 cg2d: Sum(rhs),rhsMax =  -4.92212838556981E+01  1.94658009082939E+00
(PID.TID 0000.0001)  ploadbar=  1.01065331110463E+05
 cg2d: Sum(rhs),rhsMax =  -4.89747643597277E+01  1.95589298064145E+00
(PID.TID 0000.0001)  ploadbar=  1.01066926063499E+05
 cg2d: Sum(rhs),rhsMax =  -4.87416466336926E+01  1.96476682655726E+00
(PID.TID 0000.0001)  ploadbar=  1.01068521016535E+05
 cg2d: Sum(rhs),rhsMax =  -4.85308727194196E+01  1.97281779697764E+00
(PID.TID 0000.0001)  ploadbar=  1.01070115969571E+05
 cg2d: Sum(rhs),rhsMax =  -4.83594564800292E+01  1.97931994349846E+00
(PID.TID 0000.0001)  ploadbar=  1.01071710922607E+05
 cg2d: Sum(rhs),rhsMax =  -4.82454346963754E+01  1.98349161291506E+00
(PID.TID 0000.0001)  ploadbar=  1.01073305875643E+05
 cg2d: Sum(rhs),rhsMax =  -4.82627566139476E+01  1.98221257286568E+00
(PID.TID 0000.0001)  ploadbar=  1.01073857102402E+05
 cg2d: Sum(rhs),rhsMax =  -4.83362403947276E+01  1.97857321780496E+00
(PID.TID 0000.0001)  ploadbar=  1.01074408329161E+05
 cg2d: Sum(rhs),rhsMax =  -4.84629834473583E+01  1.97271324219318E+00
(PID.TID 0000.0001)  ploadbar=  1.01074959555920E+05
 cg2d: Sum(rhs),rhsMax =  -4.86327139184616E+01  1.96508190552146E+00
(PID.TID 0000.0001)  ploadbar=  1.01075510782680E+05
 cg2d: Sum(rhs),rhsMax =  -4.88454375204545E+01  1.95571513981736E+00
(PID.TID 0000.0001)  ploadbar=  1.01076062009439E+05
 cg2d: Sum(rhs),rhsMax =  -4.91037873795590E+01  1.94455261146902E+00
(PID.TID 0000.0001)  ploadbar=  1.01076613236198E+05
 cg2d: Sum(rhs),rhsMax =  -4.94259604254675E+01  1.93109561504000E+00
(PID.TID 0000.0001)  ploadbar=  1.01077637433040E+05
 cg2d: Sum(rhs),rhsMax =  -4.97568382660517E+01  1.91755641562694E+00
(PID.TID 0000.0001)  ploadbar=  1.01078661629883E+05
 cg2d: Sum(rhs),rhsMax =  -5.00785864608156E+01  1.90461933431300E+00
(PID.TID 0000.0001)  ploadbar=  1.01079685826725E+05
 cg2d: Sum(rhs),rhsMax =  -5.03856107740173E+01  1.89247274423260E+00
(PID.TID 0000.0001)  ploadbar=  1.01080710023567E+05
 cg2d: Sum(rhs),rhsMax =  -5.06693353269999E+01  1.88140411279021E+00
(PID.TID 0000.0001)  ploadbar=  1.01081734220409E+05
 cg2d: Sum(rhs),rhsMax =  -5.09281290518723E+01  1.87143728690984E+00
(PID.TID 0000.0001)  ploadbar=  1.01082758417252E+05
 cg2d: Sum(rhs),rhsMax =  -5.11684292027391E+01  1.86224842480316E+00
(PID.TID 0000.0001)  ploadbar=  1.01083109795349E+05
 cg2d: Sum(rhs),rhsMax =  -5.13656368576922E+01  1.85470366816572E+00
(PID.TID 0000.0001)      cg2d_init_res =   1.80476212350764E-01
(PID.TID 0000.0001)      cg2d_iters(min,last) =      -1     132
(PID.TID 0000.0001)      cg2d_last_res =   9.48589563118950E-08
(PID.TID 0000.0001) // =======================================================
(PID.TID 0000.0001) // Begin MONITOR dynamic field statistics
(PID.TID 0000.0001) // =======================================================
(PID.TID 0000.0001) %MON time_tsnumber                =                 10512
(PID.TID 0000.0001) %MON time_secondsf                =   3.7843200000000E+07
(PID.TID 0000.0001) %MON dynstat_eta_max              =   1.0910152893311E+00
(PID.TID 0000.0001) %MON dynstat_eta_min              =  -6.6559708816838E+00
(PID.TID 0000.0001) %MON dynstat_eta_mean             =   4.8218115456860E-02
(PID.TID 0000.0001) %MON dynstat_eta_sd               =   7.4796254968146E-01
(PID.TID 0000.0001) %MON dynstat_eta_del2             =   2.1274080954153E-04
(PID.TID 0000.0001) %MON dynstat_uvel_max             =   1.3065252584916E+00
(PID.TID 0000.0001) %MON dynstat_uvel_min             =  -7.9641360314439E-01
(PID.TID 0000.0001) %MON dynstat_uvel_mean            =   1.4379526854903E-03
(PID.TID 0000.0001) %MON dynstat_uvel_sd              =   2.0985569113944E-02
(PID.TID 0000.0001) %MON dynstat_uvel_del2            =   9.0616373640367E-06
(PID.TID 0000.0001) %MON dynstat_vvel_max             =   1.1682911280885E+00
(PID.TID 0000.0001) %MON dynstat_vvel_min             =  -9.3635198426126E-01
(PID.TID 0000.0001) %MON dynstat_vvel_mean            =   1.1496009570028E-03
(PID.TID 0000.0001) %MON dynstat_vvel_sd              =   2.2056643406968E-02
(PID.TID 0000.0001) %MON dynstat_vvel_del2            =   9.3117675327372E-06
(PID.TID 0000.0001) %MON dynstat_wvel_max             =   4.8205644749125E-04
(PID.TID 0000.0001) %MON dynstat_wvel_min             =  -1.0082776719308E-03
(PID.TID 0000.0001) %MON dynstat_wvel_mean            =   1.4273632374214E-08
(PID.TID 0000.0001) %MON dynstat_wvel_sd              =   2.3208303511229E-05
(PID.TID 0000.0001) %MON dynstat_wvel_del2            =   1.7523120032906E-08
(PID.TID 0000.0001) %MON dynstat_theta_max            =   3.0908787496038E+01
(PID.TID 0000.0001) %MON dynstat_theta_min            =  -1.9726693512995E+00
(PID.TID 0000.0001) %MON dynstat_theta_mean           =   3.5858229756921E+00
(PID.TID 0000.0001) %MON dynstat_theta_sd             =   4.4348682617670E+00
(PID.TID 0000.0001) %MON dynstat_theta_del2           =   8.9374575687819E-05
(PID.TID 0000.0001) %MON dynstat_salt_max             =   4.0645378631364E+01
(PID.TID 0000.0001) %MON dynstat_salt_min             =   2.4774053082491E+01
(PID.TID 0000.0001) %MON dynstat_salt_mean            =   3.4727188847305E+01
(PID.TID 0000.0001) %MON dynstat_salt_sd              =   3.7614303938501E-01
(PID.TID 0000.0001) %MON dynstat_salt_del2            =   1.9865359721840E-05
(PID.TID 0000.0001) %MON dynstat_sst_max              =   3.0908787496038E+01
(PID.TID 0000.0001) %MON dynstat_sst_min              =  -1.9606601295849E+00
(PID.TID 0000.0001) %MON dynstat_sst_mean             =   1.8427478324990E+01
(PID.TID 0000.0001) %MON dynstat_sst_sd               =   1.0180466060727E+01
(PID.TID 0000.0001) %MON dynstat_sst_del2             =   6.7577909469417E-04
(PID.TID 0000.0001) %MON dynstat_sss_max              =   3.9933681460230E+01
(PID.TID 0000.0001) %MON dynstat_sss_min              =   2.4774053082491E+01
(PID.TID 0000.0001) %MON dynstat_sss_mean             =   3.4754619864003E+01
(PID.TID 0000.0001) %MON dynstat_sss_sd               =   1.1591379400179E+00
(PID.TID 0000.0001) %MON dynstat_sss_del2             =   3.1161113487902E-04
(PID.TID 0000.0001) %MON forcing_qnet_max             =   1.6187766424835E+03
(PID.TID 0000.0001) %MON forcing_qnet_min             =  -5.7977024601084E+02
(PID.TID 0000.0001) %MON forcing_qnet_mean            =   1.6963826317155E+01
(PID.TID 0000.0001) %MON forcing_qnet_sd              =   2.0025791505871E+02
(PID.TID 0000.0001) %MON forcing_qnet_del2            =   1.0524256026873E-01
(PID.TID 0000.0001) %MON forcing_qsw_max              =   6.0419119944407E+01
(PID.TID 0000.0001) %MON forcing_qsw_min              =  -6.3871023562478E+02
(PID.TID 0000.0001) %MON forcing_qsw_mean             =  -1.4833971057790E+02
(PID.TID 0000.0001) %MON forcing_qsw_sd               =   1.6475180456800E+02
(PID.TID 0000.0001) %MON forcing_qsw_del2             =   5.1738874281513E-02
(PID.TID 0000.0001) %MON forcing_empmr_max            =   1.4167309545095E-03
(PID.TID 0000.0001) %MON forcing_empmr_min            =  -4.2998305373871E-03
(PID.TID 0000.0001) %MON forcing_empmr_mean           =   2.9355661171944E-06
(PID.TID 0000.0001) %MON forcing_empmr_sd             =   1.0395121566979E-04
(PID.TID 0000.0001) %MON forcing_empmr_del2           =   2.8154476240957E-07
(PID.TID 0000.0001) %MON forcing_fu_max               =   1.2855952598996E+00
(PID.TID 0000.0001) %MON forcing_fu_min               =  -1.4368111093839E+00
(PID.TID 0000.0001) %MON forcing_fu_mean              =   1.1803408471286E-02
(PID.TID 0000.0001) %MON forcing_fu_sd                =   1.3840719541311E-01
(PID.TID 0000.0001) %MON forcing_fu_del2              =   7.4664959919768E-05
(PID.TID 0000.0001) %MON forcing_fv_max               =   1.7922726074855E+00
(PID.TID 0000.0001) %MON forcing_fv_min               =  -1.3469048765108E+00
(PID.TID 0000.0001) %MON forcing_fv_mean              =   4.2620992071066E-03
(PID.TID 0000.0001) %MON forcing_fv_sd                =   1.4370702878141E-01
(PID.TID 0000.0001) %MON forcing_fv_del2              =   7.9995725837834E-05
(PID.TID 0000.0001) %MON trAdv_CFL_u_max              =   5.3325683034285E-02
(PID.TID 0000.0001) %MON trAdv_CFL_v_max              =   6.0465588917054E-02
(PID.TID 0000.0001) %MON trAdv_CFL_w_max              =   1.6704503805192E-01
(PID.TID 0000.0001) %MON advcfl_uvel_max              =   5.6973974613391E-02
(PID.TID 0000.0001) %MON advcfl_vvel_max              =   5.4933320575984E-02
(PID.TID 0000.0001) %MON advcfl_wvel_max              =   1.6853271423396E-01
(PID.TID 0000.0001) %MON advcfl_W_hf_max              =   1.7031069154517E-01
(PID.TID 0000.0001) %MON pe_b_mean                    =   1.6061129041336E-03
(PID.TID 0000.0001) %MON ke_max                       =   8.4064632244186E-01
(PID.TID 0000.0001) %MON ke_mean                      =   4.4857603108019E-04
(PID.TID 0000.0001) %MON ke_vol                       =   1.3350151433699E+18
(PID.TID 0000.0001) %MON vort_r_min                   =  -2.9412058544667E-05
(PID.TID 0000.0001) %MON vort_r_max                   =   1.6968050247182E-05
(PID.TID 0000.0001) %MON vort_a_mean                  =  -1.9727864647440E-05
(PID.TID 0000.0001) %MON vort_a_sd                    =   7.4543128330915E-05
(PID.TID 0000.0001) %MON vort_p_mean                  =  -2.1760229267251E-05
(PID.TID 0000.0001) %MON vort_p_sd                    =   9.7244807248532E-05
(PID.TID 0000.0001) %MON surfExpan_theta_mean         =   2.1806555246323E-07
(PID.TID 0000.0001) %MON surfExpan_salt_mean          =   1.4201791427129E-08
(PID.TID 0000.0001) // =======================================================
(PID.TID 0000.0001) // End MONITOR dynamic field statistics
(PID.TID 0000.0001) // =======================================================
(PID.TID 0000.0001)  ploadbar=  1.01083461173447E+05
(PID.TID 0000.0001) %SBO sbo_mass                     =   1.3737567999687E+21
(PID.TID 0000.0001) %SBO sbo_mass_fw                  =   4.3984598172783E+16
(PID.TID 0000.0001) %SBO sbo_zoamc                    =   1.2770897794221E+25
(PID.TID 0000.0001) %SBO sbo_zoamp                    =   2.9276642953398E+30
(PID.TID 0000.0001) // =======================================================
(PID.TID 0000.0001) // Begin MONITOR SEAICE statistics
(PID.TID 0000.0001) // =======================================================
(PID.TID 0000.0001) %MON seaice_tsnumber              =                 10512
(PID.TID 0000.0001) %MON seaice_time_sec              =   3.7843200000000E+07
(PID.TID 0000.0001) %MON seaice_uice_max              =   4.0000000000000E-01
(PID.TID 0000.0001) %MON seaice_uice_min              =  -4.0000000000000E-01
(PID.TID 0000.0001) %MON seaice_uice_mean             =   1.2972075568311E-02
(PID.TID 0000.0001) %MON seaice_uice_sd               =   1.7487348883316E-01
(PID.TID 0000.0001) %MON seaice_uice_del2             =   1.4296605023754E-04
(PID.TID 0000.0001) %MON seaice_vice_max              =   4.0000000000000E-01
(PID.TID 0000.0001) %MON seaice_vice_min              =  -4.0000000000000E-01
(PID.TID 0000.0001) %MON seaice_vice_mean             =  -7.6428739495591E-03
(PID.TID 0000.0001) %MON seaice_vice_sd               =   1.7644995494241E-01
(PID.TID 0000.0001) %MON seaice_vice_del2             =   1.4538356362807E-04
(PID.TID 0000.0001) %MON seaice_area_max              =   9.7000000000000E-01
(PID.TID 0000.0001) %MON seaice_area_min              =   0.0000000000000E+00
(PID.TID 0000.0001) %MON seaice_area_mean             =   5.1873838440152E-02
(PID.TID 0000.0001) %MON seaice_area_sd               =   2.1119645453757E-01
(PID.TID 0000.0001) %MON seaice_area_del2             =   2.2671672146643E-04
(PID.TID 0000.0001) %MON seaice_heff_max              =   6.7975821586792E+00
(PID.TID 0000.0001) %MON seaice_heff_min              =   0.0000000000000E+00
(PID.TID 0000.0001) %MON seaice_heff_mean             =   7.6959368163756E-02
(PID.TID 0000.0001) %MON seaice_heff_sd               =   3.8821372305627E-01
(PID.TID 0000.0001) %MON seaice_heff_del2             =   2.1481518736022E-04
(PID.TID 0000.0001) %MON seaice_hsnow_max             =   1.0938772178104E+00
(PID.TID 0000.0001) %MON seaice_hsnow_min             =  -7.1311143139944E-05
(PID.TID 0000.0001) %MON seaice_hsnow_mean            =   9.7205557937452E-03
(PID.TID 0000.0001) %MON seaice_hsnow_sd              =   5.0299262414555E-02
(PID.TID 0000.0001) %MON seaice_hsnow_del2            =   4.7936296336507E-05
(PID.TID 0000.0001) // =======================================================
(PID.TID 0000.0001) // End MONITOR SEAICE statistics
(PID.TID 0000.0001) // =======================================================
(PID.TID 0000.0001) // =======================================================
(PID.TID 0000.0001) // Begin MONITOR EXF statistics
(PID.TID 0000.0001) // =======================================================
(PID.TID 0000.0001) %MON exf_tsnumber                 =                 10512
(PID.TID 0000.0001) %MON exf_time_sec                 =   3.7843200000000E+07
(PID.TID 0000.0001) %MON exf_ustress_max              =   1.3173592090607E+00
(PID.TID 0000.0001) %MON exf_ustress_min              =  -1.6459183692932E+00
(PID.TID 0000.0001) %MON exf_ustress_mean             =   1.1364943364971E-02
(PID.TID 0000.0001) %MON exf_ustress_sd               =   1.3680485316432E-01
(PID.TID 0000.0001) %MON exf_ustress_del2             =   9.6399659763053E-05
(PID.TID 0000.0001) %MON exf_vstress_max              =   1.7689213156700E+00
(PID.TID 0000.0001) %MON exf_vstress_min              =  -2.7178792953491E+00
(PID.TID 0000.0001) %MON exf_vstress_mean             =   5.1167831079845E-03
(PID.TID 0000.0001) %MON exf_vstress_sd               =   1.4428809823895E-01
(PID.TID 0000.0001) %MON exf_vstress_del2             =   1.0633712081367E-04
(PID.TID 0000.0001) %MON exf_hflux_max                =   1.4818190932827E+03
(PID.TID 0000.0001) %MON exf_hflux_min                =  -5.6683664940260E+02
(PID.TID 0000.0001) %MON exf_hflux_mean               =   3.4938464404476E+01
(PID.TID 0000.0001) %MON exf_hflux_sd                 =   2.1978853167286E+02
(PID.TID 0000.0001) %MON exf_hflux_del2               =   3.7374459817378E-01
(PID.TID 0000.0001) %MON exf_sflux_max                =   4.0250205935823E-07
(PID.TID 0000.0001) %MON exf_sflux_min                =  -4.2679292513683E-06
(PID.TID 0000.0001) %MON exf_sflux_mean               =   1.0343533664473E-09
(PID.TID 0000.0001) %MON exf_sflux_sd                 =   9.7211708689821E-08
(PID.TID 0000.0001) %MON exf_sflux_del2               =   1.9160349497598E-10
(PID.TID 0000.0001) %MON exf_wspeed_max               =   2.3972170829773E+01
(PID.TID 0000.0001) %MON exf_wspeed_min               =   4.0680915117264E-01
(PID.TID 0000.0001) %MON exf_wspeed_mean              =   7.0009154098237E+00
(PID.TID 0000.0001) %MON exf_wspeed_sd                =   3.5892124374914E+00
(PID.TID 0000.0001) %MON exf_wspeed_del2              =   1.2637766016936E-02
(PID.TID 0000.0001) %MON exf_atemp_max                =   3.0672969284058E+02
(PID.TID 0000.0001) %MON exf_atemp_min                =   2.2567059745789E+02
(PID.TID 0000.0001) %MON exf_atemp_mean               =   2.8920474784090E+02
(PID.TID 0000.0001) %MON exf_atemp_sd                 =   1.2892238005608E+01
(PID.TID 0000.0001) %MON exf_atemp_del2               =   2.7077265837827E-02
(PID.TID 0000.0001) %MON exf_aqh_max                  =   2.1373907104135E-02
(PID.TID 0000.0001) %MON exf_aqh_min                  =  -1.1093865032308E-04
(PID.TID 0000.0001) %MON exf_aqh_mean                 =   1.1012636537463E-02
(PID.TID 0000.0001) %MON exf_aqh_sd                   =   5.7680898893743E-03
(PID.TID 0000.0001) %MON exf_aqh_del2                 =   1.4884550699720E-05
(PID.TID 0000.0001) %MON exf_lwflux_max               =   2.2857470646075E+02
(PID.TID 0000.0001) %MON exf_lwflux_min               =  -3.0544907769333E+01
(PID.TID 0000.0001) %MON exf_lwflux_mean              =   4.8456610261085E+01
(PID.TID 0000.0001) %MON exf_lwflux_sd                =   2.8794353494234E+01
(PID.TID 0000.0001) %MON exf_lwflux_del2              =   9.4522031563306E-02
(PID.TID 0000.0001) %MON exf_evap_max                 =   4.1780431696669E-07
(PID.TID 0000.0001) %MON exf_evap_min                 =  -1.2033141736522E-07
(PID.TID 0000.0001) %MON exf_evap_mean                =   4.4134737738701E-08
(PID.TID 0000.0001) %MON exf_evap_sd                  =   3.5033108653913E-08
(PID.TID 0000.0001) %MON exf_evap_del2                =   7.4572516354939E-11
(PID.TID 0000.0001) %MON exf_precip_max               =   2.4043725375122E-06
(PID.TID 0000.0001) %MON exf_precip_min               =  -2.4749696514448E-08
(PID.TID 0000.0001) %MON exf_precip_mean              =   3.9473109763900E-08
(PID.TID 0000.0001) %MON exf_precip_sd                =   7.3878504505014E-08
(PID.TID 0000.0001) %MON exf_precip_del2              =   1.8512900278316E-10
(PID.TID 0000.0001) %MON exf_swflux_max               =   1.1805767162377E+02
(PID.TID 0000.0001) %MON exf_swflux_min               =  -5.7702978812058E+02
(PID.TID 0000.0001) %MON exf_swflux_mean              =  -1.5432302804070E+02
(PID.TID 0000.0001) %MON exf_swflux_sd                =   1.5938996466642E+02
(PID.TID 0000.0001) %MON exf_swflux_del2              =   2.7256273617074E-01
(PID.TID 0000.0001) %MON exf_swdown_max               =   6.2191586303711E+02
(PID.TID 0000.0001) %MON exf_swdown_min               =  -1.4900189971924E+02
(PID.TID 0000.0001) %MON exf_swdown_mean              =   1.6735082014819E+02
(PID.TID 0000.0001) %MON exf_swdown_sd                =   1.7230504665608E+02
(PID.TID 0000.0001) %MON exf_swdown_del2              =   2.9610935649341E-01
(PID.TID 0000.0001) %MON exf_lwdown_max               =   4.5584849548340E+02
(PID.TID 0000.0001) %MON exf_lwdown_min               =   7.1088562011719E+01
(PID.TID 0000.0001) %MON exf_lwdown_mean              =   3.6281893782123E+02
(PID.TID 0000.0001) %MON exf_lwdown_sd                =   6.5108446153490E+01
(PID.TID 0000.0001) %MON exf_lwdown_del2              =   4.8768144356379E-01
(PID.TID 0000.0001) %MON exf_apressure_max            =   1.0461806250000E+05
(PID.TID 0000.0001) %MON exf_apressure_min            =   9.6137640625000E+04
(PID.TID 0000.0001) %MON exf_apressure_mean           =   1.0108381255154E+05
(PID.TID 0000.0001) %MON exf_apressure_sd             =   1.0319047012006E+03
(PID.TID 0000.0001) %MON exf_apressure_del2           =   1.4503666419474E+02
(PID.TID 0000.0001) %MON exf_runoff_max               =   4.1616140845428E-06
(PID.TID 0000.0001) %MON exf_runoff_min               =   0.0000000000000E+00
(PID.TID 0000.0001) %MON exf_runoff_mean              =   3.6272746083540E-09
(PID.TID 0000.0001) %MON exf_runoff_sd                =   4.6684030161543E-08
(PID.TID 0000.0001) %MON exf_runoff_del2              =   3.2286004305861E-11
(PID.TID 0000.0001) // =======================================================
(PID.TID 0000.0001) // End MONITOR EXF statistics
(PID.TID 0000.0001) // =======================================================
 cg2d: Sum(rhs),rhsMax =  -5.15519468592136E+01  1.84760101887403E+00
(PID.TID 0000.0001)  ploadbar=  1.01083812551545E+05
 cg2d: Sum(rhs),rhsMax =  -5.17387384979014E+01  1.84052626988848E+00
(PID.TID 0000.0001)  ploadbar=  1.01084163929642E+05
 cg2d: Sum(rhs),rhsMax =  -5.19276229062185E+01  1.83341926579034E+00
(PID.TID 0000.0001)  ploadbar=  1.01084515307740E+05
 cg2d: Sum(rhs),rhsMax =  -5.21191096557247E+01  1.82626012930164E+00
(PID.TID 0000.0001)  ploadbar=  1.01084866685838E+05
 cg2d: Sum(rhs),rhsMax =  -5.23102156657183E+01  1.81915961126931E+00
(PID.TID 0000.0001)  ploadbar=  1.01084229772564E+05
 cg2d: Sum(rhs),rhsMax =  -5.25047573829441E+01  1.81198110835777E+00
(PID.TID 0000.0001)  ploadbar=  1.01083592859290E+05
 cg2d: Sum(rhs),rhsMax =  -5.27041609008696E+01  1.80467336859966E+00
(PID.TID 0000.0001)  ploadbar=  1.01082955946016E+05
 cg2d: Sum(rhs),rhsMax =  -5.29060500905198E+01  1.79731952423692E+00
(PID.TID 0000.0001)  ploadbar=  1.01082319032742E+05
 cg2d: Sum(rhs),rhsMax =  -5.31072174403070E+01  1.79002412916876E+00
(PID.TID 0000.0001)  ploadbar=  1.01081682119469E+05
 cg2d: Sum(rhs),rhsMax =  -5.33042514843280E+01  1.78289640398559E+00
(PID.TID 0000.0001)  ploadbar=  1.01081045206195E+05
 cg2d: Sum(rhs),rhsMax =  -5.34834389629743E+01  1.77637297813247E+00
(PID.TID 0000.0001)  ploadbar=  1.01080019786361E+05
 cg2d: Sum(rhs),rhsMax =  -5.36516851146697E+01  1.77021460800802E+00
(PID.TID 0000.0001)  ploadbar=  1.01078994366527E+05
 cg2d: Sum(rhs),rhsMax =  -5.38055744347168E+01  1.76452396991602E+00
(PID.TID 0000.0001)  ploadbar=  1.01077968946693E+05
 cg2d: Sum(rhs),rhsMax =  -5.39471187312513E+01  1.75922539682194E+00
(PID.TID 0000.0001)  ploadbar=  1.01076943526859E+05
 cg2d: Sum(rhs),rhsMax =  -5.40792726538173E+01  1.75421365416743E+00
(PID.TID 0000.0001)  ploadbar=  1.01075918107024E+05
 cg2d: Sum(rhs),rhsMax =  -5.42020458446810E+01  1.74947764466905E+00
(PID.TID 0000.0001)  ploadbar=  1.01074892687190E+05
 cg2d: Sum(rhs),rhsMax =  -5.43154656211601E+01  1.74512516860690E+00
(PID.TID 0000.0001)  ploadbar=  1.01074258354558E+05
 cg2d: Sum(rhs),rhsMax =  -5.44172080852861E+01  1.74122554621455E+00
(PID.TID 0000.0001)  ploadbar=  1.01073624021926E+05
 cg2d: Sum(rhs),rhsMax =  -5.45009304616248E+01  1.73797181265109E+00
(PID.TID 0000.0001)  ploadbar=  1.01072989689293E+05
 cg2d: Sum(rhs),rhsMax =  -5.45603476738752E+01  1.73555588129085E+00
(PID.TID 0000.0001)  ploadbar=  1.01072355356661E+05
 cg2d: Sum(rhs),rhsMax =  -5.45933664869360E+01  1.73403411562767E+00
(PID.TID 0000.0001)  ploadbar=  1.01071721024028E+05
 cg2d: Sum(rhs),rhsMax =  -5.45992267666408E+01  1.73342296685610E+00
(PID.TID 0000.0001)  ploadbar=  1.01071086691396E+05
 cg2d: Sum(rhs),rhsMax =  -5.45884887563298E+01  1.73332892292812E+00
(PID.TID 0000.0001)  ploadbar=  1.01069989446600E+05
 cg2d: Sum(rhs),rhsMax =  -5.45585800654837E+01  1.73383126846779E+00
(PID.TID 0000.0001)  ploadbar=  1.01068892201804E+05
 cg2d: Sum(rhs),rhsMax =  -5.45060672389148E+01  1.73503654983768E+00
(PID.TID 0000.0001)  ploadbar=  1.01067794957009E+05
 cg2d: Sum(rhs),rhsMax =  -5.44384590944898E+01  1.73670555476163E+00
(PID.TID 0000.0001)  ploadbar=  1.01066697712213E+05
 cg2d: Sum(rhs),rhsMax =  -5.43583298831609E+01  1.73875654882668E+00
(PID.TID 0000.0001)  ploadbar=  1.01065600467417E+05
 cg2d: Sum(rhs),rhsMax =  -5.42666078590778E+01  1.74116260780625E+00
(PID.TID 0000.0001)  ploadbar=  1.01064503222621E+05
 cg2d: Sum(rhs),rhsMax =  -5.41668450658305E+01  1.74386528859611E+00
(PID.TID 0000.0001)  ploadbar=  1.01062752309824E+05
 cg2d: Sum(rhs),rhsMax =  -5.40803789457222E+01  1.74617359451814E+00
(PID.TID 0000.0001)  ploadbar=  1.01061001397027E+05
 cg2d: Sum(rhs),rhsMax =  -5.39893940876791E+01  1.74865449329206E+00
(PID.TID 0000.0001)  ploadbar=  1.01059250484230E+05
 cg2d: Sum(rhs),rhsMax =  -5.38928941715988E+01  1.75133800971264E+00
(PID.TID 0000.0001)  ploadbar=  1.01057499571433E+05
 cg2d: Sum(rhs),rhsMax =  -5.37912930993423E+01  1.75420650838618E+00
(PID.TID 0000.0001)  ploadbar=  1.01055748658636E+05
 cg2d: Sum(rhs),rhsMax =  -5.36853432069301E+01  1.75722883229727E+00
(PID.TID 0000.0001)  ploadbar=  1.01053997745839E+05
 cg2d: Sum(rhs),rhsMax =  -5.35725118841715E+01  1.76045574093443E+00
(PID.TID 0000.0001)  ploadbar=  1.01053254086146E+05
 cg2d: Sum(rhs),rhsMax =  -5.34601987643641E+01  1.76364378114398E+00
(PID.TID 0000.0001)  ploadbar=  1.01052510426452E+05
 cg2d: Sum(rhs),rhsMax =  -5.33472183409951E+01  1.76682889367885E+00
(PID.TID 0000.0001)  ploadbar=  1.01051766766758E+05
 cg2d: Sum(rhs),rhsMax =  -5.32333429809889E+01  1.77001411328808E+00
(PID.TID 0000.0001)  ploadbar=  1.01051023107065E+05
 cg2d: Sum(rhs),rhsMax =  -5.31206730310326E+01  1.77312630017682E+00
(PID.TID 0000.0001)  ploadbar=  1.01050279447371E+05
 cg2d: Sum(rhs),rhsMax =  -5.30094089380974E+01  1.77615464610083E+00
(PID.TID 0000.0001)  ploadbar=  1.01049535787678E+05
 cg2d: Sum(rhs),rhsMax =  -5.28892331564589E+01  1.77953587055287E+00
(PID.TID 0000.0001)  ploadbar=  1.01048306720933E+05
 cg2d: Sum(rhs),rhsMax =  -5.27684103993847E+01  1.78298971077736E+00
(PID.TID 0000.0001)  ploadbar=  1.01047077654189E+05
 cg2d: Sum(rhs),rhsMax =  -5.26475995035645E+01  1.78648864441741E+00
(PID.TID 0000.0001)  ploadbar=  1.01045848587444E+05
 cg2d: Sum(rhs),rhsMax =  -5.25247661875993E+01  1.79009964094477E+00
(PID.TID 0000.0001)  ploadbar=  1.01044619520700E+05
 cg2d: Sum(rhs),rhsMax =  -5.24013499806472E+01  1.79376811232100E+00
(PID.TID 0000.0001)  ploadbar=  1.01043390453956E+05
 cg2d: Sum(rhs),rhsMax =  -5.22798831659743E+01  1.79740019622610E+00
(PID.TID 0000.0001)  ploadbar=  1.01042161387211E+05
 cg2d: Sum(rhs),rhsMax =  -5.21585098735255E+01  1.80104399990904E+00
(PID.TID 0000.0001)  ploadbar=  1.01042040022617E+05
 cg2d: Sum(rhs),rhsMax =  -5.20376383019694E+01  1.80468041881132E+00
(PID.TID 0000.0001)  ploadbar=  1.01041918658023E+05
 cg2d: Sum(rhs),rhsMax =  -5.19205395562134E+01  1.80819096885829E+00
(PID.TID 0000.0001)  ploadbar=  1.01041797293429E+05
 cg2d: Sum(rhs),rhsMax =  -5.18059775472691E+01  1.81160975192026E+00
(PID.TID 0000.0001)  ploadbar=  1.01041675928835E+05
 cg2d: Sum(rhs),rhsMax =  -5.16942643351701E+01  1.81492070479569E+00
(PID.TID 0000.0001)  ploadbar=  1.01041554564241E+05
 cg2d: Sum(rhs),rhsMax =  -5.15863404498130E+01  1.81808453215852E+00
(PID.TID 0000.0001)  ploadbar=  1.01041433199647E+05
 cg2d: Sum(rhs),rhsMax =  -5.14781357255315E+01  1.82125822859488E+00
(PID.TID 0000.0001)  ploadbar=  1.01040904024638E+05
 cg2d: Sum(rhs),rhsMax =  -5.13726969598587E+01  1.82432930429467E+00
(PID.TID 0000.0001)  ploadbar=  1.01040374849628E+05
 cg2d: Sum(rhs),rhsMax =  -5.12716336282489E+01  1.82723436492507E+00
(PID.TID 0000.0001)  ploadbar=  1.01039845674618E+05
 cg2d: Sum(rhs),rhsMax =  -5.11734777961528E+01  1.83001773331290E+00
(PID.TID 0000.0001)  ploadbar=  1.01039316499609E+05
 cg2d: Sum(rhs),rhsMax =  -5.10779350416536E+01  1.83268120688440E+00
(PID.TID 0000.0001)  ploadbar=  1.01038787324599E+05
 cg2d: Sum(rhs),rhsMax =  -5.09852922423744E+01  1.83520671366175E+00
(PID.TID 0000.0001)  ploadbar=  1.01038258149590E+05
 cg2d: Sum(rhs),rhsMax =  -5.08968655043324E+01  1.83755110983501E+00
(PID.TID 0000.0001)  ploadbar=  1.01039232673391E+05
 cg2d: Sum(rhs),rhsMax =  -5.08068135199601E+01  1.83992133918092E+00
(PID.TID 0000.0001)  ploadbar=  1.01040207197192E+05
 cg2d: Sum(rhs),rhsMax =  -5.07128258605495E+01  1.84239884430112E+00
(PID.TID 0000.0001)  ploadbar=  1.01041181720993E+05
 cg2d: Sum(rhs),rhsMax =  -5.06150493418855E+01  1.84497384030276E+00
(PID.TID 0000.0001)  ploadbar=  1.01042156244794E+05
 cg2d: Sum(rhs),rhsMax =  -5.05123876294642E+01  1.84768251755520E+00
(PID.TID 0000.0001)  ploadbar=  1.01043130768595E+05
 cg2d: Sum(rhs),rhsMax =  -5.04048704983318E+01  1.85052086159722E+00
(PID.TID 0000.0001)  ploadbar=  1.01044105292396E+05
 cg2d: Sum(rhs),rhsMax =  -5.02863581535654E+01  1.85383346825404E+00
(PID.TID 0000.0001)  ploadbar=  1.01044826226993E+05
 cg2d: Sum(rhs),rhsMax =  -5.01600684964012E+01  1.85750216695821E+00
(PID.TID 0000.0001)  ploadbar=  1.01045547161589E+05
 cg2d: Sum(rhs),rhsMax =  -5.00267447896684E+01  1.86149824900485E+00
(PID.TID 0000.0001)  ploadbar=  1.01046268096186E+05
 cg2d: Sum(rhs),rhsMax =  -4.98928157581205E+01  1.86557747408902E+00
(PID.TID 0000.0001)  ploadbar=  1.01046989030782E+05
 cg2d: Sum(rhs),rhsMax =  -4.97672195717092E+01  1.86939795467768E+00
(PID.TID 0000.0001)  ploadbar=  1.01047709965379E+05
 cg2d: Sum(rhs),rhsMax =  -4.96653489877357E+01  1.87236833342564E+00
(PID.TID 0000.0001)  ploadbar=  1.01048430899975E+05
 cg2d: Sum(rhs),rhsMax =  -4.96171012201405E+01  1.87334923713240E+00
(PID.TID 0000.0001)  ploadbar=  1.01048990268010E+05
 cg2d: Sum(rhs),rhsMax =  -4.96318267078744E+01  1.87197020742570E+00
(PID.TID 0000.0001)  ploadbar=  1.01049549636044E+05
 cg2d: Sum(rhs),rhsMax =  -4.97214646597344E+01  1.86777992139445E+00
(PID.TID 0000.0001)  ploadbar=  1.01050109004078E+05
 cg2d: Sum(rhs),rhsMax =  -4.98892366220894E+01  1.86068159388230E+00
(PID.TID 0000.0001)  ploadbar=  1.01050668372113E+05
 cg2d: Sum(rhs),rhsMax =  -5.01274584169309E+01  1.85101191377377E+00
(PID.TID 0000.0001)  ploadbar=  1.01051227740147E+05
 cg2d: Sum(rhs),rhsMax =  -5.04249056260201E+01  1.83925274730231E+00
(PID.TID 0000.0001)  ploadbar=  1.01051787108182E+05
 cg2d: Sum(rhs),rhsMax =  -5.07711011808383E+01  1.82589689425693E+00
(PID.TID 0000.0001)  ploadbar=  1.01053157880846E+05
 cg2d: Sum(rhs),rhsMax =  -5.11386727421552E+01  1.81197499604980E+00
(PID.TID 0000.0001)  ploadbar=  1.01054528653510E+05
 cg2d: Sum(rhs),rhsMax =  -5.15149287648266E+01  1.79795364258611E+00
(PID.TID 0000.0001)  ploadbar=  1.01055899426174E+05
 cg2d: Sum(rhs),rhsMax =  -5.18961014975511E+01  1.78396107620442E+00
(PID.TID 0000.0001)  ploadbar=  1.01057270198838E+05
 cg2d: Sum(rhs),rhsMax =  -5.22776055408241E+01  1.77015036811048E+00
(PID.TID 0000.0001)  ploadbar=  1.01058640971502E+05
 cg2d: Sum(rhs),rhsMax =  -5.26563969404903E+01  1.75661363774645E+00
(PID.TID 0000.0001)  ploadbar=  1.01060011744166E+05
 cg2d: Sum(rhs),rhsMax =  -5.30188356186527E+01  1.74381830378359E+00
(PID.TID 0000.0001)  ploadbar=  1.01061060585982E+05
 cg2d: Sum(rhs),rhsMax =  -5.33575213923231E+01  1.73197167980754E+00
(PID.TID 0000.0001)  ploadbar=  1.01062109427798E+05
 cg2d: Sum(rhs),rhsMax =  -5.36658904785638E+01  1.72124463126076E+00
(PID.TID 0000.0001)  ploadbar=  1.01063158269615E+05
 cg2d: Sum(rhs),rhsMax =  -5.39408905091898E+01  1.71168405696630E+00
(PID.TID 0000.0001)  ploadbar=  1.01064207111431E+05
 cg2d: Sum(rhs),rhsMax =  -5.41822228304210E+01  1.70325318383191E+00
(PID.TID 0000.0001)  ploadbar=  1.01065255953247E+05
 cg2d: Sum(rhs),rhsMax =  -5.43915855047043E+01  1.69586458791218E+00
(PID.TID 0000.0001)  ploadbar=  1.01066304795063E+05
 cg2d: Sum(rhs),rhsMax =  -5.45712890367666E+01  1.68953124950271E+00
(PID.TID 0000.0001)  ploadbar=  1.01066544396914E+05
 cg2d: Sum(rhs),rhsMax =  -5.47339388654380E+01  1.68384586296358E+00
(PID.TID 0000.0001)  ploadbar=  1.01066783998764E+05
 cg2d: Sum(rhs),rhsMax =  -5.48870370216969E+01  1.67856347639329E+00
(PID.TID 0000.0001)  ploadbar=  1.01067023600615E+05
 cg2d: Sum(rhs),rhsMax =  -5.50329972795758E+01  1.67360083167225E+00
(PID.TID 0000.0001)  ploadbar=  1.01067263202466E+05
 cg2d: Sum(rhs),rhsMax =  -5.51755704981175E+01  1.66883547111334E+00
(PID.TID 0000.0001)  ploadbar=  1.01067502804316E+05
 cg2d: Sum(rhs),rhsMax =  -5.53166608343375E+01  1.66419730998966E+00
(PID.TID 0000.0001)  ploadbar=  1.01067742406167E+05
 cg2d: Sum(rhs),rhsMax =  -5.54661537327276E+01  1.65929953450185E+00
(PID.TID 0000.0001)  ploadbar=  1.01068188390344E+05
 cg2d: Sum(rhs),rhsMax =  -5.56202986961007E+01  1.65425460941215E+00
(PID.TID 0000.0001)  ploadbar=  1.01068634374521E+05
 cg2d: Sum(rhs),rhsMax =  -5.57777059306232E+01  1.64910482100015E+00
(PID.TID 0000.0001)  ploadbar=  1.01069080358697E+05
 cg2d: Sum(rhs),rhsMax =  -5.59400789998511E+01  1.64379627060119E+00
(PID.TID 0000.0001)  ploadbar=  1.01069526342874E+05
 cg2d: Sum(rhs),rhsMax =  -5.61086827954798E+01  1.63829443117803E+00
(PID.TID 0000.0001)  ploadbar=  1.01069972327051E+05
 cg2d: Sum(rhs),rhsMax =  -5.62847677397417E+01  1.63256283471266E+00
(PID.TID 0000.0001)  ploadbar=  1.01070418311228E+05
 cg2d: Sum(rhs),rhsMax =  -5.64670396542769E+01  1.62675059306140E+00
(PID.TID 0000.0001)  ploadbar=  1.01070900805615E+05
 cg2d: Sum(rhs),rhsMax =  -5.66508439923046E+01  1.62098755277629E+00
(PID.TID 0000.0001)  ploadbar=  1.01071383300002E+05
 cg2d: Sum(rhs),rhsMax =  -5.68358151583776E+01  1.61527832752534E+00
(PID.TID 0000.0001)  ploadbar=  1.01071865794389E+05
 cg2d: Sum(rhs),rhsMax =  -5.70212431586624E+01  1.60963720492937E+00
(PID.TID 0000.0001)  ploadbar=  1.01072348288776E+05
 cg2d: Sum(rhs),rhsMax =  -5.72061353895717E+01  1.60408463546708E+00
(PID.TID 0000.0001)  ploadbar=  1.01072830783164E+05
 cg2d: Sum(rhs),rhsMax =  -5.73894885290843E+01  1.59863739300703E+00
(PID.TID 0000.0001)  ploadbar=  1.01073313277551E+05
 cg2d: Sum(rhs),rhsMax =  -5.75791029030733E+01  1.59302808320517E+00
(PID.TID 0000.0001)  ploadbar=  1.01072083856466E+05
 cg2d: Sum(rhs),rhsMax =  -5.77717870680547E+01  1.58734097504369E+00
(PID.TID 0000.0001)  ploadbar=  1.01070854435382E+05
 cg2d: Sum(rhs),rhsMax =  -5.79626535414028E+01  1.58170677578221E+00
(PID.TID 0000.0001)  ploadbar=  1.01069625014297E+05
 cg2d: Sum(rhs),rhsMax =  -5.81542414647381E+01  1.57604987132256E+00
(PID.TID 0000.0001)  ploadbar=  1.01068395593213E+05
 cg2d: Sum(rhs),rhsMax =  -5.83467658046780E+01  1.57036110802347E+00
(PID.TID 0000.0001)  ploadbar=  1.01067166172128E+05
 cg2d: Sum(rhs),rhsMax =  -5.85393793685956E+01  1.56465812572116E+00
(PID.TID 0000.0001)  ploadbar=  1.01065936751043E+05
 cg2d: Sum(rhs),rhsMax =  -5.87316299171837E+01  1.55906022456252E+00
(PID.TID 0000.0001)  ploadbar=  1.01065075926970E+05
 cg2d: Sum(rhs),rhsMax =  -5.89272977594574E+01  1.55346509387781E+00
(PID.TID 0000.0001)  ploadbar=  1.01064215102897E+05
 cg2d: Sum(rhs),rhsMax =  -5.91198858537455E+01  1.54803749316673E+00
(PID.TID 0000.0001)  ploadbar=  1.01063354278823E+05
 cg2d: Sum(rhs),rhsMax =  -5.93072136906402E+01  1.54282467434161E+00
(PID.TID 0000.0001)  ploadbar=  1.01062493454750E+05
 cg2d: Sum(rhs),rhsMax =  -5.94885376842629E+01  1.53783578424568E+00
(PID.TID 0000.0001)  ploadbar=  1.01061632630676E+05
 cg2d: Sum(rhs),rhsMax =  -5.96625951495417E+01  1.53309250420163E+00
(PID.TID 0000.0001)  ploadbar=  1.01060771806603E+05
 cg2d: Sum(rhs),rhsMax =  -5.98301598499875E+01  1.52855157209026E+00
(PID.TID 0000.0001)  ploadbar=  1.01059349863927E+05
 cg2d: Sum(rhs),rhsMax =  -5.99963068367365E+01  1.52407537992330E+00
(PID.TID 0000.0001)  ploadbar=  1.01057927921251E+05
 cg2d: Sum(rhs),rhsMax =  -6.01611371426835E+01  1.51965508158150E+00
(PID.TID 0000.0001)  ploadbar=  1.01056505978574E+05
 cg2d: Sum(rhs),rhsMax =  -6.03227143610447E+01  1.51533134635132E+00
(PID.TID 0000.0001)  ploadbar=  1.01055084035898E+05
 cg2d: Sum(rhs),rhsMax =  -6.04812026693737E+01  1.51108608637306E+00
(PID.TID 0000.0001)  ploadbar=  1.01053662093222E+05
 cg2d: Sum(rhs),rhsMax =  -6.06358050193223E+01  1.50692753603650E+00
(PID.TID 0000.0001)  ploadbar=  1.01052240150546E+05
 cg2d: Sum(rhs),rhsMax =  -6.07650321376593E+01  1.50340215490636E+00
(PID.TID 0000.0001)  ploadbar=  1.01050121938352E+05
 cg2d: Sum(rhs),rhsMax =  -6.08778108943621E+01  1.50028392794384E+00
(PID.TID 0000.0001)  ploadbar=  1.01048003726159E+05
 cg2d: Sum(rhs),rhsMax =  -6.09766446056134E+01  1.49750111253529E+00
(PID.TID 0000.0001)  ploadbar=  1.01045885513965E+05
 cg2d: Sum(rhs),rhsMax =  -6.10513216562582E+01  1.49529847643699E+00
(PID.TID 0000.0001)  ploadbar=  1.01043767301771E+05
 cg2d: Sum(rhs),rhsMax =  -6.11004333994788E+01  1.49370256456177E+00
(PID.TID 0000.0001)  ploadbar=  1.01041649089578E+05
 cg2d: Sum(rhs),rhsMax =  -6.11277858685189E+01  1.49261211831005E+00
(PID.TID 0000.0001)  ploadbar=  1.01039530877384E+05
 cg2d: Sum(rhs),rhsMax =  -6.11515086132893E+01  1.49159144253580E+00
(PID.TID 0000.0001)  ploadbar=  1.01039548006352E+05
 cg2d: Sum(rhs),rhsMax =  -5.99872060321673E+01  1.52006763387504E+00
(PID.TID 0000.0001)  ploadbar=  1.01039565135320E+05
 cg2d: Sum(rhs),rhsMax =  -5.90054616011877E+01  1.54484880489301E+00
(PID.TID 0000.0001)  ploadbar=  1.01039582264288E+05
 cg2d: Sum(rhs),rhsMax =  -5.82439496161045E+01  1.56449892295772E+00
(PID.TID 0000.0001)  ploadbar=  1.01039599393256E+05
 cg2d: Sum(rhs),rhsMax =  -5.76574027256312E+01  1.57982597948638E+00
(PID.TID 0000.0001)  ploadbar=  1.01039616522223E+05
 cg2d: Sum(rhs),rhsMax =  -5.72126024697790E+01  1.59147981131455E+00
(PID.TID 0000.0001)  ploadbar=  1.01039633651191E+05
 cg2d: Sum(rhs),rhsMax =  -5.69046629202809E+01  1.59955324192049E+00
(PID.TID 0000.0001)  ploadbar=  1.01040373194049E+05
 cg2d: Sum(rhs),rhsMax =  -5.67132387904526E+01  1.60450323521659E+00
(PID.TID 0000.0001)  ploadbar=  1.01041112736906E+05
 cg2d: Sum(rhs),rhsMax =  -5.66162258614638E+01  1.60689236512037E+00
(PID.TID 0000.0001)  ploadbar=  1.01041852279763E+05
 cg2d: Sum(rhs),rhsMax =  -5.65951045439612E+01  1.60721751157604E+00
(PID.TID 0000.0001)  ploadbar=  1.01042591822620E+05
 cg2d: Sum(rhs),rhsMax =  -5.66389127717143E+01  1.60577649446120E+00
(PID.TID 0000.0001)  ploadbar=  1.01043331365477E+05
 cg2d: Sum(rhs),rhsMax =  -5.67378122397942E+01  1.60284857762794E+00
(PID.TID 0000.0001)  ploadbar=  1.01044070908335E+05
 cg2d: Sum(rhs),rhsMax =  -5.69021469305297E+01  1.59809165667797E+00
(PID.TID 0000.0001)  ploadbar=  1.01045290652252E+05
 cg2d: Sum(rhs),rhsMax =  -5.71155233128905E+01  1.59199069783062E+00
(PID.TID 0000.0001)  ploadbar=  1.01046510396169E+05
 cg2d: Sum(rhs),rhsMax =  -5.73767349403225E+01  1.58460200917330E+00
(PID.TID 0000.0001)  ploadbar=  1.01047730140087E+05
 cg2d: Sum(rhs),rhsMax =  -5.76863678939742E+01  1.57593448290110E+00
(PID.TID 0000.0001)  ploadbar=  1.01048949884004E+05
 cg2d: Sum(rhs),rhsMax =  -5.80320741921969E+01  1.56635876344563E+00
(PID.TID 0000.0001)  ploadbar=  1.01050169627921E+05
 cg2d: Sum(rhs),rhsMax =  -5.84144288391495E+01  1.55589343563915E+00
(PID.TID 0000.0001)  ploadbar=  1.01051389371839E+05
 cg2d: Sum(rhs),rhsMax =  -5.88269072378172E+01  1.54476712546417E+00
(PID.TID 0000.0001)  ploadbar=  1.01052678255644E+05
 cg2d: Sum(rhs),rhsMax =  -5.92690830040434E+01  1.53302143408995E+00
(PID.TID 0000.0001)  ploadbar=  1.01053967139449E+05
 cg2d: Sum(rhs),rhsMax =  -5.97470086161065E+01  1.52052995900977E+00
(PID.TID 0000.0001)  ploadbar=  1.01055256023254E+05
 cg2d: Sum(rhs),rhsMax =  -6.02702080877817E+01  1.50709025128735E+00
(PID.TID 0000.0001)  ploadbar=  1.01056544907059E+05
 cg2d: Sum(rhs),rhsMax =  -6.08520201072494E+01  1.49242854762834E+00
(PID.TID 0000.0001)  ploadbar=  1.01057833790864E+05
 cg2d: Sum(rhs),rhsMax =  -6.15015051373517E+01  1.47639619813813E+00
(PID.TID 0000.0001)  ploadbar=  1.01059122674669E+05
 cg2d: Sum(rhs),rhsMax =  -6.21873960301741E+01  1.45981204903021E+00
(PID.TID 0000.0001)  ploadbar=  1.01060310622718E+05
 cg2d: Sum(rhs),rhsMax =  -6.28936066880004E+01  1.44308754618841E+00
(PID.TID 0000.0001)  ploadbar=  1.01061498570767E+05
 cg2d: Sum(rhs),rhsMax =  -6.36026698504878E+01  1.42662982407977E+00
(PID.TID 0000.0001)  ploadbar=  1.01062686518816E+05
 cg2d: Sum(rhs),rhsMax =  -6.42776610374942E+01  1.41124024747048E+00
(PID.TID 0000.0001)  ploadbar=  1.01063874466864E+05
 cg2d: Sum(rhs),rhsMax =  -6.43678471724514E+01  1.40881041877023E+00
(PID.TID 0000.0001)  ploadbar=  1.01065062414913E+05
 cg2d: Sum(rhs),rhsMax =  -6.44524878467064E+01  1.40646203308348E+00
(PID.TID 0000.0001)  ploadbar=  1.01066250362962E+05
 cg2d: Sum(rhs),rhsMax =  -6.45234324857971E+01  1.40447466407235E+00
(PID.TID 0000.0001)  ploadbar=  1.01066025593410E+05
 cg2d: Sum(rhs),rhsMax =  -6.45911038153063E+01  1.40261818896448E+00
(PID.TID 0000.0001)  ploadbar=  1.01065800823859E+05
 cg2d: Sum(rhs),rhsMax =  -6.46514696208965E+01  1.40097513971257E+00
(PID.TID 0000.0001)  ploadbar=  1.01065576054307E+05
 cg2d: Sum(rhs),rhsMax =  -6.47050776003273E+01  1.39952811862279E+00
(PID.TID 0000.0001)  ploadbar=  1.01065351284755E+05
 cg2d: Sum(rhs),rhsMax =  -6.47548744905742E+01  1.39820606345441E+00
(PID.TID 0000.0001)  ploadbar=  1.01065126515204E+05
 cg2d: Sum(rhs),rhsMax =  -6.48020660938618E+01  1.39697251354033E+00
(PID.TID 0000.0001)  ploadbar=  1.01064901745652E+05
 cg2d: Sum(rhs),rhsMax =  -6.48175803004748E+01  1.39642357158800E+00
(PID.TID 0000.0001)  ploadbar=  1.01065709089233E+05
 cg2d: Sum(rhs),rhsMax =  -6.48186195279583E+01  1.39618182968895E+00
(PID.TID 0000.0001)  ploadbar=  1.01066516432813E+05
 cg2d: Sum(rhs),rhsMax =  -6.48104572471850E+01  1.39612600784522E+00
(PID.TID 0000.0001)  ploadbar=  1.01067323776394E+05
 cg2d: Sum(rhs),rhsMax =  -6.47856459504686E+01  1.39640971808506E+00
(PID.TID 0000.0001)  ploadbar=  1.01068131119975E+05
 cg2d: Sum(rhs),rhsMax =  -6.47418231853921E+01  1.39708208547598E+00
(PID.TID 0000.0001)  ploadbar=  1.01068938463555E+05
 cg2d: Sum(rhs),rhsMax =  -6.46769734263956E+01  1.39818125621395E+00
(PID.TID 0000.0001)  ploadbar=  1.01069745807136E+05
 cg2d: Sum(rhs),rhsMax =  -6.46016336304617E+01  1.39950433640985E+00
(PID.TID 0000.0001)  ploadbar=  1.01071273411471E+05
 cg2d: Sum(rhs),rhsMax =  -6.45024885373941E+01  1.40134109739772E+00
(PID.TID 0000.0001)  ploadbar=  1.01072801015807E+05
 cg2d: Sum(rhs),rhsMax =  -6.43827711099537E+01  1.40362258326839E+00
(PID.TID 0000.0001)  ploadbar=  1.01074328620142E+05
 cg2d: Sum(rhs),rhsMax =  -6.42434867320863E+01  1.40632842086924E+00
(PID.TID 0000.0001)  ploadbar=  1.01075856224478E+05
 cg2d: Sum(rhs),rhsMax =  -6.40827387532875E+01  1.40949977590155E+00
(PID.TID 0000.0001)  ploadbar=  1.01077383828813E+05
 cg2d: Sum(rhs),rhsMax =  -6.38991487562188E+01  1.41316780764414E+00
(PID.TID 0000.0001)  ploadbar=  1.01078911433149E+05
 cg2d: Sum(rhs),rhsMax =  -6.36950035925351E+01  1.41727216912426E+00
(PID.TID 0000.0001)  ploadbar=  1.01079164824774E+05
 cg2d: Sum(rhs),rhsMax =  -6.34687486634977E+01  1.42185316302220E+00
(PID.TID 0000.0001)  ploadbar=  1.01079418216399E+05
 cg2d: Sum(rhs),rhsMax =  -6.32304963352280E+01  1.42668907875857E+00
(PID.TID 0000.0001)  ploadbar=  1.01079671608025E+05
 cg2d: Sum(rhs),rhsMax =  -6.29784833739847E+01  1.43182238122143E+00
(PID.TID 0000.0001)  ploadbar=  1.01079924999650E+05
 cg2d: Sum(rhs),rhsMax =  -6.27115074714986E+01  1.43728506310980E+00
(PID.TID 0000.0001)  ploadbar=  1.01080178391276E+05
 cg2d: Sum(rhs),rhsMax =  -6.24311821374653E+01  1.44304548430091E+00
(PID.TID 0000.0001)  ploadbar=  1.01080431782901E+05
 cg2d: Sum(rhs),rhsMax =  -6.21649971861161E+01  1.44858422777741E+00
(PID.TID 0000.0001)  ploadbar=  1.01080845374981E+05
 cg2d: Sum(rhs),rhsMax =  -6.18966767947826E+01  1.45427244127732E+00
(PID.TID 0000.0001)  ploadbar=  1.01081258967061E+05
 cg2d: Sum(rhs),rhsMax =  -6.16256448270511E+01  1.46012391888773E+00
(PID.TID 0000.0001)  ploadbar=  1.01081672559141E+05
 cg2d: Sum(rhs),rhsMax =  -6.13567497626077E+01  1.46602177097358E+00
(PID.TID 0000.0001)  ploadbar=  1.01082086151220E+05
 cg2d: Sum(rhs),rhsMax =  -6.10905212093767E+01  1.47194949446388E+00
(PID.TID 0000.0001)  ploadbar=  1.01082499743300E+05
 cg2d: Sum(rhs),rhsMax =  -6.08277005977187E+01  1.47788244505569E+00
(PID.TID 0000.0001)  ploadbar=  1.01082913335380E+05
 cg2d: Sum(rhs),rhsMax =  -6.05611418605036E+01  1.48396737929765E+00
(PID.TID 0000.0001)  ploadbar=  1.01084374949727E+05
 cg2d: Sum(rhs),rhsMax =  -6.03021947785970E+01  1.48992272646476E+00
(PID.TID 0000.0001)  ploadbar=  1.01085836564074E+05
 cg2d: Sum(rhs),rhsMax =  -6.00516365586163E+01  1.49571709695215E+00
(PID.TID 0000.0001)  ploadbar=  1.01087298178421E+05
 cg2d: Sum(rhs),rhsMax =  -5.98074985952877E+01  1.50138889735781E+00
(PID.TID 0000.0001)  ploadbar=  1.01088759792768E+05
 cg2d: Sum(rhs),rhsMax =  -5.95686544144691E+01  1.50696170102143E+00
(PID.TID 0000.0001)  ploadbar=  1.01090221407115E+05
 cg2d: Sum(rhs),rhsMax =  -5.93346604440231E+01  1.51244006660611E+00
(PID.TID 0000.0001)  ploadbar=  1.01091683021462E+05
 cg2d: Sum(rhs),rhsMax =  -5.91115555416115E+01  1.51769418773092E+00
(PID.TID 0000.0001)  ploadbar=  1.01092445683921E+05
 cg2d: Sum(rhs),rhsMax =  -5.88909562795164E+01  1.52293094705536E+00
(PID.TID 0000.0001)  ploadbar=  1.01093208346380E+05
 cg2d: Sum(rhs),rhsMax =  -5.86711508571154E+01  1.52818931132636E+00
(PID.TID 0000.0001)  ploadbar=  1.01093971008839E+05
 cg2d: Sum(rhs),rhsMax =  -5.84499762026178E+01  1.53351991450111E+00
(PID.TID 0000.0001)  ploadbar=  1.01094733671298E+05
 cg2d: Sum(rhs),rhsMax =  -5.82283506320332E+01  1.53889696224949E+00
(PID.TID 0000.0001)  ploadbar=  1.01095496333758E+05
 cg2d: Sum(rhs),rhsMax =  -5.80068221090584E+01  1.54430503704785E+00
(PID.TID 0000.0001)  ploadbar=  1.01096258996217E+05
 cg2d: Sum(rhs),rhsMax =  -5.77688163406529E+01  1.55014854700050E+00
(PID.TID 0000.0001)  ploadbar=  1.01097608441159E+05
 cg2d: Sum(rhs),rhsMax =  -5.75291125604582E+01  1.55603255599522E+00
(PID.TID 0000.0001)  ploadbar=  1.01098957886102E+05
 cg2d: Sum(rhs),rhsMax =  -5.72888522155135E+01  1.56192462409085E+00
(PID.TID 0000.0001)  ploadbar=  1.01100307331045E+05
 cg2d: Sum(rhs),rhsMax =  -5.70473575272507E+01  1.56784140404609E+00
(PID.TID 0000.0001)  ploadbar=  1.01101656775988E+05
 cg2d: Sum(rhs),rhsMax =  -5.68040459447880E+01  1.57379720527271E+00
(PID.TID 0000.0001)  ploadbar=  1.01103006220930E+05
 cg2d: Sum(rhs),rhsMax =  -5.65588216316506E+01  1.57979382273108E+00
(PID.TID 0000.0001)  ploadbar=  1.01104355665873E+05
 cg2d: Sum(rhs),rhsMax =  -5.63128694882109E+01  1.58589250890403E+00
(PID.TID 0000.0001)  ploadbar=  1.01104796374273E+05
 cg2d: Sum(rhs),rhsMax =  -5.60438369782411E+01  1.59272845491393E+00
(PID.TID 0000.0001)  ploadbar=  1.01105237082672E+05
 cg2d: Sum(rhs),rhsMax =  -5.48023417944793E+01  1.62804352701678E+00
(PID.TID 0000.0001)  ploadbar=  1.01105677791072E+05
 cg2d: Sum(rhs),rhsMax =  -5.34928531353952E+01  1.66713807086792E+00
(PID.TID 0000.0001)  ploadbar=  1.01106118499471E+05
 cg2d: Sum(rhs),rhsMax =  -5.21420064136764E+01  1.70957020485209E+00
(PID.TID 0000.0001)  ploadbar=  1.01106559207871E+05
 cg2d: Sum(rhs),rhsMax =  -5.07735431392777E+01  1.75488271983881E+00
(PID.TID 0000.0001)  ploadbar=  1.01106999916270E+05
 cg2d: Sum(rhs),rhsMax =  -4.94118040630757E+01  1.80247827397033E+00
(PID.TID 0000.0001)  ploadbar=  1.01108596690080E+05
 cg2d: Sum(rhs),rhsMax =  -4.80440679088620E+01  1.85301837702816E+00
(PID.TID 0000.0001)  ploadbar=  1.01110193463891E+05
 cg2d: Sum(rhs),rhsMax =  -4.66583116419926E+01  1.90726982030384E+00
(PID.TID 0000.0001)  ploadbar=  1.01111790237701E+05
 cg2d: Sum(rhs),rhsMax =  -4.52602528216405E+01  1.96538300265216E+00
(PID.TID 0000.0001)  ploadbar=  1.01113387011511E+05
 cg2d: Sum(rhs),rhsMax =  -4.38648063927317E+01  2.02708392639700E+00
(PID.TID 0000.0001)  ploadbar=  1.01114983785321E+05
 cg2d: Sum(rhs),rhsMax =  -4.24887819904923E+01  2.09188701410357E+00
(PID.TID 0000.0001)  ploadbar=  1.01116580559131E+05
 cg2d: Sum(rhs),rhsMax =  -4.12249307697371E+01  2.15515427062277E+00
(PID.TID 0000.0001)  ploadbar=  1.01116913409116E+05
 cg2d: Sum(rhs),rhsMax =  -4.00912131594603E+01  2.21520885919190E+00
(PID.TID 0000.0001)  ploadbar=  1.01117246259102E+05
 cg2d: Sum(rhs),rhsMax =  -3.90844999092790E+01  2.27134513567167E+00
(PID.TID 0000.0001)  ploadbar=  1.01117579109087E+05
 cg2d: Sum(rhs),rhsMax =  -3.81914893849201E+01  2.32349337259566E+00
(PID.TID 0000.0001)  ploadbar=  1.01117911959072E+05
 cg2d: Sum(rhs),rhsMax =  -3.73999511809942E+01  2.37165932653269E+00
(PID.TID 0000.0001)  ploadbar=  1.01118244809058E+05
 cg2d: Sum(rhs),rhsMax =  -3.66950155315558E+01  2.41615828982553E+00
(PID.TID 0000.0001)  ploadbar=  1.01118577659043E+05
 cg2d: Sum(rhs),rhsMax =  -3.60634202878818E+01  2.45739790825479E+00
(PID.TID 0000.0001)  ploadbar=  1.01118738319826E+05
 cg2d: Sum(rhs),rhsMax =  -3.54807761559758E+01  2.49665483103270E+00
(PID.TID 0000.0001)  ploadbar=  1.01118898980610E+05
 cg2d: Sum(rhs),rhsMax =  -3.49341228201618E+01  2.53459605929839E+00
(PID.TID 0000.0001)  ploadbar=  1.01119059641393E+05
 cg2d: Sum(rhs),rhsMax =  -3.44159524875366E+01  2.57159290556319E+00
(PID.TID 0000.0001)  ploadbar=  1.01119220302176E+05
 cg2d: Sum(rhs),rhsMax =  -3.39230899810505E+01  2.60774780413157E+00
(PID.TID 0000.0001)  ploadbar=  1.01119380962959E+05
 cg2d: Sum(rhs),rhsMax =  -3.34661342699674E+01  2.64210042002508E+00
(PID.TID 0000.0001)  ploadbar=  1.01119541623743E+05
 cg2d: Sum(rhs),rhsMax =  -3.30448220330419E+01  2.67457494889816E+00
(PID.TID 0000.0001)  ploadbar=  1.01116962197760E+05
 cg2d: Sum(rhs),rhsMax =  -3.26726403791197E+01  2.70387438568807E+00
(PID.TID 0000.0001)  ploadbar=  1.01114382771778E+05
 cg2d: Sum(rhs),rhsMax =  -3.23527277153886E+01  2.72948982721526E+00
(PID.TID 0000.0001)  ploadbar=  1.01111803345796E+05
 cg2d: Sum(rhs),rhsMax =  -3.20858311734229E+01  2.75111016873440E+00
(PID.TID 0000.0001)  ploadbar=  1.01109223919814E+05
 cg2d: Sum(rhs),rhsMax =  -3.18695917254854E+01  2.76872247124229E+00
(PID.TID 0000.0001)  ploadbar=  1.01106644493832E+05
 cg2d: Sum(rhs),rhsMax =  -3.16906116446492E+01  2.78332963421604E+00
(PID.TID 0000.0001)  ploadbar=  1.01104065067850E+05
 cg2d: Sum(rhs),rhsMax =  -3.15626005626637E+01  2.79362063884629E+00
(PID.TID 0000.0001)  ploadbar=  1.01103997825697E+05
 cg2d: Sum(rhs),rhsMax =  -3.14747692545644E+01  2.80044609587541E+00
(PID.TID 0000.0001)  ploadbar=  1.01103930583545E+05
 cg2d: Sum(rhs),rhsMax =  -3.14240018183606E+01  2.80401415788119E+00
(PID.TID 0000.0001)  ploadbar=  1.01103863341393E+05
 cg2d: Sum(rhs),rhsMax =  -3.14077848881913E+01  2.80451410297198E+00
(PID.TID 0000.0001)  ploadbar=  1.01103796099240E+05
 cg2d: Sum(rhs),rhsMax =  -3.14266900186905E+01  2.80187681508353E+00
(PID.TID 0000.0001)  ploadbar=  1.01103728857088E+05
 cg2d: Sum(rhs),rhsMax =  -3.14757544065227E+01  2.79654744199195E+00
(PID.TID 0000.0001)  ploadbar=  1.01103661614935E+05
 cg2d: Sum(rhs),rhsMax =  -3.15443781689231E+01  2.78954865501399E+00
(PID.TID 0000.0001)  ploadbar=  1.01103628663314E+05
 cg2d: Sum(rhs),rhsMax =  -3.16317412512664E+01  2.78097381302325E+00
(PID.TID 0000.0001)  ploadbar=  1.01103595711693E+05
 cg2d: Sum(rhs),rhsMax =  -3.17361425925449E+01  2.77099141517507E+00
(PID.TID 0000.0001)  ploadbar=  1.01103562760071E+05
 cg2d: Sum(rhs),rhsMax =  -3.18565972464274E+01  2.75971047253840E+00
(PID.TID 0000.0001)  ploadbar=  1.01103529808450E+05
 cg2d: Sum(rhs),rhsMax =  -3.19963430383166E+01  2.74687587888051E+00
(PID.TID 0000.0001)  ploadbar=  1.01103496856829E+05
 cg2d: Sum(rhs),rhsMax =  -3.21575541212421E+01  2.73233660324936E+00
(PID.TID 0000.0001)  ploadbar=  1.01103463905207E+05
 cg2d: Sum(rhs),rhsMax =  -3.23043370300963E+01  2.71915763131888E+00
(PID.TID 0000.0001)  ploadbar=  1.01102875795594E+05
 cg2d: Sum(rhs),rhsMax =  -3.24506371677128E+01  2.70613181947295E+00
(PID.TID 0000.0001)  ploadbar=  1.01102287685982E+05
 cg2d: Sum(rhs),rhsMax =  -3.25971190960129E+01  2.69319886041202E+00
(PID.TID 0000.0001)  ploadbar=  1.01101699576369E+05
 cg2d: Sum(rhs),rhsMax =  -3.27443015567568E+01  2.68031167975313E+00
(PID.TID 0000.0001)  ploadbar=  1.01101111466756E+05
 cg2d: Sum(rhs),rhsMax =  -3.28991243534032E+01  2.66690521974638E+00
(PID.TID 0000.0001)  ploadbar=  1.01100523357143E+05
 cg2d: Sum(rhs),rhsMax =  -3.30658633571859E+01  2.65264665857851E+00
(PID.TID 0000.0001)  ploadbar=  1.01099935247530E+05
 cg2d: Sum(rhs),rhsMax =  -3.32406693955483E+01  2.63799712469387E+00
(PID.TID 0000.0001)  ploadbar=  1.01098920768281E+05
 cg2d: Sum(rhs),rhsMax =  -3.34089997312021E+01  2.62411236204926E+00
(PID.TID 0000.0001)  ploadbar=  1.01097906289033E+05
 cg2d: Sum(rhs),rhsMax =  -3.35698100972651E+01  2.61104889101083E+00
(PID.TID 0000.0001)  ploadbar=  1.01096891809784E+05
 cg2d: Sum(rhs),rhsMax =  -3.37244649769436E+01  2.59867105948284E+00
(PID.TID 0000.0001)  ploadbar=  1.01095877330535E+05
 cg2d: Sum(rhs),rhsMax =  -3.38771538088280E+01  2.58663021908807E+00
(PID.TID 0000.0001)  ploadbar=  1.01094862851286E+05
 cg2d: Sum(rhs),rhsMax =  -3.40280647436652E+01  2.57488921240685E+00
(PID.TID 0000.0001)  ploadbar=  1.01093848372038E+05
 cg2d: Sum(rhs),rhsMax =  -3.42159407888747E+01  2.56048666017392E+00
(PID.TID 0000.0001)  ploadbar=  1.01092346046292E+05
 cg2d: Sum(rhs),rhsMax =  -3.44126874193147E+01  2.54557774858578E+00
(PID.TID 0000.0001)  ploadbar=  1.01090843720546E+05
 cg2d: Sum(rhs),rhsMax =  -3.46140524880992E+01  2.53047740292573E+00
(PID.TID 0000.0001)  ploadbar=  1.01089341394800E+05
 cg2d: Sum(rhs),rhsMax =  -3.48265165410194E+01  2.51471973132091E+00
(PID.TID 0000.0001)  ploadbar=  1.01087839069053E+05
 cg2d: Sum(rhs),rhsMax =  -3.50537587512431E+01  2.49805603352205E+00
(PID.TID 0000.0001)  ploadbar=  1.01086336743307E+05
 cg2d: Sum(rhs),rhsMax =  -3.53034622495199E+01  2.47997314563510E+00
(PID.TID 0000.0001)  ploadbar=  1.01084834417561E+05
 cg2d: Sum(rhs),rhsMax =  -3.55623973092152E+01  2.46150795450887E+00
(PID.TID 0000.0001)  ploadbar=  1.01083124830448E+05
 cg2d: Sum(rhs),rhsMax =  -3.58299432578606E+01  2.44271855928979E+00
(PID.TID 0000.0001)  ploadbar=  1.01081415243335E+05
 cg2d: Sum(rhs),rhsMax =  -3.60984808303307E+01  2.42413149012286E+00
(PID.TID 0000.0001)  ploadbar=  1.01079705656221E+05
 cg2d: Sum(rhs),rhsMax =  -3.63560990005458E+01  2.40652540340628E+00
(PID.TID 0000.0001)  ploadbar=  1.01077996069108E+05
 cg2d: Sum(rhs),rhsMax =  -3.65952513586438E+01  2.39034853633528E+00
(PID.TID 0000.0001)  ploadbar=  1.01076286481994E+05
 cg2d: Sum(rhs),rhsMax =  -3.68313943565151E+01  2.37453936871925E+00
(PID.TID 0000.0001)  ploadbar=  1.01074576894881E+05
 cg2d: Sum(rhs),rhsMax =  -3.70835668482744E+01  2.35785254392220E+00
(PID.TID 0000.0001)  ploadbar=  1.01072501693505E+05
 cg2d: Sum(rhs),rhsMax =  -3.73524176941582E+01  2.34028291641970E+00
(PID.TID 0000.0001)  ploadbar=  1.01070426492129E+05
 cg2d: Sum(rhs),rhsMax =  -3.76368492698713E+01  2.32193744449537E+00
(PID.TID 0000.0001)  ploadbar=  1.01068351290753E+05
 cg2d: Sum(rhs),rhsMax =  -3.79364907966795E+01  2.30287590191406E+00
(PID.TID 0000.0001)  ploadbar=  1.01066276089377E+05
 cg2d: Sum(rhs),rhsMax =  -3.82497731275438E+01  2.28322516767309E+00
(PID.TID 0000.0001)  ploadbar=  1.01064200888001E+05
 cg2d: Sum(rhs),rhsMax =  -3.85772980958300E+01  2.26298232010751E+00
(PID.TID 0000.0001)  ploadbar=  1.01062125686624E+05
 cg2d: Sum(rhs),rhsMax =  -3.89374573036827E+01  2.24125644994723E+00
(PID.TID 0000.0001)  ploadbar=  1.01060329028973E+05
 cg2d: Sum(rhs),rhsMax =  -3.92978854915123E+01  2.21996596539498E+00
(PID.TID 0000.0001)  ploadbar=  1.01058532371321E+05
 cg2d: Sum(rhs),rhsMax =  -3.96346606819482E+01  2.20042456301934E+00
(PID.TID 0000.0001)  ploadbar=  1.01056735713670E+05
 cg2d: Sum(rhs),rhsMax =  -3.99085733658903E+01  2.18468783441425E+00
(PID.TID 0000.0001)  ploadbar=  1.01054939056019E+05
 cg2d: Sum(rhs),rhsMax =  -4.00981256106919E+01  2.17376608662430E+00
(PID.TID 0000.0001)  ploadbar=  1.01053142398367E+05
 cg2d: Sum(rhs),rhsMax =  -4.02219170217558E+01  2.16650965948328E+00
(PID.TID 0000.0001)  ploadbar=  1.01051345740716E+05
 cg2d: Sum(rhs),rhsMax =  -4.03403145639740E+01  2.15961587184862E+00
(PID.TID 0000.0001)  ploadbar=  1.01049363629346E+05
 cg2d: Sum(rhs),rhsMax =  -4.04280901557323E+01  2.15441747163023E+00
(PID.TID 0000.0001)  ploadbar=  1.01047381517976E+05
 cg2d: Sum(rhs),rhsMax =  -4.04448873944067E+01  2.15303480313537E+00
(PID.TID 0000.0001)  ploadbar=  1.01045399406607E+05
 cg2d: Sum(rhs),rhsMax =  -4.06672144733628E+01  2.14079880552646E+00
(PID.TID 0000.0001)  ploadbar=  1.01043417295237E+05
 cg2d: Sum(rhs),rhsMax =  -4.12847267056190E+01  2.10833980911577E+00
(PID.TID 0000.0001)  ploadbar=  1.01041435183867E+05
 cg2d: Sum(rhs),rhsMax =  -4.25046446397350E+01  2.04742217530032E+00
(PID.TID 0000.0001)  ploadbar=  1.01039453072498E+05
 cg2d: Sum(rhs),rhsMax =  -4.42868481759844E+01  1.96461683617560E+00
(PID.TID 0000.0001)  ploadbar=  1.01037602507481E+05
 cg2d: Sum(rhs),rhsMax =  -4.64015020900067E+01  1.87466223765956E+00
(PID.TID 0000.0001)  ploadbar=  1.01035751942464E+05
 cg2d: Sum(rhs),rhsMax =  -4.85307516066133E+01  1.79197951145251E+00
(PID.TID 0000.0001)  ploadbar=  1.01033901377447E+05
 cg2d: Sum(rhs),rhsMax =  -5.04587167238376E+01  1.72306492102408E+00
(PID.TID 0000.0001)  ploadbar=  1.01032050812430E+05
 cg2d: Sum(rhs),rhsMax =  -5.23932278274849E+01  1.65898527546389E+00
(PID.TID 0000.0001)  ploadbar=  1.01030200247413E+05
 cg2d: Sum(rhs),rhsMax =  -5.52178206278123E+01  1.57365368683690E+00
(PID.TID 0000.0001)  ploadbar=  1.01028349682396E+05
 cg2d: Sum(rhs),rhsMax =  -5.80238891310170E+01  1.49708307255981E+00
(PID.TID 0000.0001)  ploadbar=  1.01026836875449E+05
 cg2d: Sum(rhs),rhsMax =  -6.06081058554742E+01  1.43278093691822E+00
(PID.TID 0000.0001)  ploadbar=  1.01025324068503E+05
 cg2d: Sum(rhs),rhsMax =  -5.89588953512414E+01  1.47235155037475E+00
(PID.TID 0000.0001)  ploadbar=  1.01023811261556E+05
 cg2d: Sum(rhs),rhsMax =  -5.73857606866648E+01  1.51216014812405E+00
(PID.TID 0000.0001)  ploadbar=  1.01022298454610E+05
 cg2d: Sum(rhs),rhsMax =  -5.59432528634139E+01  1.55054658198043E+00
(PID.TID 0000.0001)  ploadbar=  1.01020785647663E+05
 cg2d: Sum(rhs),rhsMax =  -5.45770940876246E+01  1.58869885865483E+00
(PID.TID 0000.0001)  ploadbar=  1.01019272840716E+05
 cg2d: Sum(rhs),rhsMax =  -5.36678972454459E+01  1.61502356385034E+00
(PID.TID 0000.0001)  ploadbar=  1.01017657914290E+05
 cg2d: Sum(rhs),rhsMax =  -5.29259703821891E+01  1.63714327744585E+00
(PID.TID 0000.0001)  ploadbar=  1.01016042987863E+05
 cg2d: Sum(rhs),rhsMax =  -5.21569318399178E+01  1.66082853175150E+00
(PID.TID 0000.0001)  ploadbar=  1.01014428061437E+05
 cg2d: Sum(rhs),rhsMax =  -5.16692683799566E+01  1.67611774509924E+00
(PID.TID 0000.0001)  ploadbar=  1.01012813135010E+05
 cg2d: Sum(rhs),rhsMax =  -5.13516829875125E+01  1.68616346881700E+00
(PID.TID 0000.0001)  ploadbar=  1.01011198208584E+05
 cg2d: Sum(rhs),rhsMax =  -5.11178397581868E+01  1.69362230435395E+00
(PID.TID 0000.0001)  ploadbar=  1.01009583282157E+05
 cg2d: Sum(rhs),rhsMax =  -5.09173924446031E+01  1.70005803856635E+00
(PID.TID 0000.0001)  ploadbar=  1.01008621540755E+05
 cg2d: Sum(rhs),rhsMax =  -5.07302390887848E+01  1.70611614480639E+00
(PID.TID 0000.0001)  ploadbar=  1.01007659799352E+05
 cg2d: Sum(rhs),rhsMax =  -5.05064428865189E+01  1.71347448064533E+00
(PID.TID 0000.0001)  ploadbar=  1.01006698057950E+05
 cg2d: Sum(rhs),rhsMax =  -5.02560424726036E+01  1.72181786138389E+00
(PID.TID 0000.0001)  ploadbar=  1.01005736316548E+05
 cg2d: Sum(rhs),rhsMax =  -4.99892873904996E+01  1.73082097527240E+00
(PID.TID 0000.0001)  ploadbar=  1.01004774575146E+05
 cg2d: Sum(rhs),rhsMax =  -4.97102867760664E+01  1.74035982335005E+00
(PID.TID 0000.0001)  ploadbar=  1.01003812833743E+05
 cg2d: Sum(rhs),rhsMax =  -4.94298516879654E+01  1.75005811436962E+00
(PID.TID 0000.0001)  ploadbar=  1.01003376183838E+05
 cg2d: Sum(rhs),rhsMax =  -4.91317877807743E+01  1.76049393705662E+00
(PID.TID 0000.0001)  ploadbar=  1.01002939533932E+05
 cg2d: Sum(rhs),rhsMax =  -4.88313617867493E+01  1.77113659852605E+00
(PID.TID 0000.0001)  ploadbar=  1.01002502884026E+05
 cg2d: Sum(rhs),rhsMax =  -4.85420264871218E+01  1.78149447078798E+00
(PID.TID 0000.0001)  ploadbar=  1.01002066234120E+05
 cg2d: Sum(rhs),rhsMax =  -4.82855761527964E+01  1.79073829472102E+00
(PID.TID 0000.0001)  ploadbar=  1.01001629584215E+05
 cg2d: Sum(rhs),rhsMax =  -4.80717205065307E+01  1.79846158847413E+00
(PID.TID 0000.0001)  ploadbar=  1.01001192934309E+05
 cg2d: Sum(rhs),rhsMax =  -4.78514009204372E+01  1.80647948304163E+00
(PID.TID 0000.0001)  ploadbar=  1.01001201472928E+05
 cg2d: Sum(rhs),rhsMax =  -4.76566565018142E+01  1.81357960942740E+00
(PID.TID 0000.0001)  ploadbar=  1.01001210011547E+05
 cg2d: Sum(rhs),rhsMax =  -4.74822348340895E+01  1.81993800742691E+00
(PID.TID 0000.0001)  ploadbar=  1.01001218550165E+05
 cg2d: Sum(rhs),rhsMax =  -4.73215867291078E+01  1.82578271383481E+00
(PID.TID 0000.0001)  ploadbar=  1.01001227088784E+05
 cg2d: Sum(rhs),rhsMax =  -4.71740272924745E+01  1.83112590315480E+00
(PID.TID 0000.0001)  ploadbar=  1.01001235627403E+05
 cg2d: Sum(rhs),rhsMax =  -4.70538282010546E+01  1.83539535140429E+00
(PID.TID 0000.0001)  ploadbar=  1.01001244166022E+05
 cg2d: Sum(rhs),rhsMax =  -4.69776619300978E+01  1.83802107917260E+00
(PID.TID 0000.0001)  ploadbar=  1.01002117120839E+05
 cg2d: Sum(rhs),rhsMax =  -4.69022675912464E+01  1.84068226912581E+00
(PID.TID 0000.0001)  ploadbar=  1.01002990075656E+05
 cg2d: Sum(rhs),rhsMax =  -4.68401510458767E+01  1.84288235924944E+00
(PID.TID 0000.0001)  ploadbar=  1.01003863030472E+05
 cg2d: Sum(rhs),rhsMax =  -4.67867431267182E+01  1.84479369896731E+00
(PID.TID 0000.0001)  ploadbar=  1.01004735985289E+05
 cg2d: Sum(rhs),rhsMax =  -4.67423149748720E+01  1.84639679411449E+00
(PID.TID 0000.0001)  ploadbar=  1.01005608940106E+05
 cg2d: Sum(rhs),rhsMax =  -4.67131918162431E+01  1.84743423562597E+00
(PID.TID 0000.0001)  ploadbar=  1.01006481894923E+05
 cg2d: Sum(rhs),rhsMax =  -4.66776852460744E+01  1.84874836282733E+00
(PID.TID 0000.0001)  ploadbar=  1.01006942540371E+05
 cg2d: Sum(rhs),rhsMax =  -4.66662921944177E+01  1.84912507307500E+00
(PID.TID 0000.0001)  ploadbar=  1.01007403185819E+05
 cg2d: Sum(rhs),rhsMax =  -4.66672103242158E+01  1.84902733454678E+00
(PID.TID 0000.0001)  ploadbar=  1.01007863831267E+05
 cg2d: Sum(rhs),rhsMax =  -4.66807090784317E+01  1.84844074703457E+00
(PID.TID 0000.0001)  ploadbar=  1.01008324476715E+05
 cg2d: Sum(rhs),rhsMax =  -4.67058723634412E+01  1.84739699248035E+00
(PID.TID 0000.0001)  ploadbar=  1.01008785122162E+05
 cg2d: Sum(rhs),rhsMax =  -4.67388357403878E+01  1.84604654555433E+00
(PID.TID 0000.0001)  ploadbar=  1.01009245767610E+05
 cg2d: Sum(rhs),rhsMax =  -4.67832696184071E+01  1.84422185867540E+00
(PID.TID 0000.0001)  ploadbar=  1.01009212551515E+05
 cg2d: Sum(rhs),rhsMax =  -4.70698909162794E+01  1.83289377514382E+00
(PID.TID 0000.0001)  ploadbar=  1.01009179335419E+05
 cg2d: Sum(rhs),rhsMax =  -4.74036525341358E+01  1.81985995762909E+00
(PID.TID 0000.0001)  ploadbar=  1.01009146119324E+05
 cg2d: Sum(rhs),rhsMax =  -4.77261005602093E+01  1.80740010111966E+00
(PID.TID 0000.0001)  ploadbar=  1.01009112903229E+05
 cg2d: Sum(rhs),rhsMax =  -4.80398251036367E+01  1.79539055704743E+00
(PID.TID 0000.0001)  ploadbar=  1.01009079687133E+05
 cg2d: Sum(rhs),rhsMax =  -4.83429501942034E+01  1.78387489284101E+00
(PID.TID 0000.0001)  ploadbar=  1.01009046471038E+05
 cg2d: Sum(rhs),rhsMax =  -4.86483015472098E+01  1.77240827827069E+00
(PID.TID 0000.0001)  ploadbar=  1.01009111438115E+05
 cg2d: Sum(rhs),rhsMax =  -4.89466253097193E+01  1.76132317951386E+00
(PID.TID 0000.0001)  ploadbar=  1.01009176405192E+05
 cg2d: Sum(rhs),rhsMax =  -4.92355264328984E+01  1.75068450664489E+00
(PID.TID 0000.0001)  ploadbar=  1.01009241372269E+05
 cg2d: Sum(rhs),rhsMax =  -4.95123812609361E+01  1.74056690910917E+00
(PID.TID 0000.0001)  ploadbar=  1.01009306339346E+05
 cg2d: Sum(rhs),rhsMax =  -4.97392370572756E+01  1.73226725108828E+00
(PID.TID 0000.0001)  ploadbar=  1.01009371306423E+05
 cg2d: Sum(rhs),rhsMax =  -4.99523252848884E+01  1.72448181097540E+00
(PID.TID 0000.0001)  ploadbar=  1.01009436273500E+05
 cg2d: Sum(rhs),rhsMax =  -5.01347512091713E+01  1.71790055691391E+00
(PID.TID 0000.0001)  ploadbar=  1.01009981688788E+05
 cg2d: Sum(rhs),rhsMax =  -5.03132607954519E+01  1.71158233011671E+00
(PID.TID 0000.0001)  ploadbar=  1.01010527104076E+05
 cg2d: Sum(rhs),rhsMax =  -5.04850006292700E+01  1.70561278288374E+00
(PID.TID 0000.0001)  ploadbar=  1.01011072519363E+05
 cg2d: Sum(rhs),rhsMax =  -5.06517564829817E+01  1.69991852929248E+00
(PID.TID 0000.0001)  ploadbar=  1.01011617934651E+05
 cg2d: Sum(rhs),rhsMax =  -5.08162075334862E+01  1.69439956256774E+00
(PID.TID 0000.0001)  ploadbar=  1.01012163349939E+05
 cg2d: Sum(rhs),rhsMax =  -5.09744536572688E+01  1.68917701689204E+00
(PID.TID 0000.0001)  ploadbar=  1.01012708765226E+05
 cg2d: Sum(rhs),rhsMax =  -5.11044482141835E+01  1.68491129292918E+00
(PID.TID 0000.0001)  ploadbar=  1.01011997236032E+05
 cg2d: Sum(rhs),rhsMax =  -5.12310196498703E+01  1.68076297738350E+00
(PID.TID 0000.0001)  ploadbar=  1.01011285706839E+05
 cg2d: Sum(rhs),rhsMax =  -5.13580374050960E+01  1.67659759057215E+00
(PID.TID 0000.0001)  ploadbar=  1.01010574177645E+05
 cg2d: Sum(rhs),rhsMax =  -5.14843207404494E+01  1.67244991357744E+00
(PID.TID 0000.0001)  ploadbar=  1.01009862648452E+05
 cg2d: Sum(rhs),rhsMax =  -5.16091413320500E+01  1.66833590997784E+00
(PID.TID 0000.0001)  ploadbar=  1.01009151119258E+05
 cg2d: Sum(rhs),rhsMax =  -5.17312593207638E+01  1.66429149114490E+00
(PID.TID 0000.0001)  ploadbar=  1.01008439590064E+05
 cg2d: Sum(rhs),rhsMax =  -5.18468336908619E+01  1.66046933940250E+00
(PID.TID 0000.0001)  ploadbar=  1.01007821123086E+05
 cg2d: Sum(rhs),rhsMax =  -5.19568695061806E+01  1.65682907081049E+00
(PID.TID 0000.0001)  ploadbar=  1.01007202656107E+05
 cg2d: Sum(rhs),rhsMax =  -5.20726230336231E+01  1.65300875183171E+00
(PID.TID 0000.0001)  ploadbar=  1.01006584189128E+05
 cg2d: Sum(rhs),rhsMax =  -5.21881022525137E+01  1.64919567511296E+00
(PID.TID 0000.0001)  ploadbar=  1.01005965722150E+05
 cg2d: Sum(rhs),rhsMax =  -5.23032270609244E+01  1.64538858256224E+00
(PID.TID 0000.0001)  ploadbar=  1.01005347255171E+05
 cg2d: Sum(rhs),rhsMax =  -5.24187061021642E+01  1.64156221705348E+00
(PID.TID 0000.0001)  ploadbar=  1.01004728788192E+05
 cg2d: Sum(rhs),rhsMax =  -5.25522900048820E+01  1.63717776955711E+00
(PID.TID 0000.0001)  ploadbar=  1.01004440862180E+05
 cg2d: Sum(rhs),rhsMax =  -5.26856742046157E+01  1.63280992160510E+00
(PID.TID 0000.0001)  ploadbar=  1.01004152936168E+05
 cg2d: Sum(rhs),rhsMax =  -5.28175755519936E+01  1.62849296205124E+00
(PID.TID 0000.0001)  ploadbar=  1.01003865010157E+05
 cg2d: Sum(rhs),rhsMax =  -5.29479057518241E+01  1.62422260536631E+00
(PID.TID 0000.0001)  ploadbar=  1.01003577084145E+05
 cg2d: Sum(rhs),rhsMax =  -5.30733314839119E+01  1.62009519450401E+00
(PID.TID 0000.0001)  ploadbar=  1.01003289158133E+05
 cg2d: Sum(rhs),rhsMax =  -5.31885161312978E+01  1.61627170050606E+00
(PID.TID 0000.0001)  ploadbar=  1.01003001232121E+05
 cg2d: Sum(rhs),rhsMax =  -5.32844314003698E+01  1.61312715594259E+00
(PID.TID 0000.0001)  ploadbar=  1.01003189086114E+05
 cg2d: Sum(rhs),rhsMax =  -5.33577468228451E+01  1.61075214029773E+00
(PID.TID 0000.0001)  ploadbar=  1.01003376940107E+05
 cg2d: Sum(rhs),rhsMax =  -5.34067094426050E+01  1.60918908158255E+00
(PID.TID 0000.0001)  ploadbar=  1.01003564794101E+05
 cg2d: Sum(rhs),rhsMax =  -5.34269224669008E+01  1.60856100755533E+00
(PID.TID 0000.0001)  ploadbar=  1.01003752648094E+05
 cg2d: Sum(rhs),rhsMax =  -5.34174049649461E+01  1.60889053116062E+00
(PID.TID 0000.0001)  ploadbar=  1.01003940502087E+05
 cg2d: Sum(rhs),rhsMax =  -5.33804356897853E+01  1.61010296393019E+00
(PID.TID 0000.0001)  ploadbar=  1.01004128356081E+05
 cg2d: Sum(rhs),rhsMax =  -5.33322207372206E+01  1.61165145775228E+00
(PID.TID 0000.0001)  ploadbar=  1.01003486071884E+05
 cg2d: Sum(rhs),rhsMax =  -5.32589001798146E+01  1.61395383432135E+00
(PID.TID 0000.0001)  ploadbar=  1.01002843787686E+05
 cg2d: Sum(rhs),rhsMax =  -5.31570359598051E+01  1.61711450203982E+00
(PID.TID 0000.0001)  ploadbar=  1.01002201503489E+05
 cg2d: Sum(rhs),rhsMax =  -5.30272871844138E+01  1.62111649739266E+00
(PID.TID 0000.0001)  ploadbar=  1.01001559219292E+05
 cg2d: Sum(rhs),rhsMax =  -5.28680800700807E+01  1.62601352366128E+00
(PID.TID 0000.0001)  ploadbar=  1.01000916935095E+05
 cg2d: Sum(rhs),rhsMax =  -5.26782404171084E+01  1.63185488259010E+00
(PID.TID 0000.0001)  ploadbar=  1.01000274650898E+05
 cg2d: Sum(rhs),rhsMax =  -5.24684430611125E+01  1.63838056514491E+00
(PID.TID 0000.0001)  ploadbar=  1.00999766561883E+05
 cg2d: Sum(rhs),rhsMax =  -5.22564205918099E+01  1.64504140958961E+00
(PID.TID 0000.0001)  ploadbar=  1.00999258472867E+05
 cg2d: Sum(rhs),rhsMax =  -5.20616746303311E+01  1.65121667245072E+00
(PID.TID 0000.0001)  ploadbar=  1.00998750383852E+05
 cg2d: Sum(rhs),rhsMax =  -5.18885996563731E+01  1.65675042406937E+00
(PID.TID 0000.0001)  ploadbar=  1.00998242294836E+05
 cg2d: Sum(rhs),rhsMax =  -5.17448638388466E+01  1.66137678231492E+00
(PID.TID 0000.0001)  ploadbar=  1.00997734205821E+05
 cg2d: Sum(rhs),rhsMax =  -5.16351119946910E+01  1.66492365319422E+00
(PID.TID 0000.0001)  ploadbar=  1.00997226116805E+05
 cg2d: Sum(rhs),rhsMax =  -5.15820319264909E+01  1.66665348619862E+00
(PID.TID 0000.0001)  ploadbar=  1.00996314948131E+05
 cg2d: Sum(rhs),rhsMax =  -5.15706437574994E+01  1.66702718932369E+00
(PID.TID 0000.0001)  ploadbar=  1.00995403779457E+05
 cg2d: Sum(rhs),rhsMax =  -5.15920368335200E+01  1.66632462299226E+00
(PID.TID 0000.0001)  ploadbar=  1.00994492610782E+05
 cg2d: Sum(rhs),rhsMax =  -5.16490714620772E+01  1.66445622097887E+00
(PID.TID 0000.0001)  ploadbar=  1.00993581442108E+05
 cg2d: Sum(rhs),rhsMax =  -5.17378075738892E+01  1.66155575481930E+00
(PID.TID 0000.0001)  ploadbar=  1.00992670273434E+05
 cg2d: Sum(rhs),rhsMax =  -5.18536245170035E+01  1.65777878057411E+00
(PID.TID 0000.0001)  ploadbar=  1.00991759104759E+05
 cg2d: Sum(rhs),rhsMax =  -5.20138131552118E+01  1.65267399892636E+00
(PID.TID 0000.0001)  ploadbar=  1.00992949505258E+05
 cg2d: Sum(rhs),rhsMax =  -5.21967402383763E+01  1.64695016092695E+00
(PID.TID 0000.0001)  ploadbar=  1.00994139905757E+05
 cg2d: Sum(rhs),rhsMax =  -5.23914174249857E+01  1.64096727193382E+00
(PID.TID 0000.0001)  ploadbar=  1.00995330306256E+05
 cg2d: Sum(rhs),rhsMax =  -5.25899790806958E+01  1.63497040309126E+00
(PID.TID 0000.0001)  ploadbar=  1.00996520706755E+05
 cg2d: Sum(rhs),rhsMax =  -5.27867458464822E+01  1.62912786233562E+00
(PID.TID 0000.0001)  ploadbar=  1.00997711107253E+05
 cg2d: Sum(rhs),rhsMax =  -5.29785088106822E+01  1.62352933539638E+00
(PID.TID 0000.0001)  ploadbar=  1.00998901507752E+05
 cg2d: Sum(rhs),rhsMax =  -5.31676474768594E+01  1.61802913297520E+00
(PID.TID 0000.0001)  ploadbar=  1.00999550211358E+05
 cg2d: Sum(rhs),rhsMax =  -5.33529911592978E+01  1.61265700024525E+00
(PID.TID 0000.0001)  ploadbar=  1.01000198914964E+05
 cg2d: Sum(rhs),rhsMax =  -5.35306096191563E+01  1.60752038099429E+00
(PID.TID 0000.0001)  ploadbar=  1.01000847618570E+05
 cg2d: Sum(rhs),rhsMax =  -5.37007863146818E+01  1.60259938404115E+00
(PID.TID 0000.0001)  ploadbar=  1.01001496322176E+05
 cg2d: Sum(rhs),rhsMax =  -5.38669919445154E+01  1.59778099988036E+00
(PID.TID 0000.0001)  ploadbar=  1.01002145025781E+05
 cg2d: Sum(rhs),rhsMax =  -5.40247550086423E+01  1.59319422523037E+00
(PID.TID 0000.0001)  ploadbar=  1.01002793729387E+05
 cg2d: Sum(rhs),rhsMax =  -5.41820194373698E+01  1.58864750217867E+00
(PID.TID 0000.0001)  ploadbar=  1.01004354675381E+05
 cg2d: Sum(rhs),rhsMax =  -5.43362256330317E+01  1.58421022465068E+00
(PID.TID 0000.0001)  ploadbar=  1.01005915621374E+05
 cg2d: Sum(rhs),rhsMax =  -5.44810343616711E+01  1.58005848382955E+00
(PID.TID 0000.0001)  ploadbar=  1.01007476567368E+05
 cg2d: Sum(rhs),rhsMax =  -5.46222294141360E+01  1.57601684052045E+00
(PID.TID 0000.0001)  ploadbar=  1.01009037513361E+05
 cg2d: Sum(rhs),rhsMax =  -5.47640545719809E+01  1.57195632070983E+00
(PID.TID 0000.0001)  ploadbar=  1.01010598459355E+05
 cg2d: Sum(rhs),rhsMax =  -5.48972660628209E+01  1.56813397208641E+00
(PID.TID 0000.0001)  ploadbar=  1.01012159405348E+05
 cg2d: Sum(rhs),rhsMax =  -5.50045709994798E+01  1.56502790282234E+00
(PID.TID 0000.0001)  ploadbar=  1.01013901388504E+05
 cg2d: Sum(rhs),rhsMax =  -5.51087691555523E+01  1.56198302999562E+00
(PID.TID 0000.0001)  ploadbar=  1.01015643371660E+05
 cg2d: Sum(rhs),rhsMax =  -5.52222103258221E+01  1.55864537216269E+00
(PID.TID 0000.0001)  ploadbar=  1.01017385354815E+05
 cg2d: Sum(rhs),rhsMax =  -5.53424485992490E+01  1.55508621323687E+00
(PID.TID 0000.0001)  ploadbar=  1.01019127337971E+05
 cg2d: Sum(rhs),rhsMax =  -5.54608453426804E+01  1.55154915650461E+00
(PID.TID 0000.0001)  ploadbar=  1.01020869321127E+05
 cg2d: Sum(rhs),rhsMax =  -5.55731063599809E+01  1.54815104013335E+00
(PID.TID 0000.0001)  ploadbar=  1.01022611304282E+05
 cg2d: Sum(rhs),rhsMax =  -5.56878741838163E+01  1.54475997957732E+00
(PID.TID 0000.0001)  ploadbar=  1.01025423218284E+05
 cg2d: Sum(rhs),rhsMax =  -5.57899747370429E+01  1.54179487694696E+00
(PID.TID 0000.0001)  ploadbar=  1.01028235132286E+05
 cg2d: Sum(rhs),rhsMax =  -5.58855180857510E+01  1.53908285652828E+00
(PID.TID 0000.0001)  ploadbar=  1.01031047046288E+05
 cg2d: Sum(rhs),rhsMax =  -5.59680529293312E+01  1.53679354250147E+00
(PID.TID 0000.0001)  ploadbar=  1.01033858960290E+05
 cg2d: Sum(rhs),rhsMax =  -5.60370491287027E+01  1.53493106468345E+00
(PID.TID 0000.0001)  ploadbar=  1.01036670874291E+05
 cg2d: Sum(rhs),rhsMax =  -5.60966004392705E+01  1.53337404463117E+00
(PID.TID 0000.0001)  ploadbar=  1.01039482788293E+05
 cg2d: Sum(rhs),rhsMax =  -5.61312514749694E+01  1.53251513621496E+00
(PID.TID 0000.0001)  ploadbar=  1.01041155659772E+05
 cg2d: Sum(rhs),rhsMax =  -5.61506498432762E+01  1.53208247661035E+00
(PID.TID 0000.0001)  ploadbar=  1.01042828531251E+05
 cg2d: Sum(rhs),rhsMax =  -5.61609666055005E+01  1.53190390223497E+00
(PID.TID 0000.0001)  ploadbar=  1.01044501402730E+05
 cg2d: Sum(rhs),rhsMax =  -5.61608042824963E+01  1.53200834141621E+00
(PID.TID 0000.0001)  ploadbar=  1.01046174274209E+05
 cg2d: Sum(rhs),rhsMax =  -5.61474946869986E+01  1.53246017361996E+00
(PID.TID 0000.0001)  ploadbar=  1.01047847145688E+05
 cg2d: Sum(rhs),rhsMax =  -5.61167967866611E+01  1.53337114236438E+00
(PID.TID 0000.0001)  ploadbar=  1.01049520017167E+05
 cg2d: Sum(rhs),rhsMax =  -5.60441916184949E+01  1.53539212263013E+00
(PID.TID 0000.0001)  ploadbar=  1.01051209824911E+05
 cg2d: Sum(rhs),rhsMax =  -5.59337455565143E+01  1.53841615998618E+00
(PID.TID 0000.0001)  ploadbar=  1.01052899632655E+05
 cg2d: Sum(rhs),rhsMax =  -5.57822573931873E+01  1.54253968839792E+00
(PID.TID 0000.0001)  ploadbar=  1.01054589440398E+05
 cg2d: Sum(rhs),rhsMax =  -5.55857793878638E+01  1.54788887815061E+00
(PID.TID 0000.0001)  ploadbar=  1.01056279248142E+05
 cg2d: Sum(rhs),rhsMax =  -5.53382446371486E+01  1.55465523149921E+00
(PID.TID 0000.0001)  ploadbar=  1.01057969055886E+05
 cg2d: Sum(rhs),rhsMax =  -5.50321393475848E+01  1.56308125070581E+00
(PID.TID 0000.0001)  ploadbar=  1.01059658863629E+05
 cg2d: Sum(rhs),rhsMax =  -5.46988217806738E+01  1.57236802710273E+00
(PID.TID 0000.0001)  ploadbar=  1.01061059325345E+05
 cg2d: Sum(rhs),rhsMax =  -5.43173309057242E+01  1.58315256269245E+00
(PID.TID 0000.0001)  ploadbar=  1.01062459787061E+05
 cg2d: Sum(rhs),rhsMax =  -5.38889396074196E+01  1.59545399761776E+00
(PID.TID 0000.0001)  ploadbar=  1.01063860248777E+05
 cg2d: Sum(rhs),rhsMax =  -5.34248872078360E+01  1.60900252833284E+00
(PID.TID 0000.0001)  ploadbar=  1.01065260710493E+05
 cg2d: Sum(rhs),rhsMax =  -5.29271840767639E+01  1.62379534971091E+00
(PID.TID 0000.0001)  ploadbar=  1.01066661172209E+05
 cg2d: Sum(rhs),rhsMax =  -5.23860670878457E+01  1.64020070464012E+00
(PID.TID 0000.0001)  ploadbar=  1.01068061633925E+05
 cg2d: Sum(rhs),rhsMax =  -5.18053723601909E+01  1.65828380316475E+00
(PID.TID 0000.0001)  ploadbar=  1.01068830276689E+05
 cg2d: Sum(rhs),rhsMax =  -5.11680884329629E+01  1.67869963659480E+00
(PID.TID 0000.0001)  ploadbar=  1.01069598919453E+05
 cg2d: Sum(rhs),rhsMax =  -5.04682600252829E+01  1.70180401055043E+00
(PID.TID 0000.0001)  ploadbar=  1.01070367562217E+05
 cg2d: Sum(rhs),rhsMax =  -4.97075701192326E+01  1.72773663289572E+00
(PID.TID 0000.0001)  ploadbar=  1.01071136204982E+05
 cg2d: Sum(rhs),rhsMax =  -4.88877589523994E+01  1.75665352774931E+00
(PID.TID 0000.0001)  ploadbar=  1.01071904847746E+05
 cg2d: Sum(rhs),rhsMax =  -4.80126035415827E+01  1.78866249866274E+00
(PID.TID 0000.0001)  ploadbar=  1.01072673490510E+05
 cg2d: Sum(rhs),rhsMax =  -4.71010760354852E+01  1.82321643915777E+00
(PID.TID 0000.0001)  ploadbar=  1.01072580482623E+05
 cg2d: Sum(rhs),rhsMax =  -4.55900433377518E+01  1.88351935276527E+00
(PID.TID 0000.0001)  ploadbar=  1.01072487474737E+05
 cg2d: Sum(rhs),rhsMax =  -4.41469206552670E+01  1.94488815824224E+00
(PID.TID 0000.0001)  ploadbar=  1.01072394466850E+05
 cg2d: Sum(rhs),rhsMax =  -4.27990072397245E+01  2.00584895871854E+00
(PID.TID 0000.0001)  ploadbar=  1.01072301458963E+05
 cg2d: Sum(rhs),rhsMax =  -4.15448090162242E+01  2.06601091791237E+00
(PID.TID 0000.0001)  ploadbar=  1.01072208451077E+05
 cg2d: Sum(rhs),rhsMax =  -4.03943038522071E+01  2.12434886700701E+00
(PID.TID 0000.0001)  ploadbar=  1.01072115443190E+05
 cg2d: Sum(rhs),rhsMax =  -3.92632353851262E+01  2.18501779782369E+00
(PID.TID 0000.0001)  ploadbar=  1.01072022508781E+05
 cg2d: Sum(rhs),rhsMax =  -3.82692210567320E+01  2.24121509030797E+00
(PID.TID 0000.0001)  ploadbar=  1.01071929574373E+05
 cg2d: Sum(rhs),rhsMax =  -3.74029964759844E+01  2.29252980562224E+00
(PID.TID 0000.0001)  ploadbar=  1.01071836639964E+05
 cg2d: Sum(rhs),rhsMax =  -3.66515015752425E+01  2.33890766793064E+00
(PID.TID 0000.0001)  ploadbar=  1.01071743705555E+05
 cg2d: Sum(rhs),rhsMax =  -3.60036459271019E+01  2.38032646452196E+00
(PID.TID 0000.0001)  ploadbar=  1.01071650771147E+05
 cg2d: Sum(rhs),rhsMax =  -3.54495681629825E+01  2.41681574462894E+00
(PID.TID 0000.0001)  ploadbar=  1.01071557836738E+05
 cg2d: Sum(rhs),rhsMax =  -3.49481706515062E+01  2.45076607727620E+00
(PID.TID 0000.0001)  ploadbar=  1.01070657567954E+05
 cg2d: Sum(rhs),rhsMax =  -3.45151835094325E+01  2.48076883825417E+00
(PID.TID 0000.0001)  ploadbar=  1.01069757299170E+05
 cg2d: Sum(rhs),rhsMax =  -3.41319120338270E+01  2.50786358449043E+00
(PID.TID 0000.0001)  ploadbar=  1.01068857030386E+05
 cg2d: Sum(rhs),rhsMax =  -3.37864276532721E+01  2.53272362397008E+00
(PID.TID 0000.0001)  ploadbar=  1.01067956761602E+05
 cg2d: Sum(rhs),rhsMax =  -3.35441206963216E+01  2.55021274737267E+00
(PID.TID 0000.0001)  ploadbar=  1.01067056492818E+05
 cg2d: Sum(rhs),rhsMax =  -3.33362845531745E+01  2.56528514193954E+00
(PID.TID 0000.0001)  ploadbar=  1.01066156224034E+05
 cg2d: Sum(rhs),rhsMax =  -3.31493714665149E+01  2.57906247725531E+00
(PID.TID 0000.0001)  ploadbar=  1.01064661629086E+05
 cg2d: Sum(rhs),rhsMax =  -3.29903993489318E+01  2.59094338060744E+00
(PID.TID 0000.0001)  ploadbar=  1.01063167034138E+05
 cg2d: Sum(rhs),rhsMax =  -3.28956144723856E+01  2.59800123025616E+00
(PID.TID 0000.0001)  ploadbar=  1.01061672439190E+05
 cg2d: Sum(rhs),rhsMax =  -3.28682175927505E+01  2.59989213387133E+00
(PID.TID 0000.0001)  ploadbar=  1.01060177844242E+05
 cg2d: Sum(rhs),rhsMax =  -3.29183981723528E+01  2.59577234583710E+00
(PID.TID 0000.0001)  ploadbar=  1.01058683249294E+05
 cg2d: Sum(rhs),rhsMax =  -3.30399981513073E+01  2.58616917077774E+00
(PID.TID 0000.0001)  ploadbar=  1.01057188654347E+05
 cg2d: Sum(rhs),rhsMax =  -3.32175400044657E+01  2.57224355027254E+00
(PID.TID 0000.0001)  ploadbar=  1.01055772366905E+05
 cg2d: Sum(rhs),rhsMax =  -3.34953344681186E+01  2.55074619796784E+00
(PID.TID 0000.0001)  ploadbar=  1.01054356079463E+05
 cg2d: Sum(rhs),rhsMax =  -3.38596119843556E+01  2.52306621563258E+00
(PID.TID 0000.0001)  ploadbar=  1.01052939792021E+05
 cg2d: Sum(rhs),rhsMax =  -3.43026656793228E+01  2.49016576374442E+00
(PID.TID 0000.0001)  ploadbar=  1.01051523504579E+05
 cg2d: Sum(rhs),rhsMax =  -3.48137418537013E+01  2.45322100696685E+00
(PID.TID 0000.0001)  ploadbar=  1.01050107217137E+05
 cg2d: Sum(rhs),rhsMax =  -3.53793088029795E+01  2.41353920757024E+00
(PID.TID 0000.0001)  ploadbar=  1.01048690929695E+05
 cg2d: Sum(rhs),rhsMax =  -3.60160944281110E+01  2.37039662517843E+00
(PID.TID 0000.0001)  ploadbar=  1.01048052080934E+05
 cg2d: Sum(rhs),rhsMax =  -3.66178594972625E+01  2.33096359662227E+00
(PID.TID 0000.0001)  ploadbar=  1.01047413232173E+05
 cg2d: Sum(rhs),rhsMax =  -3.71785148896554E+01  2.29532217391093E+00
(PID.TID 0000.0001)  ploadbar=  1.01046774383412E+05
 cg2d: Sum(rhs),rhsMax =  -3.77207218112377E+01  2.26182068252280E+00
(PID.TID 0000.0001)  ploadbar=  1.01046135534651E+05
 cg2d: Sum(rhs),rhsMax =  -3.82804649700222E+01  2.22821428051490E+00
(PID.TID 0000.0001)  ploadbar=  1.01045496685890E+05
 cg2d: Sum(rhs),rhsMax =  -3.88959064466164E+01  2.19238971556920E+00
(PID.TID 0000.0001)  ploadbar=  1.01044857837130E+05
 cg2d: Sum(rhs),rhsMax =  -3.95745077241435E+01  2.15420062182046E+00
(PID.TID 0000.0001)  ploadbar=  1.01044223273188E+05
 cg2d: Sum(rhs),rhsMax =  -4.03690897409391E+01  2.11117674494900E+00
(PID.TID 0000.0001)  ploadbar=  1.01043588709246E+05
 cg2d: Sum(rhs),rhsMax =  -4.12346719472662E+01  2.06620308797647E+00
(PID.TID 0000.0001)  ploadbar=  1.01042954145305E+05
 cg2d: Sum(rhs),rhsMax =  -4.29901098256564E+01  1.98115536525193E+00
(PID.TID 0000.0001)  ploadbar=  1.01042319581363E+05
 cg2d: Sum(rhs),rhsMax =  -4.48500565530840E+01  1.89829873658867E+00
(PID.TID 0000.0001)  ploadbar=  1.01041685017422E+05
 cg2d: Sum(rhs),rhsMax =  -4.66970922131746E+01  1.82249739889565E+00
(PID.TID 0000.0001)  ploadbar=  1.01041050453480E+05
 cg2d: Sum(rhs),rhsMax =  -4.87510856311331E+01  1.74510198883377E+00
(PID.TID 0000.0001)  ploadbar=  1.01041634494518E+05
 cg2d: Sum(rhs),rhsMax =  -5.10415106246010E+01  1.66628326232400E+00
(PID.TID 0000.0001)  ploadbar=  1.01042218535556E+05
 cg2d: Sum(rhs),rhsMax =  -5.36139421427010E+01  1.58591584571201E+00
(PID.TID 0000.0001)  ploadbar=  1.01042802576595E+05
 cg2d: Sum(rhs),rhsMax =  -5.65032464343467E+01  1.50448315429639E+00
(PID.TID 0000.0001)  ploadbar=  1.01043386617633E+05
 cg2d: Sum(rhs),rhsMax =  -5.96903925001793E+01  1.42388280603107E+00
(PID.TID 0000.0001)  ploadbar=  1.01043970658671E+05
 cg2d: Sum(rhs),rhsMax =  -6.31276984067480E+01  1.34613915663633E+00
(PID.TID 0000.0001)  ploadbar=  1.01044554699709E+05
 cg2d: Sum(rhs),rhsMax =  -6.65869188309342E+01  1.27600316936653E+00
(PID.TID 0000.0001)  ploadbar=  1.01044040293573E+05
 cg2d: Sum(rhs),rhsMax =  -6.56933552627238E+01  1.29314227887918E+00
(PID.TID 0000.0001)  ploadbar=  1.01043525887436E+05
 cg2d: Sum(rhs),rhsMax =  -6.35293900950928E+01  1.33695003506938E+00
(PID.TID 0000.0001)  ploadbar=  1.01043011481300E+05
 cg2d: Sum(rhs),rhsMax =  -6.17930014125695E+01  1.37425222195558E+00
(PID.TID 0000.0001)  ploadbar=  1.01042497075164E+05
 cg2d: Sum(rhs),rhsMax =  -6.04824521323099E+01  1.40373381921508E+00
(PID.TID 0000.0001)  ploadbar=  1.01041982669028E+05
 cg2d: Sum(rhs),rhsMax =  -5.95522938094251E+01  1.42533200421993E+00
(PID.TID 0000.0001)  ploadbar=  1.01041468262891E+05
 cg2d: Sum(rhs),rhsMax =  -5.90040732400992E+01  1.43825349888680E+00
(PID.TID 0000.0001)  ploadbar=  1.01040898851457E+05
 cg2d: Sum(rhs),rhsMax =  -5.86480628931033E+01  1.44666371880853E+00
(PID.TID 0000.0001)  ploadbar=  1.01040329440023E+05
 cg2d: Sum(rhs),rhsMax =  -5.84339853578065E+01  1.45164058004990E+00
(PID.TID 0000.0001)  ploadbar=  1.01039760028589E+05
 cg2d: Sum(rhs),rhsMax =  -5.83066655711167E+01  1.45448003849486E+00
(PID.TID 0000.0001)  ploadbar=  1.01039190617156E+05
 cg2d: Sum(rhs),rhsMax =  -5.82272591595278E+01  1.45612032946328E+00
(PID.TID 0000.0001)  ploadbar=  1.01038621205722E+05
 cg2d: Sum(rhs),rhsMax =  -5.81946325589567E+01  1.45657543087367E+00
(PID.TID 0000.0001)  ploadbar=  1.01038051794288E+05
 cg2d: Sum(rhs),rhsMax =  -5.82089366612162E+01  1.45585368927946E+00
(PID.TID 0000.0001)  ploadbar=  1.01037918909047E+05
 cg2d: Sum(rhs),rhsMax =  -5.82898688320103E+01  1.45346175703398E+00
(PID.TID 0000.0001)  ploadbar=  1.01037786023807E+05
 cg2d: Sum(rhs),rhsMax =  -5.84500495019013E+01  1.44909742851425E+00
(PID.TID 0000.0001)  ploadbar=  1.01037653138566E+05
 cg2d: Sum(rhs),rhsMax =  -5.86651391633698E+01  1.44339111090976E+00
(PID.TID 0000.0001)  ploadbar=  1.01037520253326E+05
 cg2d: Sum(rhs),rhsMax =  -5.89178904482680E+01  1.43679335437452E+00
(PID.TID 0000.0001)  ploadbar=  1.01037387368086E+05
 cg2d: Sum(rhs),rhsMax =  -5.91234421534591E+01  1.43137733262417E+00
(PID.TID 0000.0001)  ploadbar=  1.01037254482845E+05
 cg2d: Sum(rhs),rhsMax =  -5.92646851170017E+01  1.42759292583329E+00
(PID.TID 0000.0001)  ploadbar=  1.01036891688356E+05
 cg2d: Sum(rhs),rhsMax =  -5.94146970308971E+01  1.42366176260789E+00
(PID.TID 0000.0001)  ploadbar=  1.01036528893866E+05
 cg2d: Sum(rhs),rhsMax =  -5.96100411225666E+01  1.41871282452864E+00
(PID.TID 0000.0001)  ploadbar=  1.01036166099377E+05
 cg2d: Sum(rhs),rhsMax =  -5.98750441823504E+01  1.41219035982012E+00
(PID.TID 0000.0001)  ploadbar=  1.01035803304887E+05
 cg2d: Sum(rhs),rhsMax =  -6.06307836558359E+01  1.39438045544336E+00
(PID.TID 0000.0001)  ploadbar=  1.01035440510398E+05
 cg2d: Sum(rhs),rhsMax =  -6.14571324231689E+01  1.37545454151726E+00
(PID.TID 0000.0001)  ploadbar=  1.01035077715908E+05
 cg2d: Sum(rhs),rhsMax =  -6.23451884246237E+01  1.35566413219623E+00
(PID.TID 0000.0001)  ploadbar=  1.01034456757164E+05
 cg2d: Sum(rhs),rhsMax =  -6.33033343414400E+01  1.33491973234859E+00
(PID.TID 0000.0001)  ploadbar=  1.01033835798419E+05
 cg2d: Sum(rhs),rhsMax =  -6.43373627596344E+01  1.31321051867853E+00
(PID.TID 0000.0001)  ploadbar=  1.01033214839674E+05
 cg2d: Sum(rhs),rhsMax =  -6.54480691413333E+01  1.29064029877675E+00
(PID.TID 0000.0001)  ploadbar=  1.01032593880930E+05
 cg2d: Sum(rhs),rhsMax =  -6.66254438358972E+01  1.26751982461403E+00
(PID.TID 0000.0001)  ploadbar=  1.01031972922185E+05
 cg2d: Sum(rhs),rhsMax =  -6.78492547997736E+01  1.24431457878129E+00
(PID.TID 0000.0001)  ploadbar=  1.01031351963441E+05
 cg2d: Sum(rhs),rhsMax =  -6.91101127516249E+01  1.22127814083499E+00
(PID.TID 0000.0001)  ploadbar=  1.01031400113219E+05
 cg2d: Sum(rhs),rhsMax =  -7.03859326492179E+01  1.19880998287672E+00
(PID.TID 0000.0001)  ploadbar=  1.01031448262997E+05
 cg2d: Sum(rhs),rhsMax =  -7.16674566959661E+01  1.17704227920393E+00
(PID.TID 0000.0001)  ploadbar=  1.01031496412776E+05
 cg2d: Sum(rhs),rhsMax =  -7.29658054851375E+01  1.15576585011954E+00
(PID.TID 0000.0001)  ploadbar=  1.01031544562554E+05
 cg2d: Sum(rhs),rhsMax =  -7.42820819130719E+01  1.13495008878424E+00
(PID.TID 0000.0001)  ploadbar=  1.01031592712332E+05
 cg2d: Sum(rhs),rhsMax =  -7.55924236810967E+01  1.11493518101284E+00
(PID.TID 0000.0001)  ploadbar=  1.01031640862110E+05
 cg2d: Sum(rhs),rhsMax =  -7.68399499990898E+01  1.09646752470215E+00
(PID.TID 0000.0001)  ploadbar=  1.01032188205096E+05
 cg2d: Sum(rhs),rhsMax =  -7.79104865353605E+01  1.08100834015568E+00
(PID.TID 0000.0001)  ploadbar=  1.01032735548082E+05
 cg2d: Sum(rhs),rhsMax =  -7.79548802408587E+01  1.07996647382716E+00
(PID.TID 0000.0001)  ploadbar=  1.01033282891068E+05
 cg2d: Sum(rhs),rhsMax =  -7.79926631898205E+01  1.07898214970892E+00
(PID.TID 0000.0001)  ploadbar=  1.01033830234054E+05
 cg2d: Sum(rhs),rhsMax =  -7.80209010649096E+01  1.07809340853253E+00
(PID.TID 0000.0001)  ploadbar=  1.01034377577040E+05
 cg2d: Sum(rhs),rhsMax =  -7.80406892384160E+01  1.07728518826839E+00
(PID.TID 0000.0001)  ploadbar=  1.01034924920025E+05
 cg2d: Sum(rhs),rhsMax =  -7.80596869979763E+01  1.07652339489837E+00
(PID.TID 0000.0001)  ploadbar=  1.01035054250421E+05
 cg2d: Sum(rhs),rhsMax =  -7.80764362458270E+01  1.07582678739029E+00
(PID.TID 0000.0001)  ploadbar=  1.01035183580817E+05
 cg2d: Sum(rhs),rhsMax =  -7.80892720681671E+01  1.07521534714686E+00
(PID.TID 0000.0001)  ploadbar=  1.01035312911213E+05
 cg2d: Sum(rhs),rhsMax =  -7.80939275695750E+01  1.07474486298913E+00
(PID.TID 0000.0001)  ploadbar=  1.01035442241609E+05
 cg2d: Sum(rhs),rhsMax =  -7.80935481587746E+01  1.07436961510127E+00
(PID.TID 0000.0001)  ploadbar=  1.01035571572006E+05
 cg2d: Sum(rhs),rhsMax =  -7.80901460323825E+01  1.07405756635163E+00
(PID.TID 0000.0001)  ploadbar=  1.01035700902402E+05
 cg2d: Sum(rhs),rhsMax =  -7.80985563086953E+01  1.07360978113516E+00
(PID.TID 0000.0001)  ploadbar=  1.01035811788439E+05
 cg2d: Sum(rhs),rhsMax =  -7.80991078885824E+01  1.07329087058851E+00
(PID.TID 0000.0001)  ploadbar=  1.01035922674476E+05
 cg2d: Sum(rhs),rhsMax =  -7.81047136288930E+01  1.07291973591622E+00
(PID.TID 0000.0001)  ploadbar=  1.01036033560513E+05
 cg2d: Sum(rhs),rhsMax =  -7.81122898331387E+01  1.07253359500886E+00
(PID.TID 0000.0001)  ploadbar=  1.01036144446550E+05
 cg2d: Sum(rhs),rhsMax =  -7.81215485805049E+01  1.07213401725951E+00
(PID.TID 0000.0001)  ploadbar=  1.01036255332587E+05
 cg2d: Sum(rhs),rhsMax =  -7.81327192564382E+01  1.07171620995701E+00
(PID.TID 0000.0001)  ploadbar=  1.01036366218624E+05
 cg2d: Sum(rhs),rhsMax =  -7.81674621388050E+01  1.07098060452335E+00
(PID.TID 0000.0001)  ploadbar=  1.01038101281333E+05
 cg2d: Sum(rhs),rhsMax =  -7.81974755477858E+01  1.07031469207913E+00
(PID.TID 0000.0001)  ploadbar=  1.01039836344042E+05
 cg2d: Sum(rhs),rhsMax =  -7.82252491380838E+01  1.06968187285150E+00
(PID.TID 0000.0001)  ploadbar=  1.01041571406750E+05
 cg2d: Sum(rhs),rhsMax =  -7.82539779024947E+01  1.06903449415034E+00
(PID.TID 0000.0001)  ploadbar=  1.01043306469459E+05
 cg2d: Sum(rhs),rhsMax =  -7.82791861488365E+01  1.06842973548126E+00
(PID.TID 0000.0001)  ploadbar=  1.01045041532168E+05
 cg2d: Sum(rhs),rhsMax =  -7.82991082977226E+01  1.06788799816564E+00
(PID.TID 0000.0001)  ploadbar=  1.01046776594877E+05
 cg2d: Sum(rhs),rhsMax =  -7.83268530920952E+01  1.06720661840256E+00
(PID.TID 0000.0001)  ploadbar=  1.01046879623631E+05
 cg2d: Sum(rhs),rhsMax =  -7.83444307476532E+01  1.06662761987729E+00
(PID.TID 0000.0001)  ploadbar=  1.01046982652385E+05
 cg2d: Sum(rhs),rhsMax =  -7.83444914335675E+01  1.06624772133486E+00
(PID.TID 0000.0001)  ploadbar=  1.01047085681140E+05
 cg2d: Sum(rhs),rhsMax =  -7.83333644014479E+01  1.06597819126271E+00
(PID.TID 0000.0001)  ploadbar=  1.01047188709894E+05
 cg2d: Sum(rhs),rhsMax =  -7.83104558879532E+01  1.06582453380806E+00
(PID.TID 0000.0001)  ploadbar=  1.01047291738649E+05
 cg2d: Sum(rhs),rhsMax =  -7.82770166101224E+01  1.06576748289856E+00
(PID.TID 0000.0001)  ploadbar=  1.01047394767403E+05
 cg2d: Sum(rhs),rhsMax =  -7.82178924857845E+01  1.06611504316721E+00
(PID.TID 0000.0001)  ploadbar=  1.01047500157859E+05
 cg2d: Sum(rhs),rhsMax =  -7.81557066261427E+01  1.06655761855112E+00
(PID.TID 0000.0001)  ploadbar=  1.01047605548315E+05
 cg2d: Sum(rhs),rhsMax =  -7.80960052748733E+01  1.06701813553871E+00
(PID.TID 0000.0001)  ploadbar=  1.01047710938770E+05
 cg2d: Sum(rhs),rhsMax =  -7.80354886842310E+01  1.06753894048839E+00
(PID.TID 0000.0001)  ploadbar=  1.01047816329226E+05
 cg2d: Sum(rhs),rhsMax =  -7.79747504365966E+01  1.06810878004449E+00
(PID.TID 0000.0001)  ploadbar=  1.01047921719682E+05
 cg2d: Sum(rhs),rhsMax =  -7.79143215888430E+01  1.06871584804704E+00
(PID.TID 0000.0001)  ploadbar=  1.01048027110138E+05
 cg2d: Sum(rhs),rhsMax =  -7.78483834731214E+01  1.06939272312748E+00
(PID.TID 0000.0001)  ploadbar=  1.01048286154831E+05
 cg2d: Sum(rhs),rhsMax =  -7.77890881883416E+01  1.06996244186865E+00
(PID.TID 0000.0001)  ploadbar=  1.01048545199524E+05
 cg2d: Sum(rhs),rhsMax =  -7.77252176338421E+01  1.07057496659589E+00
(PID.TID 0000.0001)  ploadbar=  1.01048804244218E+05
 cg2d: Sum(rhs),rhsMax =  -7.76569796222118E+01  1.07122527801419E+00
(PID.TID 0000.0001)  ploadbar=  1.01049063288911E+05
 cg2d: Sum(rhs),rhsMax =  -7.75876529332593E+01  1.07186532492539E+00
(PID.TID 0000.0001)  ploadbar=  1.01049322333605E+05
 cg2d: Sum(rhs),rhsMax =  -7.75164899059782E+01  1.07250280402279E+00
(PID.TID 0000.0001)  ploadbar=  1.01049581378298E+05
 cg2d: Sum(rhs),rhsMax =  -7.73321321329713E+01  1.07471207360039E+00
(PID.TID 0000.0001)  ploadbar=  1.01049121924585E+05
 cg2d: Sum(rhs),rhsMax =  -7.71563050164361E+01  1.07680985844002E+00
(PID.TID 0000.0001)  ploadbar=  1.01048662470872E+05
 cg2d: Sum(rhs),rhsMax =  -7.69783819712667E+01  1.07894041887967E+00
(PID.TID 0000.0001)  ploadbar=  1.01048203017159E+05
 cg2d: Sum(rhs),rhsMax =  -7.67969167921455E+01  1.08111994274997E+00
(PID.TID 0000.0001)  ploadbar=  1.01047743563447E+05
 cg2d: Sum(rhs),rhsMax =  -7.66173836455337E+01  1.08326627095028E+00
(PID.TID 0000.0001)  ploadbar=  1.01047284109734E+05
 cg2d: Sum(rhs),rhsMax =  -7.64398452092982E+01  1.08537256684728E+00
(PID.TID 0000.0001)  ploadbar=  1.01046824656021E+05
 cg2d: Sum(rhs),rhsMax =  -7.62292718521201E+01  1.08793365519832E+00
(PID.TID 0000.0001)  ploadbar=  1.01046882601928E+05
 cg2d: Sum(rhs),rhsMax =  -7.60130319659418E+01  1.09056056125389E+00
(PID.TID 0000.0001)  ploadbar=  1.01046940547836E+05
 cg2d: Sum(rhs),rhsMax =  -7.57988985318614E+01  1.09313974100966E+00
(PID.TID 0000.0001)  ploadbar=  1.01046998493743E+05
 cg2d: Sum(rhs),rhsMax =  -7.55830406209890E+01  1.09572382775157E+00
(PID.TID 0000.0001)  ploadbar=  1.01047056439651E+05
 cg2d: Sum(rhs),rhsMax =  -7.53604452891576E+01  1.09838445725650E+00
(PID.TID 0000.0001)  ploadbar=  1.01047114385558E+05
 cg2d: Sum(rhs),rhsMax =  -7.51295109006991E+01  1.10114550788325E+00
(PID.TID 0000.0001)  ploadbar=  1.01047172331466E+05
 cg2d: Sum(rhs),rhsMax =  -7.49085921729559E+01  1.10383469269775E+00
(PID.TID 0000.0001)  ploadbar=  1.01048164406128E+05
 cg2d: Sum(rhs),rhsMax =  -7.46933298870091E+01  1.10651161365864E+00
(PID.TID 0000.0001)  ploadbar=  1.01049156480791E+05
 cg2d: Sum(rhs),rhsMax =  -7.44966415020829E+01  1.10898127969443E+00
(PID.TID 0000.0001)  ploadbar=  1.01050148555453E+05
 cg2d: Sum(rhs),rhsMax =  -7.43160185431921E+01  1.11127438055528E+00
(PID.TID 0000.0001)  ploadbar=  1.01051140630116E+05
 cg2d: Sum(rhs),rhsMax =  -7.41548198854521E+01  1.11333398583149E+00
(PID.TID 0000.0001)  ploadbar=  1.01052132704778E+05
 cg2d: Sum(rhs),rhsMax =  -7.40164981047671E+01  1.11509980008904E+00
(PID.TID 0000.0001)  ploadbar=  1.01053124779440E+05
 cg2d: Sum(rhs),rhsMax =  -7.39434206297289E+01  1.11588997269024E+00
(PID.TID 0000.0001)  ploadbar=  1.01053902937000E+05
 cg2d: Sum(rhs),rhsMax =  -7.38859056992616E+01  1.11644312501733E+00
(PID.TID 0000.0001)  ploadbar=  1.01054681094559E+05
 cg2d: Sum(rhs),rhsMax =  -7.38828076771077E+01  1.11616454369948E+00
(PID.TID 0000.0001)  ploadbar=  1.01055459252118E+05
 cg2d: Sum(rhs),rhsMax =  -7.39254892201490E+01  1.11518029784235E+00
(PID.TID 0000.0001)  ploadbar=  1.01056237409677E+05
 cg2d: Sum(rhs),rhsMax =  -7.40127825142332E+01  1.11350802675170E+00
(PID.TID 0000.0001)  ploadbar=  1.01057015567237E+05
 cg2d: Sum(rhs),rhsMax =  -7.41457616452075E+01  1.11113279209236E+00
(PID.TID 0000.0001)  ploadbar=  1.01057793724796E+05
 cg2d: Sum(rhs),rhsMax =  -7.43787237004533E+01  1.10727837610466E+00
(PID.TID 0000.0001)  ploadbar=  1.01058624667408E+05
 cg2d: Sum(rhs),rhsMax =  -7.46345273064320E+01  1.10310894856761E+00
(PID.TID 0000.0001)  ploadbar=  1.01059455610021E+05
 cg2d: Sum(rhs),rhsMax =  -7.48983599551628E+01  1.09884739549736E+00
(PID.TID 0000.0001)  ploadbar=  1.01060286552633E+05
 cg2d: Sum(rhs),rhsMax =  -7.51630251787536E+01  1.09459734676637E+00
(PID.TID 0000.0001)  ploadbar=  1.01061117495246E+05
 cg2d: Sum(rhs),rhsMax =  -7.54251503827782E+01  1.09040268849423E+00
(PID.TID 0000.0001)  ploadbar=  1.01061948437858E+05
 cg2d: Sum(rhs),rhsMax =  -7.56853805599150E+01  1.08624676572715E+00
(PID.TID 0000.0001)  ploadbar=  1.01062779380471E+05
 cg2d: Sum(rhs),rhsMax =  -7.59849254599003E+01  1.08153958445777E+00
(PID.TID 0000.0001)  ploadbar=  1.01063156302304E+05
 cg2d: Sum(rhs),rhsMax =  -7.62936532568476E+01  1.07671662180362E+00
(PID.TID 0000.0001)  ploadbar=  1.01063533224138E+05
 cg2d: Sum(rhs),rhsMax =  -7.65950321161384E+01  1.07201070987105E+00
(PID.TID 0000.0001)  ploadbar=  1.01063910145971E+05
 cg2d: Sum(rhs),rhsMax =  -7.69031705225897E+01  1.06722183981938E+00
(PID.TID 0000.0001)  ploadbar=  1.01064287067805E+05
 cg2d: Sum(rhs),rhsMax =  -7.72173051538357E+01  1.06236150446886E+00
(PID.TID 0000.0001)  ploadbar=  1.01064663989638E+05
 cg2d: Sum(rhs),rhsMax =  -7.75369352623556E+01  1.05743692684487E+00
(PID.TID 0000.0001)  ploadbar=  1.01065040911472E+05
 cg2d: Sum(rhs),rhsMax =  -7.78425178486090E+01  1.05281139817469E+00
(PID.TID 0000.0001)  ploadbar=  1.01066900075468E+05
 cg2d: Sum(rhs),rhsMax =  -7.81682388641184E+01  1.04801780223640E+00
(PID.TID 0000.0001)  ploadbar=  1.01068759239464E+05
 cg2d: Sum(rhs),rhsMax =  -7.85079308070992E+01  1.04313998141966E+00
(PID.TID 0000.0001)  ploadbar=  1.01070618403460E+05
 cg2d: Sum(rhs),rhsMax =  -7.83715821586688E+01  1.04466901242987E+00
(PID.TID 0000.0001)  ploadbar=  1.01072477567456E+05
 cg2d: Sum(rhs),rhsMax =  -7.79017891325011E+01  1.05073692831394E+00
(PID.TID 0000.0001)  ploadbar=  1.01074336731453E+05
 cg2d: Sum(rhs),rhsMax =  -7.74428609874108E+01  1.05678016081568E+00
(PID.TID 0000.0001)  ploadbar=  1.01076195895449E+05
 cg2d: Sum(rhs),rhsMax =  -7.69785347934102E+01  1.06296753262463E+00
(PID.TID 0000.0001)  ploadbar=  1.01076673255673E+05
 cg2d: Sum(rhs),rhsMax =  -7.64880904857024E+01  1.06958464996071E+00
(PID.TID 0000.0001)  ploadbar=  1.01077150615898E+05
 cg2d: Sum(rhs),rhsMax =  -7.59742725143137E+01  1.07660333435935E+00
(PID.TID 0000.0001)  ploadbar=  1.01077627976123E+05
 cg2d: Sum(rhs),rhsMax =  -7.54360853470046E+01  1.08405065480217E+00
(PID.TID 0000.0001)  ploadbar=  1.01078105336348E+05
 cg2d: Sum(rhs),rhsMax =  -7.48914653354458E+01  1.09167803159415E+00
(PID.TID 0000.0001)  ploadbar=  1.01078582696573E+05
 cg2d: Sum(rhs),rhsMax =  -7.43499286110726E+01  1.09934868760911E+00
(PID.TID 0000.0001)  ploadbar=  1.01079060056798E+05
 cg2d: Sum(rhs),rhsMax =  -7.38278807084508E+01  1.10687500096660E+00
(PID.TID 0000.0001)  ploadbar=  1.01078337724003E+05
 cg2d: Sum(rhs),rhsMax =  -7.33454377924470E+01  1.11393973413451E+00
(PID.TID 0000.0001)  ploadbar=  1.01077615391208E+05
 cg2d: Sum(rhs),rhsMax =  -7.29774967719373E+01  1.11936977125420E+00
(PID.TID 0000.0001)  ploadbar=  1.01076893058414E+05
 cg2d: Sum(rhs),rhsMax =  -7.26328791275764E+01  1.12452188886130E+00
(PID.TID 0000.0001)  ploadbar=  1.01076170725619E+05
 cg2d: Sum(rhs),rhsMax =  -7.23215526720537E+01  1.12922888437512E+00
(PID.TID 0000.0001)  ploadbar=  1.01075448392824E+05
 cg2d: Sum(rhs),rhsMax =  -7.20413263721030E+01  1.13350920865761E+00
(PID.TID 0000.0001)  ploadbar=  1.01074726060030E+05
 cg2d: Sum(rhs),rhsMax =  -7.17594598777103E+01  1.13783371402841E+00
(PID.TID 0000.0001)  ploadbar=  1.01074970455422E+05
 cg2d: Sum(rhs),rhsMax =  -7.15274301458936E+01  1.14137972870735E+00
(PID.TID 0000.0001)  ploadbar=  1.01075214850815E+05
 cg2d: Sum(rhs),rhsMax =  -7.13147806316217E+01  1.14461933249713E+00
(PID.TID 0000.0001)  ploadbar=  1.01075459246208E+05
 cg2d: Sum(rhs),rhsMax =  -7.11423881664147E+01  1.14721030237524E+00
(PID.TID 0000.0001)  ploadbar=  1.01075703641601E+05
 cg2d: Sum(rhs),rhsMax =  -7.10188842155697E+01  1.14900183106992E+00
(PID.TID 0000.0001)  ploadbar=  1.01075948036993E+05
 cg2d: Sum(rhs),rhsMax =  -7.09506223517226E+01  1.14988243998484E+00
(PID.TID 0000.0001)  ploadbar=  1.01076192432386E+05
 cg2d: Sum(rhs),rhsMax =  -7.08879089040147E+01  1.15072995931127E+00
(PID.TID 0000.0001)  ploadbar=  1.01076601434197E+05
 cg2d: Sum(rhs),rhsMax =  -7.09205553462106E+01  1.15008546462888E+00
(PID.TID 0000.0001)  ploadbar=  1.01077010436009E+05
 cg2d: Sum(rhs),rhsMax =  -7.10499424641578E+01  1.14793018849315E+00
(PID.TID 0000.0001)  ploadbar=  1.01077419437820E+05
 cg2d: Sum(rhs),rhsMax =  -7.12819712029222E+01  1.14418359846712E+00
(PID.TID 0000.0001)  ploadbar=  1.01077828439631E+05
 cg2d: Sum(rhs),rhsMax =  -7.16038122967851E+01  1.13907741741003E+00
(PID.TID 0000.0001)  ploadbar=  1.01078237441442E+05
 cg2d: Sum(rhs),rhsMax =  -7.19972935823737E+01  1.13293093231218E+00
(PID.TID 0000.0001)  ploadbar=  1.01078646443254E+05
 cg2d: Sum(rhs),rhsMax =  -7.25236132713124E+01  1.12476037083791E+00
(PID.TID 0000.0001)  ploadbar=  1.01078984630535E+05
 cg2d: Sum(rhs),rhsMax =  -7.34072625537815E+01  1.11124249097998E+00
(PID.TID 0000.0001)  ploadbar=  1.01079322817817E+05
 cg2d: Sum(rhs),rhsMax =  -7.43049930931135E+01  1.09780963891285E+00
(PID.TID 0000.0001)  ploadbar=  1.01079661005098E+05
 cg2d: Sum(rhs),rhsMax =  -7.51452438646643E+01  1.08549926709275E+00
(PID.TID 0000.0001)  ploadbar=  1.01079999192380E+05
 cg2d: Sum(rhs),rhsMax =  -7.58973228259083E+01  1.07468001007021E+00
(PID.TID 0000.0001)  ploadbar=  1.01080337379662E+05
 cg2d: Sum(rhs),rhsMax =  -7.65270010733958E+01  1.06574865928024E+00
(PID.TID 0000.0001)  ploadbar=  1.01080675566943E+05
 cg2d: Sum(rhs),rhsMax =  -7.69807254957255E+01  1.05939044631266E+00
(PID.TID 0000.0001)  ploadbar=  1.01080942046733E+05
 cg2d: Sum(rhs),rhsMax =  -7.73188559157826E+01  1.05468660568448E+00
(PID.TID 0000.0001)  ploadbar=  1.01081208526523E+05
 cg2d: Sum(rhs),rhsMax =  -7.76562437675656E+01  1.05003801752864E+00
(PID.TID 0000.0001)  ploadbar=  1.01081475006313E+05
 cg2d: Sum(rhs),rhsMax =  -7.79904363406075E+01  1.04547423117748E+00
(PID.TID 0000.0001)  ploadbar=  1.01081741486103E+05
 cg2d: Sum(rhs),rhsMax =  -7.83075182001398E+01  1.04117589992326E+00
(PID.TID 0000.0001)  ploadbar=  1.01082007965892E+05
 cg2d: Sum(rhs),rhsMax =  -7.85912418262963E+01  1.03734945937995E+00
(PID.TID 0000.0001)  ploadbar=  1.01082274445682E+05
 cg2d: Sum(rhs),rhsMax =  -7.88581159154108E+01  1.03373340868528E+00
(PID.TID 0000.0001)  ploadbar=  1.01082266736926E+05
 cg2d: Sum(rhs),rhsMax =  -7.90407068505157E+01  1.03120201464555E+00
(PID.TID 0000.0001)  ploadbar=  1.01082259028169E+05
 cg2d: Sum(rhs),rhsMax =  -7.91502147218613E+01  1.02959258251884E+00
(PID.TID 0000.0001)  ploadbar=  1.01082251319413E+05
 cg2d: Sum(rhs),rhsMax =  -7.91769529743140E+01  1.02902261468565E+00
(PID.TID 0000.0001)  ploadbar=  1.01082243610656E+05
 cg2d: Sum(rhs),rhsMax =  -7.91215338213539E+01  1.02948055961413E+00
(PID.TID 0000.0001)  ploadbar=  1.01082235901899E+05
 cg2d: Sum(rhs),rhsMax =  -7.89934660373302E+01  1.03084641491251E+00
(PID.TID 0000.0001)  ploadbar=  1.01082228193143E+05
 cg2d: Sum(rhs),rhsMax =  -7.90218451942139E+01  1.03021177878962E+00
(PID.TID 0000.0001)  ploadbar=  1.01082329589709E+05
 cg2d: Sum(rhs),rhsMax =  -7.93546844179937E+01  1.02566584644350E+00
(PID.TID 0000.0001)  ploadbar=  1.01082430986276E+05
 cg2d: Sum(rhs),rhsMax =  -7.96049187594780E+01  1.02225473665604E+00
(PID.TID 0000.0001)  ploadbar=  1.01082532382842E+05
 cg2d: Sum(rhs),rhsMax =  -7.97938650703559E+01  1.01968338291193E+00
(PID.TID 0000.0001)  ploadbar=  1.01082633779408E+05
 cg2d: Sum(rhs),rhsMax =  -7.99414764791215E+01  1.01768206291389E+00
(PID.TID 0000.0001)  ploadbar=  1.01082735175974E+05
 cg2d: Sum(rhs),rhsMax =  -8.00749059175268E+01  1.01589455799280E+00
(PID.TID 0000.0001)  ploadbar=  1.01082836572541E+05
 cg2d: Sum(rhs),rhsMax =  -8.02440394224868E+01  1.01363672433665E+00
(PID.TID 0000.0001)  ploadbar=  1.01083444578217E+05
 cg2d: Sum(rhs),rhsMax =  -8.04487420503311E+01  1.01091649833559E+00
(PID.TID 0000.0001)  ploadbar=  1.01084052583893E+05
 cg2d: Sum(rhs),rhsMax =  -8.07200532353020E+01  1.00735273357815E+00
(PID.TID 0000.0001)  ploadbar=  1.01084660589570E+05
 cg2d: Sum(rhs),rhsMax =  -8.10650451500557E+01  1.00287320382329E+00
(PID.TID 0000.0001)  ploadbar=  1.01085268595246E+05
 cg2d: Sum(rhs),rhsMax =  -8.14884139350990E+01  9.97442457789234E-01
(PID.TID 0000.0001)  ploadbar=  1.01085876600922E+05
 cg2d: Sum(rhs),rhsMax =  -8.19905583152176E+01  9.91083865725834E-01
(PID.TID 0000.0001)  ploadbar=  1.01086484606599E+05
 cg2d: Sum(rhs),rhsMax =  -8.13423842428235E+01  9.98747483660295E-01
(PID.TID 0000.0001)  ploadbar=  1.01087368950073E+05
 cg2d: Sum(rhs),rhsMax =  -8.05139644083653E+01  1.00880204345408E+00
(PID.TID 0000.0001)  ploadbar=  1.01088253293547E+05
 cg2d: Sum(rhs),rhsMax =  -7.98092412348003E+01  1.01749690122249E+00
(PID.TID 0000.0001)  ploadbar=  1.01089137637021E+05
 cg2d: Sum(rhs),rhsMax =  -7.92297405993115E+01  1.02473278810913E+00
(PID.TID 0000.0001)  ploadbar=  1.01090021980495E+05
 cg2d: Sum(rhs),rhsMax =  -7.87558408070688E+01  1.03069624277150E+00
(PID.TID 0000.0001)  ploadbar=  1.01090906323968E+05
 cg2d: Sum(rhs),rhsMax =  -7.83751698554323E+01  1.03550045709108E+00
(PID.TID 0000.0001)  ploadbar=  1.01091790667442E+05
 cg2d: Sum(rhs),rhsMax =  -7.80691350479499E+01  1.03932594962735E+00
(PID.TID 0000.0001)  ploadbar=  1.01091554231372E+05
 cg2d: Sum(rhs),rhsMax =  -7.77956840197040E+01  1.04270880299527E+00
(PID.TID 0000.0001)  ploadbar=  1.01091317795302E+05
 cg2d: Sum(rhs),rhsMax =  -7.75650341321033E+01  1.04549908318811E+00
(PID.TID 0000.0001)  ploadbar=  1.01091081359231E+05
 cg2d: Sum(rhs),rhsMax =  -7.73715757964243E+01  1.04776080078663E+00
(PID.TID 0000.0001)  ploadbar=  1.01090844923161E+05
 cg2d: Sum(rhs),rhsMax =  -7.72024069015081E+01  1.04966071202105E+00
(PID.TID 0000.0001)  ploadbar=  1.01090608487091E+05
 cg2d: Sum(rhs),rhsMax =  -7.70578828593188E+01  1.05118852796249E+00
(PID.TID 0000.0001)  ploadbar=  1.01090372051020E+05
 cg2d: Sum(rhs),rhsMax =  -7.68921989015219E+01  1.05307253780638E+00
(PID.TID 0000.0001)  ploadbar=  1.01089377493088E+05
 cg2d: Sum(rhs),rhsMax =  -7.67330274769507E+01  1.05493357495949E+00
(PID.TID 0000.0001)  ploadbar=  1.01088382935157E+05
 cg2d: Sum(rhs),rhsMax =  -7.65735023731810E+01  1.05686370247531E+00
(PID.TID 0000.0001)  ploadbar=  1.01087388377225E+05
 cg2d: Sum(rhs),rhsMax =  -7.63838920260415E+01  1.05927163210903E+00
(PID.TID 0000.0001)  ploadbar=  1.01086393819293E+05
 cg2d: Sum(rhs),rhsMax =  -7.61601353296959E+01  1.06221434383434E+00
(PID.TID 0000.0001)  ploadbar=  1.01085399261361E+05
 cg2d: Sum(rhs),rhsMax =  -7.59134170421804E+01  1.06553803714219E+00
(PID.TID 0000.0001)  ploadbar=  1.01084404703429E+05
 cg2d: Sum(rhs),rhsMax =  -7.56688472142453E+01  1.06878150016163E+00
(PID.TID 0000.0001)  ploadbar=  1.01083918165940E+05
 cg2d: Sum(rhs),rhsMax =  -7.54071523550872E+01  1.07221525394217E+00
(PID.TID 0000.0001)  ploadbar=  1.01083431628450E+05
 cg2d: Sum(rhs),rhsMax =  -7.51470967555310E+01  1.07557366128883E+00
(PID.TID 0000.0001)  ploadbar=  1.01082945090961E+05
 cg2d: Sum(rhs),rhsMax =  -7.48837127429320E+01  1.07892573527177E+00
(PID.TID 0000.0001)  ploadbar=  1.01082458553471E+05
 cg2d: Sum(rhs),rhsMax =  -7.46231595144303E+01  1.08218123203245E+00
(PID.TID 0000.0001)  ploadbar=  1.01081972015982E+05
 cg2d: Sum(rhs),rhsMax =  -7.43713076955570E+01  1.08525092280498E+00
(PID.TID 0000.0001)  ploadbar=  1.01081485478492E+05
 cg2d: Sum(rhs),rhsMax =  -7.41389259886794E+01  1.08809780574623E+00
(PID.TID 0000.0001)  ploadbar=  1.01080887656985E+05
 cg2d: Sum(rhs),rhsMax =  -7.39406471182276E+01  1.09049561714585E+00
(PID.TID 0000.0001)  ploadbar=  1.01080289835479E+05
 cg2d: Sum(rhs),rhsMax =  -7.37489605744894E+01  1.09284034901401E+00
(PID.TID 0000.0001)  ploadbar=  1.01079692013972E+05
 cg2d: Sum(rhs),rhsMax =  -7.35625825374147E+01  1.09514718149297E+00
(PID.TID 0000.0001)  ploadbar=  1.01079094192465E+05
 cg2d: Sum(rhs),rhsMax =  -7.33886981481796E+01  1.09730280516374E+00
(PID.TID 0000.0001)  ploadbar=  1.01078496370958E+05
 cg2d: Sum(rhs),rhsMax =  -7.32246699865561E+01  1.09933911638941E+00
(PID.TID 0000.0001)  ploadbar=  1.01077898549452E+05
 cg2d: Sum(rhs),rhsMax =  -7.30943847599173E+01  1.10083770630052E+00
(PID.TID 0000.0001)  ploadbar=  1.01078037262684E+05
 cg2d: Sum(rhs),rhsMax =  -7.29815998967002E+01  1.10203607553921E+00
(PID.TID 0000.0001)  ploadbar=  1.01078175975916E+05
 cg2d: Sum(rhs),rhsMax =  -7.28678964294130E+01  1.10320891742459E+00
(PID.TID 0000.0001)  ploadbar=  1.01078314689148E+05
 cg2d: Sum(rhs),rhsMax =  -7.27637326463842E+01  1.10419588596166E+00
(PID.TID 0000.0001)  ploadbar=  1.01078453402380E+05
 cg2d: Sum(rhs),rhsMax =  -7.26714656409401E+01  1.10495798815410E+00
(PID.TID 0000.0001)  ploadbar=  1.01078592115613E+05
 cg2d: Sum(rhs),rhsMax =  -7.25951843635306E+01  1.10543057533589E+00
(PID.TID 0000.0001)  ploadbar=  1.01078730828845E+05
 cg2d: Sum(rhs),rhsMax =  -7.25083871749881E+01  1.10612197026443E+00
(PID.TID 0000.0001)  ploadbar=  1.01077496404402E+05
 cg2d: Sum(rhs),rhsMax =  -7.24440038324611E+01  1.10652956211826E+00
(PID.TID 0000.0001)  ploadbar=  1.01076261979958E+05
 cg2d: Sum(rhs),rhsMax =  -7.23914344549911E+01  1.10681300947546E+00
(PID.TID 0000.0001)  ploadbar=  1.01075027555515E+05
 cg2d: Sum(rhs),rhsMax =  -7.23505740443138E+01  1.10697035691939E+00
(PID.TID 0000.0001)  ploadbar=  1.01073793131072E+05
 cg2d: Sum(rhs),rhsMax =  -7.23195589364665E+01  1.10702616836335E+00
(PID.TID 0000.0001)  ploadbar=  1.01072558706628E+05
 cg2d: Sum(rhs),rhsMax =  -7.22965825068121E+01  1.10700381411508E+00
(PID.TID 0000.0001)  ploadbar=  1.01071324282185E+05
 cg2d: Sum(rhs),rhsMax =  -7.22874214399232E+01  1.10677166836697E+00
(PID.TID 0000.0001)  ploadbar=  1.01071836258937E+05
 cg2d: Sum(rhs),rhsMax =  -7.22760514515729E+01  1.10657235273302E+00
(PID.TID 0000.0001)  ploadbar=  1.01072348235689E+05
 cg2d: Sum(rhs),rhsMax =  -7.22654111511561E+01  1.10635826870039E+00
(PID.TID 0000.0001)  ploadbar=  1.01072860212442E+05
 cg2d: Sum(rhs),rhsMax =  -7.22524187258873E+01  1.10617251650740E+00
(PID.TID 0000.0001)  ploadbar=  1.01073372189194E+05
 cg2d: Sum(rhs),rhsMax =  -7.22336221888597E+01  1.10606434079163E+00
(PID.TID 0000.0001)  ploadbar=  1.01073884165946E+05
 cg2d: Sum(rhs),rhsMax =  -7.22090431937779E+01  1.10602980105662E+00
(PID.TID 0000.0001)  ploadbar=  1.01074396142698E+05
 cg2d: Sum(rhs),rhsMax =  -7.21872838857841E+01  1.10598184715021E+00
(PID.TID 0000.0001)  ploadbar=  1.01076214073284E+05
 cg2d: Sum(rhs),rhsMax =  -7.21631016222777E+01  1.10599609432780E+00
(PID.TID 0000.0001)  ploadbar=  1.01078032003870E+05
 cg2d: Sum(rhs),rhsMax =  -7.21381957883252E+01  1.10604216174463E+00
(PID.TID 0000.0001)  ploadbar=  1.01079849934456E+05
 cg2d: Sum(rhs),rhsMax =  -7.21154718029142E+01  1.10607079645789E+00
(PID.TID 0000.0001)  ploadbar=  1.01081667865043E+05
 cg2d: Sum(rhs),rhsMax =  -7.20937106266854E+01  1.10609702391279E+00
(PID.TID 0000.0001)  ploadbar=  1.01083485795629E+05
 cg2d: Sum(rhs),rhsMax =  -7.20730049262744E+01  1.10611477231141E+00
(PID.TID 0000.0001)  ploadbar=  1.01085303726215E+05
 cg2d: Sum(rhs),rhsMax =  -7.20885132475758E+01  1.10556553573507E+00
(PID.TID 0000.0001)  ploadbar=  1.01085579519652E+05
 cg2d: Sum(rhs),rhsMax =  -7.21079855048222E+01  1.10494270509052E+00
(PID.TID 0000.0001)  ploadbar=  1.01085855313089E+05
 cg2d: Sum(rhs),rhsMax =  -7.21249785422071E+01  1.10434414852764E+00
(PID.TID 0000.0001)  ploadbar=  1.01086131106526E+05
 cg2d: Sum(rhs),rhsMax =  -7.21419172722249E+01  1.10373203258398E+00
(PID.TID 0000.0001)  ploadbar=  1.01086406899963E+05
 cg2d: Sum(rhs),rhsMax =  -7.21586436675409E+01  1.10310801969514E+00
(PID.TID 0000.0001)  ploadbar=  1.01086682693400E+05
 cg2d: Sum(rhs),rhsMax =  -7.21767999125257E+01  1.10244877935751E+00
(PID.TID 0000.0001)  ploadbar=  1.01086958486837E+05
 cg2d: Sum(rhs),rhsMax =  -7.21834545323723E+01  1.10201368730392E+00
(PID.TID 0000.0001)  ploadbar=  1.01087771102374E+05
 cg2d: Sum(rhs),rhsMax =  -7.22000079747328E+01  1.10147393782627E+00
(PID.TID 0000.0001)  ploadbar=  1.01088583717910E+05
 cg2d: Sum(rhs),rhsMax =  -7.22236083437349E+01  1.10087356036514E+00
(PID.TID 0000.0001)  ploadbar=  1.01089396333447E+05
 cg2d: Sum(rhs),rhsMax =  -7.22540267026215E+01  1.10021304556333E+00
(PID.TID 0000.0001)  ploadbar=  1.01090208948983E+05
 cg2d: Sum(rhs),rhsMax =  -7.22920151023114E+01  1.09947587713814E+00
(PID.TID 0000.0001)  ploadbar=  1.01091021564520E+05
 cg2d: Sum(rhs),rhsMax =  -7.23380294908770E+01  1.09865045054356E+00
(PID.TID 0000.0001)  ploadbar=  1.01091834180056E+05
 cg2d: Sum(rhs),rhsMax =  -7.23988616954692E+01  1.09758049693425E+00
(PID.TID 0000.0001)  ploadbar=  1.01091599692257E+05
 cg2d: Sum(rhs),rhsMax =  -7.24658095102422E+01  1.09639813825270E+00
(PID.TID 0000.0001)  ploadbar=  1.01091365204457E+05
 cg2d: Sum(rhs),rhsMax =  -7.25354189743588E+01  1.09515263709726E+00
(PID.TID 0000.0001)  ploadbar=  1.01091130716657E+05
 cg2d: Sum(rhs),rhsMax =  -7.26070348331267E+01  1.09384870837220E+00
(PID.TID 0000.0001)  ploadbar=  1.01090896228858E+05
 cg2d: Sum(rhs),rhsMax =  -7.26746283647154E+01  1.09257668889821E+00
(PID.TID 0000.0001)  ploadbar=  1.01090661741058E+05
 cg2d: Sum(rhs),rhsMax =  -7.27359811404607E+01  1.09136589263112E+00
(PID.TID 0000.0001)  ploadbar=  1.01090427253259E+05
 cg2d: Sum(rhs),rhsMax =  -7.27497817054135E+01  1.09087401375756E+00
(PID.TID 0000.0001)  ploadbar=  1.01090176463633E+05
 cg2d: Sum(rhs),rhsMax =  -7.27572896410080E+01  1.09047746700341E+00
(PID.TID 0000.0001)  ploadbar=  1.01089925674008E+05
 cg2d: Sum(rhs),rhsMax =  -7.27635623778374E+01  1.09010024600443E+00
(PID.TID 0000.0001)  ploadbar=  1.01089674884383E+05
 cg2d: Sum(rhs),rhsMax =  -7.27647788453719E+01  1.08979782723312E+00
(PID.TID 0000.0001)  ploadbar=  1.01089424094757E+05
 cg2d: Sum(rhs),rhsMax =  -7.27625695997791E+01  1.08954387920537E+00
(PID.TID 0000.0001)  ploadbar=  1.01089173305132E+05
 cg2d: Sum(rhs),rhsMax =  -7.27579439406469E+01  1.08931776611762E+00
(PID.TID 0000.0001)  ploadbar=  1.01088922515506E+05
 cg2d: Sum(rhs),rhsMax =  -7.25407112900481E+01  1.09223306674256E+00
(PID.TID 0000.0001)  ploadbar=  1.01088480963383E+05
 cg2d: Sum(rhs),rhsMax =  -7.19869768209526E+01  1.10023208201020E+00
(PID.TID 0000.0001)  ploadbar=  1.01088039411259E+05
 cg2d: Sum(rhs),rhsMax =  -7.13873063278007E+01  1.10901436937560E+00
(PID.TID 0000.0001)  ploadbar=  1.01087597859135E+05
 cg2d: Sum(rhs),rhsMax =  -7.08553143602897E+01  1.11682276085503E+00
(PID.TID 0000.0001)  ploadbar=  1.01087156307011E+05
 cg2d: Sum(rhs),rhsMax =  -7.03583029670246E+01  1.12413569591239E+00
(PID.TID 0000.0001)  ploadbar=  1.01086714754887E+05
 cg2d: Sum(rhs),rhsMax =  -7.00683484724815E+01  1.12815237847572E+00
(PID.TID 0000.0001)  ploadbar=  1.01086273202763E+05
 cg2d: Sum(rhs),rhsMax =  -6.96637033526066E+01  1.13411471842478E+00
(PID.TID 0000.0001)  ploadbar=  1.01087339906479E+05
 cg2d: Sum(rhs),rhsMax =  -6.91098824845507E+01  1.14265648467448E+00
(PID.TID 0000.0001)  ploadbar=  1.01088406610195E+05
 cg2d: Sum(rhs),rhsMax =  -6.83491737275558E+01  1.15487075895334E+00
(PID.TID 0000.0001)  ploadbar=  1.01089473313912E+05
 cg2d: Sum(rhs),rhsMax =  -6.73001146711282E+01  1.17240835221261E+00
(PID.TID 0000.0001)  ploadbar=  1.01090540017628E+05
 cg2d: Sum(rhs),rhsMax =  -6.59425978231586E+01  1.19611114635813E+00
(PID.TID 0000.0001)  ploadbar=  1.01091606721344E+05
 cg2d: Sum(rhs),rhsMax =  -6.43201109243206E+01  1.22587400753636E+00
(PID.TID 0000.0001)  ploadbar=  1.01092673425060E+05
 cg2d: Sum(rhs),rhsMax =  -6.24782466459159E+01  1.26157355612867E+00
(PID.TID 0000.0001)  ploadbar=  1.01093439800319E+05
 cg2d: Sum(rhs),rhsMax =  -6.06801076029946E+01  1.29848352926029E+00
(PID.TID 0000.0001)  ploadbar=  1.01094206175578E+05
 cg2d: Sum(rhs),rhsMax =  -5.90375051873520E+01  1.33409420391515E+00
(PID.TID 0000.0001)  ploadbar=  1.01094972550837E+05
 cg2d: Sum(rhs),rhsMax =  -5.75950064297048E+01  1.36694117701266E+00
(PID.TID 0000.0001)  ploadbar=  1.01095738926096E+05
 cg2d: Sum(rhs),rhsMax =  -5.63666555745959E+01  1.39611023574282E+00
(PID.TID 0000.0001)  ploadbar=  1.01096505301355E+05
 cg2d: Sum(rhs),rhsMax =  -5.55067741468163E+01  1.41706296487215E+00
(PID.TID 0000.0001)  ploadbar=  1.01097271676614E+05
 cg2d: Sum(rhs),rhsMax =  -5.48018389746893E+01  1.43464682972081E+00
(PID.TID 0000.0001)  ploadbar=  1.01098038292916E+05
 cg2d: Sum(rhs),rhsMax =  -5.43545758245630E+01  1.44583973576178E+00
(PID.TID 0000.0001)  ploadbar=  1.01098804909217E+05
 cg2d: Sum(rhs),rhsMax =  -5.42715806392330E+01  1.44747130198713E+00
(PID.TID 0000.0001)  ploadbar=  1.01099571525519E+05
 cg2d: Sum(rhs),rhsMax =  -5.45216280982110E+01  1.44028776337478E+00
(PID.TID 0000.0001)  ploadbar=  1.01100338141820E+05
 cg2d: Sum(rhs),rhsMax =  -5.50329128663042E+01  1.42639342669153E+00
(PID.TID 0000.0001)  ploadbar=  1.01101104758122E+05
 cg2d: Sum(rhs),rhsMax =  -5.55322938788577E+01  1.41307674593818E+00
(PID.TID 0000.0001)  ploadbar=  1.01101871374423E+05
 cg2d: Sum(rhs),rhsMax =  -5.60082910808407E+01  1.40058709420252E+00
(PID.TID 0000.0001)  ploadbar=  1.01103290491945E+05
 cg2d: Sum(rhs),rhsMax =  -5.64781508563463E+01  1.38846137357127E+00
(PID.TID 0000.0001)  ploadbar=  1.01104709609467E+05
 cg2d: Sum(rhs),rhsMax =  -5.69521890927414E+01  1.37643474707718E+00
(PID.TID 0000.0001)  ploadbar=  1.01106128726988E+05
 cg2d: Sum(rhs),rhsMax =  -5.74222402668222E+01  1.36469968525301E+00
(PID.TID 0000.0001)  ploadbar=  1.01107547844510E+05
 cg2d: Sum(rhs),rhsMax =  -5.78863230968644E+01  1.35329119884233E+00
(PID.TID 0000.0001)  ploadbar=  1.01108966962032E+05
 cg2d: Sum(rhs),rhsMax =  -5.83809545604726E+01  1.34135881660661E+00
(PID.TID 0000.0001)  ploadbar=  1.01110386079554E+05
 cg2d: Sum(rhs),rhsMax =  -5.88177331867664E+01  1.33100119122465E+00
(PID.TID 0000.0001)  ploadbar=  1.01110465577970E+05
 cg2d: Sum(rhs),rhsMax =  -5.92288009695721E+01  1.32143277744425E+00
(PID.TID 0000.0001)  ploadbar=  1.01110545076385E+05
 cg2d: Sum(rhs),rhsMax =  -5.96833338247694E+01  1.31110233966049E+00
(PID.TID 0000.0001)  ploadbar=  1.01110624574801E+05
 cg2d: Sum(rhs),rhsMax =  -5.89653223982199E+01  1.32685736163269E+00
(PID.TID 0000.0001)  ploadbar=  1.01110704073217E+05
 cg2d: Sum(rhs),rhsMax =  -5.68893583877086E+01  1.37511428011113E+00
(PID.TID 0000.0001)  ploadbar=  1.01110783571632E+05
 cg2d: Sum(rhs),rhsMax =  -5.49535567105694E+01  1.42343357278974E+00
(PID.TID 0000.0001)  ploadbar=  1.01110863070048E+05
 cg2d: Sum(rhs),rhsMax =  -5.33272356698333E+01  1.46667739450428E+00
(PID.TID 0000.0001)  ploadbar=  1.01111010929829E+05
 cg2d: Sum(rhs),rhsMax =  -5.20273559121599E+01  1.50309973174359E+00
(PID.TID 0000.0001)  ploadbar=  1.01111158789610E+05
 cg2d: Sum(rhs),rhsMax =  -5.10683493563979E+01  1.53103931210022E+00
(PID.TID 0000.0001)  ploadbar=  1.01111306649391E+05
 cg2d: Sum(rhs),rhsMax =  -5.04743273646523E+01  1.54870579376983E+00
(PID.TID 0000.0001)  ploadbar=  1.01111454509172E+05
 cg2d: Sum(rhs),rhsMax =  -5.02720385986568E+01  1.55451617239875E+00
(PID.TID 0000.0001)  ploadbar=  1.01111602368953E+05
 cg2d: Sum(rhs),rhsMax =  -5.04826325420987E+01  1.54753721721101E+00
(PID.TID 0000.0001)  ploadbar=  1.01111750228734E+05
 cg2d: Sum(rhs),rhsMax =  -5.10428656820099E+01  1.53008352156330E+00
(PID.TID 0000.0001)  ploadbar=  1.01113944626249E+05
 cg2d: Sum(rhs),rhsMax =  -5.18456241187342E+01  1.50594712946754E+00
(PID.TID 0000.0001)  ploadbar=  1.01116139023763E+05
 cg2d: Sum(rhs),rhsMax =  -5.28049783557098E+01  1.47816120855670E+00
(PID.TID 0000.0001)  ploadbar=  1.01118333421277E+05
 cg2d: Sum(rhs),rhsMax =  -5.38725120025655E+01  1.44845903022292E+00
(PID.TID 0000.0001)  ploadbar=  1.01120527818792E+05
 cg2d: Sum(rhs),rhsMax =  -5.50181642868728E+01  1.41789487950733E+00
(PID.TID 0000.0001)  ploadbar=  1.01122722216306E+05
 cg2d: Sum(rhs),rhsMax =  -5.62368596214089E+01  1.38676679054176E+00
(PID.TID 0000.0001)  ploadbar=  1.01124916613820E+05
 cg2d: Sum(rhs),rhsMax =  -5.75008927658589E+01  1.35588072649335E+00
(PID.TID 0000.0001)  ploadbar=  1.01125517273692E+05
 cg2d: Sum(rhs),rhsMax =  -5.88296075561282E+01  1.32485383924484E+00
(PID.TID 0000.0001)  ploadbar=  1.01126117933564E+05
 cg2d: Sum(rhs),rhsMax =  -6.02390685791539E+01  1.29344700879057E+00
(PID.TID 0000.0001)  ploadbar=  1.01126718593436E+05
 cg2d: Sum(rhs),rhsMax =  -6.16256241765888E+01  1.26393033975428E+00
(PID.TID 0000.0001)  ploadbar=  1.01127319253308E+05
 cg2d: Sum(rhs),rhsMax =  -6.29357347317745E+01  1.23719678173987E+00
(PID.TID 0000.0001)  ploadbar=  1.01127919913180E+05
 cg2d: Sum(rhs),rhsMax =  -6.42513876210945E+01  1.21143025755431E+00
(PID.TID 0000.0001)  ploadbar=  1.01128520573052E+05
 cg2d: Sum(rhs),rhsMax =  -6.55946243182937E+01  1.18625193510146E+00
(PID.TID 0000.0001)  ploadbar=  1.01127907207810E+05
 cg2d: Sum(rhs),rhsMax =  -6.69487209842928E+01  1.16194503107839E+00
(PID.TID 0000.0001)  ploadbar=  1.01127293842568E+05
 cg2d: Sum(rhs),rhsMax =  -6.79511822842327E+01  1.14453809676594E+00
(PID.TID 0000.0001)  ploadbar=  1.01126680477326E+05
 cg2d: Sum(rhs),rhsMax =  -6.88494450781003E+01  1.12938070140275E+00
(PID.TID 0000.0001)  ploadbar=  1.01126067112085E+05
 cg2d: Sum(rhs),rhsMax =  -6.98138174026717E+01  1.11359208790583E+00
(PID.TID 0000.0001)  ploadbar=  1.01125453746843E+05
 cg2d: Sum(rhs),rhsMax =  -7.06917167262631E+01  1.09960310783002E+00
(PID.TID 0000.0001)  ploadbar=  1.01124840381601E+05
 cg2d: Sum(rhs),rhsMax =  -7.06664943138452E+01  1.09982189217376E+00
(PID.TID 0000.0001)  ploadbar=  1.01125355523469E+05
 cg2d: Sum(rhs),rhsMax =  -7.06476917183993E+01  1.09992180572226E+00
(PID.TID 0000.0001)  ploadbar=  1.01125870665337E+05
 cg2d: Sum(rhs),rhsMax =  -7.06338189006563E+01  1.09991999450960E+00
(PID.TID 0000.0001)  ploadbar=  1.01126385807205E+05
 cg2d: Sum(rhs),rhsMax =  -7.06260073744521E+01  1.09979322967952E+00
(PID.TID 0000.0001)  ploadbar=  1.01126900949074E+05
 cg2d: Sum(rhs),rhsMax =  -7.06251209729595E+01  1.09952510718043E+00
(PID.TID 0000.0001)  ploadbar=  1.01127416090942E+05
 cg2d: Sum(rhs),rhsMax =  -7.06360286703404E+01  1.09904033801485E+00
(PID.TID 0000.0001)  ploadbar=  1.01127931232810E+05
 cg2d: Sum(rhs),rhsMax =  -7.06415475111100E+01  1.09868006365999E+00
(PID.TID 0000.0001)  ploadbar=  1.01128341997165E+05
 cg2d: Sum(rhs),rhsMax =  -7.06768850864031E+01  1.09789300058926E+00
(PID.TID 0000.0001)  ploadbar=  1.01128752761520E+05
 cg2d: Sum(rhs),rhsMax =  -7.07408079845659E+01  1.09669388206152E+00
(PID.TID 0000.0001)  ploadbar=  1.01129163525874E+05
 cg2d: Sum(rhs),rhsMax =  -7.08354926958596E+01  1.09504715551506E+00
(PID.TID 0000.0001)  ploadbar=  1.01129574290229E+05
 cg2d: Sum(rhs),rhsMax =  -7.09640094919663E+01  1.09290502092605E+00
(PID.TID 0000.0001)  ploadbar=  1.01129985054584E+05
 cg2d: Sum(rhs),rhsMax =  -7.11277490139405E+01  1.09024716717960E+00
(PID.TID 0000.0001)  ploadbar=  1.01130395818939E+05
 cg2d: Sum(rhs),rhsMax =  -7.13181170771121E+01  1.08717935067768E+00
(PID.TID 0000.0001)  ploadbar=  1.01130181135977E+05
 cg2d: Sum(rhs),rhsMax =  -7.15417050339321E+01  1.08360607254167E+00
(PID.TID 0000.0001)  ploadbar=  1.01129966453016E+05
 cg2d: Sum(rhs),rhsMax =  -7.17985375787768E+01  1.07953588546538E+00
(PID.TID 0000.0001)  ploadbar=  1.01129751770054E+05
 cg2d: Sum(rhs),rhsMax =  -7.20896617990872E+01  1.07496240538860E+00
(PID.TID 0000.0001)  ploadbar=  1.01129537087092E+05
 cg2d: Sum(rhs),rhsMax =  -7.24136074028440E+01  1.06991877024131E+00
(PID.TID 0000.0001)  ploadbar=  1.01129322404131E+05
 cg2d: Sum(rhs),rhsMax =  -7.27695320301266E+01  1.06443230814658E+00
(PID.TID 0000.0001)  ploadbar=  1.01129107721169E+05
 cg2d: Sum(rhs),rhsMax =  -7.33852790825954E+01  1.05529184077282E+00
(PID.TID 0000.0001)  ploadbar=  1.01130053025957E+05
 cg2d: Sum(rhs),rhsMax =  -7.40236905799069E+01  1.04602113477803E+00
(PID.TID 0000.0001)  ploadbar=  1.01130998330745E+05
 cg2d: Sum(rhs),rhsMax =  -7.46852334732153E+01  1.03662504666836E+00
(PID.TID 0000.0001)  ploadbar=  1.01131943635533E+05
 cg2d: Sum(rhs),rhsMax =  -7.53620095662310E+01  1.02721985417476E+00
(PID.TID 0000.0001)  ploadbar=  1.01132888940320E+05
 cg2d: Sum(rhs),rhsMax =  -7.60497709101047E+01  1.01786405227467E+00
(PID.TID 0000.0001)  ploadbar=  1.01133834245108E+05
 cg2d: Sum(rhs),rhsMax =  -7.66718680570742E+01  1.00956273963531E+00
(PID.TID 0000.0001)  ploadbar=  1.01134779549896E+05
 cg2d: Sum(rhs),rhsMax =  -7.66112937716078E+01  1.01029354162089E+00
(PID.TID 0000.0001)  ploadbar=  1.01134600024824E+05
 cg2d: Sum(rhs),rhsMax =  -7.65470108236325E+01  1.01104931490082E+00
(PID.TID 0000.0001)  ploadbar=  1.01134420499751E+05
 cg2d: Sum(rhs),rhsMax =  -7.64817044702237E+01  1.01179303276004E+00
(PID.TID 0000.0001)  ploadbar=  1.01134240974679E+05
 cg2d: Sum(rhs),rhsMax =  -7.64109431454712E+01  1.01258188847190E+00
(PID.TID 0000.0001)  ploadbar=  1.01134061449607E+05
 cg2d: Sum(rhs),rhsMax =  -7.63353147402018E+01  1.01340544924252E+00
(PID.TID 0000.0001)  ploadbar=  1.01133881924535E+05
 cg2d: Sum(rhs),rhsMax =  -7.62552700434421E+01  1.01425441679052E+00
(PID.TID 0000.0001)  ploadbar=  1.01133702399462E+05
 cg2d: Sum(rhs),rhsMax =  -7.61441205675054E+01  1.01554013523650E+00
(PID.TID 0000.0001)  ploadbar=  1.01133491020908E+05
 cg2d: Sum(rhs),rhsMax =  -7.60378913866350E+01  1.01678104075243E+00
(PID.TID 0000.0001)  ploadbar=  1.01133279642353E+05
 cg2d: Sum(rhs),rhsMax =  -7.59290430498619E+01  1.01807176733500E+00
(PID.TID 0000.0001)  ploadbar=  1.01133068263799E+05
 cg2d: Sum(rhs),rhsMax =  -7.58209313670825E+01  1.01936121677891E+00
(PID.TID 0000.0001)  ploadbar=  1.01132856885244E+05
 cg2d: Sum(rhs),rhsMax =  -7.57157524783399E+01  1.02061523315547E+00
(PID.TID 0000.0001)  ploadbar=  1.01132645506690E+05
 cg2d: Sum(rhs),rhsMax =  -7.56121829427819E+01  1.02184328136372E+00
(PID.TID 0000.0001)  ploadbar=  1.01132434128135E+05
 cg2d: Sum(rhs),rhsMax =  -7.55668473574331E+01  1.02229709243682E+00
(PID.TID 0000.0001)  ploadbar=  1.01131999398357E+05
 cg2d: Sum(rhs),rhsMax =  -7.55172173013974E+01  1.02281940906872E+00
(PID.TID 0000.0001)  ploadbar=  1.01131564668579E+05
 cg2d: Sum(rhs),rhsMax =  -7.54703799417705E+01  1.02331232857264E+00
(PID.TID 0000.0001)  ploadbar=  1.01131129938801E+05
 cg2d: Sum(rhs),rhsMax =  -7.52952650648428E+01  1.02555666971918E+00
(PID.TID 0000.0001)  ploadbar=  1.01130695209023E+05
 cg2d: Sum(rhs),rhsMax =  -7.51744864692156E+01  1.02707370262370E+00
(PID.TID 0000.0001)  ploadbar=  1.01130260479245E+05
 cg2d: Sum(rhs),rhsMax =  -7.51779792650685E+01  1.02690247220426E+00
(PID.TID 0000.0001)  ploadbar=  1.01129825749467E+05
 cg2d: Sum(rhs),rhsMax =  -7.52661655255809E+01  1.02562859407867E+00
(PID.TID 0000.0001)  ploadbar=  1.01129134438497E+05
 cg2d: Sum(rhs),rhsMax =  -7.52323382383384E+01  1.02606536232366E+00
(PID.TID 0000.0001)  ploadbar=  1.01128443127526E+05
 cg2d: Sum(rhs),rhsMax =  -7.52218771464290E+01  1.02622705448587E+00
(PID.TID 0000.0001)  ploadbar=  1.01127751816556E+05
 cg2d: Sum(rhs),rhsMax =  -7.52311569266706E+01  1.02615931740142E+00
(PID.TID 0000.0001)  ploadbar=  1.01127060505585E+05
 cg2d: Sum(rhs),rhsMax =  -7.52638422379327E+01  1.02580985653133E+00
(PID.TID 0000.0001)  ploadbar=  1.01126369194615E+05
 cg2d: Sum(rhs),rhsMax =  -7.53168225646359E+01  1.02521476411306E+00
(PID.TID 0000.0001)  ploadbar=  1.01125677883644E+05
 cg2d: Sum(rhs),rhsMax =  -7.53663104283085E+01  1.02462518355690E+00
(PID.TID 0000.0001)  ploadbar=  1.01124821086462E+05
 cg2d: Sum(rhs),rhsMax =  -7.54484156249447E+01  1.02354957067415E+00
(PID.TID 0000.0001)  ploadbar=  1.01123964289280E+05
 cg2d: Sum(rhs),rhsMax =  -7.55457902241008E+01  1.02222380294763E+00
(PID.TID 0000.0001)  ploadbar=  1.01123107492098E+05
 cg2d: Sum(rhs),rhsMax =  -7.56449444904201E+01  1.02082898802416E+00
(PID.TID 0000.0001)  ploadbar=  1.01122250694915E+05
 cg2d: Sum(rhs),rhsMax =  -7.57336673301942E+01  1.01952665606481E+00
(PID.TID 0000.0001)  ploadbar=  1.01121393897733E+05
 cg2d: Sum(rhs),rhsMax =  -7.57974094612574E+01  1.01850898406656E+00
(PID.TID 0000.0001)  ploadbar=  1.01120537100551E+05
 cg2d: Sum(rhs),rhsMax =  -7.58046204606850E+01  1.01825519634006E+00
(PID.TID 0000.0001)  ploadbar=  1.01118958240237E+05
 cg2d: Sum(rhs),rhsMax =  -7.57252756783535E+01  1.01916391031572E+00
(PID.TID 0000.0001)  ploadbar=  1.01117379379923E+05
 cg2d: Sum(rhs),rhsMax =  -7.55510720808368E+01  1.02135073730530E+00
(PID.TID 0000.0001)  ploadbar=  1.01115800519610E+05
 cg2d: Sum(rhs),rhsMax =  -7.53326641747625E+01  1.02414004073996E+00
(PID.TID 0000.0001)  ploadbar=  1.01114221659296E+05
 cg2d: Sum(rhs),rhsMax =  -7.50977100908865E+01  1.02716113760102E+00
(PID.TID 0000.0001)  ploadbar=  1.01112642798982E+05
 cg2d: Sum(rhs),rhsMax =  -7.48699463457728E+01  1.03009041910180E+00
(PID.TID 0000.0001)  ploadbar=  1.01111063938668E+05
 cg2d: Sum(rhs),rhsMax =  -7.49098296420551E+01  1.02932323858490E+00
(PID.TID 0000.0001)  ploadbar=  1.01110649286739E+05
 cg2d: Sum(rhs),rhsMax =  -7.49637922420397E+01  1.02834084223027E+00
(PID.TID 0000.0001)  ploadbar=  1.01110234634809E+05
 cg2d: Sum(rhs),rhsMax =  -7.50325812054716E+01  1.02713195166009E+00
(PID.TID 0000.0001)  ploadbar=  1.01109819982880E+05
 cg2d: Sum(rhs),rhsMax =  -7.51233034275494E+01  1.02559961864363E+00
(PID.TID 0000.0001)  ploadbar=  1.01109405330950E+05
 cg2d: Sum(rhs),rhsMax =  -7.52258454949336E+01  1.02388262321945E+00
(PID.TID 0000.0001)  ploadbar=  1.01108990679021E+05
 cg2d: Sum(rhs),rhsMax =  -7.53498379376987E+01  1.02185553136521E+00
(PID.TID 0000.0001)  ploadbar=  1.01108576027092E+05
 cg2d: Sum(rhs),rhsMax =  -7.45800956091681E+01  1.03208273105847E+00
(PID.TID 0000.0001)  ploadbar=  1.01108514453760E+05
 cg2d: Sum(rhs),rhsMax =  -7.25284420010707E+01  1.06097031855677E+00
(PID.TID 0000.0001)  ploadbar=  1.01108452880428E+05
 cg2d: Sum(rhs),rhsMax =  -7.04569141630639E+01  1.09186684959632E+00
(PID.TID 0000.0001)  ploadbar=  1.01108391307096E+05
 cg2d: Sum(rhs),rhsMax =  -6.83650009258296E+01  1.12498909358222E+00
(PID.TID 0000.0001)  ploadbar=  1.01108329733764E+05
 cg2d: Sum(rhs),rhsMax =  -6.62819299688528E+01  1.16006532481081E+00
(PID.TID 0000.0001)  ploadbar=  1.01108268160432E+05
 cg2d: Sum(rhs),rhsMax =  -6.42174200738345E+01  1.19708384371011E+00
(PID.TID 0000.0001)  ploadbar=  1.01108206587101E+05
 cg2d: Sum(rhs),rhsMax =  -6.23624682974051E+01  1.23240189550802E+00
(PID.TID 0000.0001)  ploadbar=  1.01107772021316E+05
 cg2d: Sum(rhs),rhsMax =  -6.07121465089400E+01  1.26559633680743E+00
(PID.TID 0000.0001)  ploadbar=  1.01107337455531E+05
 cg2d: Sum(rhs),rhsMax =  -5.93296569306539E+01  1.29476233415568E+00
(PID.TID 0000.0001)  ploadbar=  1.01106902889746E+05
 cg2d: Sum(rhs),rhsMax =  -5.82464559243166E+01  1.31849413490603E+00
(PID.TID 0000.0001)  ploadbar=  1.01106468323961E+05
 cg2d: Sum(rhs),rhsMax =  -5.74529111031457E+01  1.33633528378297E+00
(PID.TID 0000.0001)  ploadbar=  1.01106033758176E+05
 cg2d: Sum(rhs),rhsMax =  -5.74316225538150E+01  1.33643777767658E+00
(PID.TID 0000.0001)  ploadbar=  1.01105599192391E+05
 cg2d: Sum(rhs),rhsMax =  -5.77518435879251E+01  1.32866288051503E+00
(PID.TID 0000.0001)  ploadbar=  1.01105855250403E+05
 cg2d: Sum(rhs),rhsMax =  -5.81283985294233E+01  1.31971629854789E+00
(PID.TID 0000.0001)  ploadbar=  1.01106111308415E+05
 cg2d: Sum(rhs),rhsMax =  -5.85494215568673E+01  1.30990663248926E+00
(PID.TID 0000.0001)  ploadbar=  1.01106367366426E+05
 cg2d: Sum(rhs),rhsMax =  -5.90437002568724E+01  1.29863532706604E+00
(PID.TID 0000.0001)  ploadbar=  1.01106623424438E+05
 cg2d: Sum(rhs),rhsMax =  -5.96247215396298E+01  1.28568358749196E+00
(PID.TID 0000.0001)  ploadbar=  1.01106879482449E+05
 cg2d: Sum(rhs),rhsMax =  -6.03025871050769E+01  1.27093875053666E+00
(PID.TID 0000.0001)  ploadbar=  1.01107135540461E+05
 cg2d: Sum(rhs),rhsMax =  -6.11018292718626E+01  1.25401484443813E+00
(PID.TID 0000.0001)  ploadbar=  1.01107351185738E+05
 cg2d: Sum(rhs),rhsMax =  -6.19983268272586E+01  1.23557439894430E+00
(PID.TID 0000.0001)  ploadbar=  1.01107566831015E+05
 cg2d: Sum(rhs),rhsMax =  -6.29882787887996E+01  1.21583875271543E+00
(PID.TID 0000.0001)  ploadbar=  1.01107782476292E+05
 cg2d: Sum(rhs),rhsMax =  -6.40643451431510E+01  1.19508977873783E+00
(PID.TID 0000.0001)  ploadbar=  1.01107998121569E+05
 cg2d: Sum(rhs),rhsMax =  -6.52075593134073E+01  1.17380014791606E+00
(PID.TID 0000.0001)  ploadbar=  1.01108213766846E+05
 cg2d: Sum(rhs),rhsMax =  -6.64020816422633E+01  1.15233550470344E+00
(PID.TID 0000.0001)  ploadbar=  1.01108429412123E+05
 cg2d: Sum(rhs),rhsMax =  -6.77413717651053E+01  1.12925239794719E+00
(PID.TID 0000.0001)  ploadbar=  1.01109037645365E+05
 cg2d: Sum(rhs),rhsMax =  -6.87323585388574E+01  1.11271071192100E+00
(PID.TID 0000.0001)  ploadbar=  1.01109645878607E+05
 cg2d: Sum(rhs),rhsMax =  -6.82286983458513E+01  1.12069714979437E+00
(PID.TID 0000.0001)  ploadbar=  1.01110254111849E+05
 cg2d: Sum(rhs),rhsMax =  -6.77599581195065E+01  1.12825384234153E+00
(PID.TID 0000.0001)  ploadbar=  1.01110862345091E+05
 cg2d: Sum(rhs),rhsMax =  -6.73368574542106E+01  1.13517727961345E+00
(PID.TID 0000.0001)  ploadbar=  1.01111470578333E+05
 cg2d: Sum(rhs),rhsMax =  -6.69632626745865E+01  1.14136997161511E+00
(PID.TID 0000.0001)  ploadbar=  1.01112078811575E+05
 cg2d: Sum(rhs),rhsMax =  -6.66633110763819E+01  1.14635083720769E+00
(PID.TID 0000.0001)  ploadbar=  1.01113022071624E+05
 cg2d: Sum(rhs),rhsMax =  -6.64013847139710E+01  1.15069904360662E+00
(PID.TID 0000.0001)  ploadbar=  1.01113965331674E+05
 cg2d: Sum(rhs),rhsMax =  -6.61580946678998E+01  1.15473487750978E+00
(PID.TID 0000.0001)  ploadbar=  1.01114908591723E+05
 cg2d: Sum(rhs),rhsMax =  -6.59368187510423E+01  1.15838888583303E+00
(PID.TID 0000.0001)  ploadbar=  1.01115851851772E+05
 cg2d: Sum(rhs),rhsMax =  -6.57319762420958E+01  1.16174960370572E+00
(PID.TID 0000.0001)  ploadbar=  1.01116795111822E+05
 cg2d: Sum(rhs),rhsMax =  -6.55399617621457E+01  1.16487291414354E+00
(PID.TID 0000.0001)  ploadbar=  1.01117738371871E+05
 cg2d: Sum(rhs),rhsMax =  -6.54097505965497E+01  1.16690734758797E+00
(PID.TID 0000.0001)  ploadbar=  1.01120157273323E+05
 cg2d: Sum(rhs),rhsMax =  -6.52835426787265E+01  1.16887334713862E+00
(PID.TID 0000.0001)  ploadbar=  1.01122576174774E+05
 cg2d: Sum(rhs),rhsMax =  -6.51536549470779E+01  1.17090407887382E+00
(PID.TID 0000.0001)  ploadbar=  1.01124995076226E+05
 cg2d: Sum(rhs),rhsMax =  -6.50265320753142E+01  1.17288029685427E+00
(PID.TID 0000.0001)  ploadbar=  1.01127413977678E+05
 cg2d: Sum(rhs),rhsMax =  -6.49009097593561E+01  1.17482070755159E+00
(PID.TID 0000.0001)  ploadbar=  1.01129832879129E+05
 cg2d: Sum(rhs),rhsMax =  -6.47826585789127E+01  1.17661338186148E+00
(PID.TID 0000.0001)  ploadbar=  1.01132251780581E+05
 cg2d: Sum(rhs),rhsMax =  -6.45864195056226E+01  1.17982862918378E+00
(PID.TID 0000.0001)  ploadbar=  1.01132622184965E+05
 cg2d: Sum(rhs),rhsMax =  -6.43805365043956E+01  1.18323242002438E+00
(PID.TID 0000.0001)  ploadbar=  1.01132992589349E+05
 cg2d: Sum(rhs),rhsMax =  -6.41890563390672E+01  1.18638087956177E+00
(PID.TID 0000.0001)  ploadbar=  1.01133362993732E+05
 cg2d: Sum(rhs),rhsMax =  -6.40048789869088E+01  1.18940016147872E+00
(PID.TID 0000.0001)  ploadbar=  1.01133733398116E+05
 cg2d: Sum(rhs),rhsMax =  -6.38269498428488E+01  1.19230644258905E+00
(PID.TID 0000.0001)  ploadbar=  1.01134103802500E+05
 cg2d: Sum(rhs),rhsMax =  -6.36577737757096E+01  1.19505125031444E+00
(PID.TID 0000.0001)  ploadbar=  1.01134474206884E+05
 cg2d: Sum(rhs),rhsMax =  -6.35726331022068E+01  1.19627574048119E+00
(PID.TID 0000.0001)  ploadbar=  1.01134225448527E+05
 cg2d: Sum(rhs),rhsMax =  -6.34656301449753E+01  1.19795888701497E+00
(PID.TID 0000.0001)  ploadbar=  1.01133976690171E+05
 cg2d: Sum(rhs),rhsMax =  -6.33162510644874E+01  1.20049225129299E+00
(PID.TID 0000.0001)  ploadbar=  1.01133727931814E+05
 cg2d: Sum(rhs),rhsMax =  -6.32036176782922E+01  1.20237829869784E+00
(PID.TID 0000.0001)  ploadbar=  1.01133479173457E+05
 cg2d: Sum(rhs),rhsMax =  -6.31233054956870E+01  1.20369019698383E+00
(PID.TID 0000.0001)  ploadbar=  1.01133230415100E+05
 cg2d: Sum(rhs),rhsMax =  -6.30716755275282E+01  1.20448477811513E+00
(PID.TID 0000.0001)  ploadbar=  1.01132981656743E+05
 cg2d: Sum(rhs),rhsMax =  -6.30501985067163E+01  1.20471808994486E+00
(PID.TID 0000.0001)  ploadbar=  1.01133213362912E+05
 cg2d: Sum(rhs),rhsMax =  -6.30240212665590E+01  1.20504955136646E+00
(PID.TID 0000.0001)  ploadbar=  1.01133445069081E+05
 cg2d: Sum(rhs),rhsMax =  -6.29915412448684E+01  1.20550412120347E+00
(PID.TID 0000.0001)  ploadbar=  1.01133676775250E+05
 cg2d: Sum(rhs),rhsMax =  -6.29530856676071E+01  1.20607449868428E+00
(PID.TID 0000.0001)  ploadbar=  1.01133908481419E+05
 cg2d: Sum(rhs),rhsMax =  -6.29079748588422E+01  1.20677077908532E+00
(PID.TID 0000.0001)  ploadbar=  1.01134140187588E+05
 cg2d: Sum(rhs),rhsMax =  -6.28565863076551E+01  1.20758193694755E+00
(PID.TID 0000.0001)  ploadbar=  1.01134371893757E+05
 cg2d: Sum(rhs),rhsMax =  -6.28190760513769E+01  1.20814500115944E+00
(PID.TID 0000.0001)  ploadbar=  1.01134096444280E+05
 cg2d: Sum(rhs),rhsMax =  -6.27609550733278E+01  1.20911569251167E+00
(PID.TID 0000.0001)  ploadbar=  1.01133820994804E+05
 cg2d: Sum(rhs),rhsMax =  -6.26829249509229E+01  1.21047663088803E+00
(PID.TID 0000.0001)  ploadbar=  1.01133545545328E+05
 cg2d: Sum(rhs),rhsMax =  -6.25850382834106E+01  1.21222408041966E+00
(PID.TID 0000.0001)  ploadbar=  1.01133270095852E+05
 cg2d: Sum(rhs),rhsMax =  -6.24797855560606E+01  1.21411338743917E+00
(PID.TID 0000.0001)  ploadbar=  1.01132994646375E+05
 cg2d: Sum(rhs),rhsMax =  -6.23647686577330E+01  1.21618696331662E+00
(PID.TID 0000.0001)  ploadbar=  1.01132719196899E+05
 cg2d: Sum(rhs),rhsMax =  -6.22490896036372E+01  1.21826640428333E+00
(PID.TID 0000.0001)  ploadbar=  1.01132289180700E+05
 cg2d: Sum(rhs),rhsMax =  -6.21152470192734E+01  1.22069222866917E+00
(PID.TID 0000.0001)  ploadbar=  1.01131859164502E+05
 cg2d: Sum(rhs),rhsMax =  -6.19597712306027E+01  1.22353181336602E+00
(PID.TID 0000.0001)  ploadbar=  1.01131429148303E+05
 cg2d: Sum(rhs),rhsMax =  -6.17246310581046E+01  1.22794001645363E+00
(PID.TID 0000.0001)  ploadbar=  1.01130999132104E+05
 cg2d: Sum(rhs),rhsMax =  -6.15121965858382E+01  1.23189639553309E+00
(PID.TID 0000.0001)  ploadbar=  1.01130569115906E+05
 cg2d: Sum(rhs),rhsMax =  -6.13260610547886E+01  1.23531969398375E+00
(PID.TID 0000.0001)  ploadbar=  1.01130139099707E+05
 cg2d: Sum(rhs),rhsMax =  -6.02457118861555E+01  1.25718503758164E+00
(PID.TID 0000.0001)  ploadbar=  1.01130483979560E+05
 cg2d: Sum(rhs),rhsMax =  -5.92451881810799E+01  1.27815521245634E+00
(PID.TID 0000.0001)  ploadbar=  1.01130828859414E+05
 cg2d: Sum(rhs),rhsMax =  -5.83632054637260E+01  1.29723548042982E+00
(PID.TID 0000.0001)  ploadbar=  1.01131173739267E+05
 cg2d: Sum(rhs),rhsMax =  -5.75879601061991E+01  1.31448457520729E+00
(PID.TID 0000.0001)  ploadbar=  1.01131518619120E+05
 cg2d: Sum(rhs),rhsMax =  -5.68952932098410E+01  1.33028968418919E+00
(PID.TID 0000.0001)  ploadbar=  1.01131863498974E+05
 cg2d: Sum(rhs),rhsMax =  -5.62748156142358E+01  1.34476532555204E+00
(PID.TID 0000.0001)  ploadbar=  1.01132208378827E+05
 cg2d: Sum(rhs),rhsMax =  -5.57619171498415E+01  1.35691635048095E+00
(PID.TID 0000.0001)  ploadbar=  1.01132153548016E+05
 cg2d: Sum(rhs),rhsMax =  -5.53161242513558E+01  1.36759901446423E+00
(PID.TID 0000.0001)  ploadbar=  1.01132098717205E+05
 cg2d: Sum(rhs),rhsMax =  -5.49366778660948E+01  1.37675718773281E+00
(PID.TID 0000.0001)  ploadbar=  1.01132043886394E+05
 cg2d: Sum(rhs),rhsMax =  -5.46202967172623E+01  1.38440781707417E+00
(PID.TID 0000.0001)  ploadbar=  1.01131989055583E+05
 cg2d: Sum(rhs),rhsMax =  -5.43660958746260E+01  1.39051558683701E+00
(PID.TID 0000.0001)  ploadbar=  1.01131934224772E+05
 cg2d: Sum(rhs),rhsMax =  -5.41733490356793E+01  1.39505121794463E+00
(PID.TID 0000.0001)  ploadbar=  1.01131879393961E+05
 cg2d: Sum(rhs),rhsMax =  -5.40260608712835E+01  1.39846153576681E+00
(PID.TID 0000.0001)  ploadbar=  1.01131611986170E+05
 cg2d: Sum(rhs),rhsMax =  -5.38807240230446E+01  1.40185394923020E+00
(PID.TID 0000.0001)  ploadbar=  1.01131344578379E+05
 cg2d: Sum(rhs),rhsMax =  -5.37330112953544E+01  1.40533500965596E+00
(PID.TID 0000.0001)  ploadbar=  1.01131077170589E+05
 cg2d: Sum(rhs),rhsMax =  -5.36438759591845E+01  1.40730298590733E+00
(PID.TID 0000.0001)  ploadbar=  1.01130809762798E+05
 cg2d: Sum(rhs),rhsMax =  -5.36931632396388E+01  1.40564352395903E+00
(PID.TID 0000.0001)  ploadbar=  1.01130542355008E+05
 cg2d: Sum(rhs),rhsMax =  -5.38990076411246E+01  1.39990452133577E+00
(PID.TID 0000.0001)  ploadbar=  1.01130274947217E+05
 cg2d: Sum(rhs),rhsMax =  -5.43826279261219E+01  1.38705736074272E+00
(PID.TID 0000.0001)  ploadbar=  1.01130437282464E+05
 cg2d: Sum(rhs),rhsMax =  -5.51731760170624E+01  1.36675800649475E+00
(PID.TID 0000.0001)  ploadbar=  1.01130599617711E+05
 cg2d: Sum(rhs),rhsMax =  -5.64126505915754E+01  1.33627812652580E+00
(PID.TID 0000.0001)  ploadbar=  1.01130761952957E+05
 cg2d: Sum(rhs),rhsMax =  -5.74899675940066E+01  1.31076055735202E+00
(PID.TID 0000.0001)  ploadbar=  1.01130924288204E+05
 cg2d: Sum(rhs),rhsMax =  -5.73516596951632E+01  1.31341022546313E+00
(PID.TID 0000.0001)  ploadbar=  1.01131086623451E+05
 cg2d: Sum(rhs),rhsMax =  -5.72297338963435E+01  1.31566426292715E+00
(PID.TID 0000.0001)  ploadbar=  1.01131248958698E+05
 cg2d: Sum(rhs),rhsMax =  -5.71338265608923E+01  1.31738466455030E+00
(PID.TID 0000.0001)  ploadbar=  1.01131674386836E+05
 cg2d: Sum(rhs),rhsMax =  -5.70584303930636E+01  1.31868762291076E+00
(PID.TID 0000.0001)  ploadbar=  1.01132099814974E+05
 cg2d: Sum(rhs),rhsMax =  -5.70005924082544E+01  1.31963733793753E+00
(PID.TID 0000.0001)  ploadbar=  1.01132525243112E+05
 cg2d: Sum(rhs),rhsMax =  -5.69587952226283E+01  1.32026434277911E+00
(PID.TID 0000.0001)  ploadbar=  1.01132950671250E+05
 cg2d: Sum(rhs),rhsMax =  -5.69366430525936E+01  1.32047510076287E+00
(PID.TID 0000.0001)  ploadbar=  1.01133376099388E+05
 cg2d: Sum(rhs),rhsMax =  -5.69405976369695E+01  1.32010816945403E+00
(PID.TID 0000.0001)  ploadbar=  1.01133801527526E+05
 cg2d: Sum(rhs),rhsMax =  -5.69839903145883E+01  1.31879123052471E+00
(PID.TID 0000.0001)  ploadbar=  1.01134598120213E+05
 cg2d: Sum(rhs),rhsMax =  -5.70810344485561E+01  1.31620042642331E+00
(PID.TID 0000.0001)  ploadbar=  1.01135394712901E+05
 cg2d: Sum(rhs),rhsMax =  -5.72445525104579E+01  1.31205202237520E+00
(PID.TID 0000.0001)  ploadbar=  1.01136191305588E+05
 cg2d: Sum(rhs),rhsMax =  -5.74713086193836E+01  1.30644362200945E+00
(PID.TID 0000.0001)  ploadbar=  1.01136987898275E+05
 cg2d: Sum(rhs),rhsMax =  -5.77614429231358E+01  1.29940467144945E+00
(PID.TID 0000.0001)  ploadbar=  1.01137784490963E+05
 cg2d: Sum(rhs),rhsMax =  -5.81131308386785E+01  1.29101779823086E+00
(PID.TID 0000.0001)  ploadbar=  1.01138581083650E+05
 cg2d: Sum(rhs),rhsMax =  -5.85060855133109E+01  1.28185754179929E+00
(PID.TID 0000.0001)  ploadbar=  1.01139574892079E+05
 cg2d: Sum(rhs),rhsMax =  -5.88998103463152E+01  1.27282482024025E+00
(PID.TID 0000.0001)  ploadbar=  1.01140568700509E+05
 cg2d: Sum(rhs),rhsMax =  -5.92832810560776E+01  1.26414713341589E+00
(PID.TID 0000.0001)  ploadbar=  1.01141562508938E+05
 cg2d: Sum(rhs),rhsMax =  -5.96541639978724E+01  1.25585649978712E+00
(PID.TID 0000.0001)  ploadbar=  1.01142556317367E+05
 cg2d: Sum(rhs),rhsMax =  -5.99890735060233E+01  1.24842484077441E+00
(PID.TID 0000.0001)  ploadbar=  1.01143550125797E+05
 cg2d: Sum(rhs),rhsMax =  -6.02677301634588E+01  1.24223693300038E+00
(PID.TID 0000.0001)  ploadbar=  1.01144543934226E+05
 cg2d: Sum(rhs),rhsMax =  -6.05242844428374E+01  1.23653944642827E+00
(PID.TID 0000.0001)  ploadbar=  1.01145839302230E+05
 cg2d: Sum(rhs),rhsMax =  -6.07302474314082E+01  1.23189187365563E+00
(PID.TID 0000.0001)  ploadbar=  1.01147134670234E+05
 cg2d: Sum(rhs),rhsMax =  -6.09002620339343E+01  1.22797246152055E+00
(PID.TID 0000.0001)  ploadbar=  1.01148430038238E+05
 cg2d: Sum(rhs),rhsMax =  -6.10574454237113E+01  1.22430126622462E+00
(PID.TID 0000.0001)  ploadbar=  1.01149725406242E+05
 cg2d: Sum(rhs),rhsMax =  -6.12031348585405E+01  1.22084409997924E+00
(PID.TID 0000.0001)  ploadbar=  1.01151020774246E+05
 cg2d: Sum(rhs),rhsMax =  -6.13391563242705E+01  1.21755859880871E+00
(PID.TID 0000.0001)  ploadbar=  1.01152316142251E+05
 cg2d: Sum(rhs),rhsMax =  -6.14473637880643E+01  1.21488961181978E+00
(PID.TID 0000.0001)  ploadbar=  1.01152514014368E+05
 cg2d: Sum(rhs),rhsMax =  -6.15578924931096E+01  1.21223196350872E+00
(PID.TID 0000.0001)  ploadbar=  1.01152711886486E+05
 cg2d: Sum(rhs),rhsMax =  -6.16833470383112E+01  1.20933476603658E+00
(PID.TID 0000.0001)  ploadbar=  1.01152909758604E+05
 cg2d: Sum(rhs),rhsMax =  -6.18188229003828E+01  1.20629491485549E+00
(PID.TID 0000.0001)  ploadbar=  1.01153107630722E+05
 cg2d: Sum(rhs),rhsMax =  -6.19632641316897E+01  1.20313126852083E+00
(PID.TID 0000.0001)  ploadbar=  1.01153305502840E+05
 cg2d: Sum(rhs),rhsMax =  -6.18668640954323E+01  1.20468070167145E+00
(PID.TID 0000.0001)  ploadbar=  1.01153503374958E+05
 cg2d: Sum(rhs),rhsMax =  -6.16168980844026E+01  1.20922984379932E+00
(PID.TID 0000.0001)  ploadbar=  1.01154010039222E+05
 cg2d: Sum(rhs),rhsMax =  -6.13420391117175E+01  1.21429190379490E+00
(PID.TID 0000.0001)  ploadbar=  1.01154516703487E+05
 cg2d: Sum(rhs),rhsMax =  -6.10307450434102E+01  1.22010423495886E+00
(PID.TID 0000.0001)  ploadbar=  1.01155023367752E+05
 cg2d: Sum(rhs),rhsMax =  -6.06829061337149E+01  1.22668100900539E+00
(PID.TID 0000.0001)  ploadbar=  1.01155530032017E+05
 cg2d: Sum(rhs),rhsMax =  -6.02927433757854E+01  1.23416276995519E+00
(PID.TID 0000.0001)  ploadbar=  1.01156036696282E+05
 cg2d: Sum(rhs),rhsMax =  -5.98595293086697E+01  1.24259460425183E+00
(PID.TID 0000.0001)  ploadbar=  1.01156543360547E+05
 cg2d: Sum(rhs),rhsMax =  -5.93684196795613E+01  1.25241627668078E+00
(PID.TID 0000.0001)  ploadbar=  1.01156576781181E+05
 cg2d: Sum(rhs),rhsMax =  -5.88695390638012E+01  1.26260784749392E+00
(PID.TID 0000.0001)  ploadbar=  1.01156610201816E+05
 cg2d: Sum(rhs),rhsMax =  -5.83670965788618E+01  1.27308450596702E+00
(PID.TID 0000.0001)  ploadbar=  1.01156643622450E+05
 cg2d: Sum(rhs),rhsMax =  -5.78813569444577E+01  1.28339979460340E+00
(PID.TID 0000.0001)  ploadbar=  1.01156677043084E+05
 cg2d: Sum(rhs),rhsMax =  -5.74271952713409E+01  1.29320086831321E+00
(PID.TID 0000.0001)  ploadbar=  1.01156710463719E+05
 cg2d: Sum(rhs),rhsMax =  -5.70143454673490E+01  1.30223037078830E+00
(PID.TID 0000.0001)  ploadbar=  1.01156743884353E+05
 cg2d: Sum(rhs),rhsMax =  -5.66353926255123E+01  1.31058875758803E+00
(PID.TID 0000.0001)  ploadbar=  1.01155740934961E+05
 cg2d: Sum(rhs),rhsMax =  -5.63430759592684E+01  1.31701347706432E+00
(PID.TID 0000.0001)  ploadbar=  1.01154737985568E+05
 cg2d: Sum(rhs),rhsMax =  -5.61337284271954E+01  1.32152823907492E+00
(PID.TID 0000.0001)  ploadbar=  1.01153735036176E+05
 cg2d: Sum(rhs),rhsMax =  -5.60242966279807E+01  1.32368749978783E+00
(PID.TID 0000.0001)  ploadbar=  1.01152732086784E+05
 cg2d: Sum(rhs),rhsMax =  -5.60351996343840E+01  1.32298170413021E+00
(PID.TID 0000.0001)  ploadbar=  1.01151729137391E+05
 cg2d: Sum(rhs),rhsMax =  -5.61532202843868E+01  1.31972526608065E+00
(PID.TID 0000.0001)  ploadbar=  1.01150726187999E+05
 cg2d: Sum(rhs),rhsMax =  -5.64521883070420E+01  1.31234439171418E+00
(PID.TID 0000.0001)  ploadbar=  1.01148831066251E+05
 cg2d: Sum(rhs),rhsMax =  -5.68015598714786E+01  1.30395737483882E+00
(PID.TID 0000.0001)  ploadbar=  1.01146935944502E+05
 cg2d: Sum(rhs),rhsMax =  -5.71674603951213E+01  1.29537004126567E+00
(PID.TID 0000.0001)  ploadbar=  1.01145040822754E+05
 cg2d: Sum(rhs),rhsMax =  -5.75320596727698E+01  1.28698896450652E+00
(PID.TID 0000.0001)  ploadbar=  1.01143145701006E+05
 cg2d: Sum(rhs),rhsMax =  -5.78962390824805E+01  1.27878609848847E+00
(PID.TID 0000.0001)  ploadbar=  1.01141250579257E+05
 cg2d: Sum(rhs),rhsMax =  -5.82641774351563E+01  1.27066246152835E+00
(PID.TID 0000.0001)  ploadbar=  1.01139355457509E+05
 cg2d: Sum(rhs),rhsMax =  -5.86809869149664E+01  1.26157322878150E+00
(PID.TID 0000.0001)  ploadbar=  1.01138802128915E+05
 cg2d: Sum(rhs),rhsMax =  -5.90489620681267E+01  1.25362675988030E+00
(PID.TID 0000.0001)  ploadbar=  1.01138248800321E+05
 cg2d: Sum(rhs),rhsMax =  -5.93999245631223E+01  1.24611001677324E+00
(PID.TID 0000.0001)  ploadbar=  1.01137695471726E+05
 cg2d: Sum(rhs),rhsMax =  -5.97140140903268E+01  1.23941528106096E+00
(PID.TID 0000.0001)  ploadbar=  1.01137142143132E+05
 cg2d: Sum(rhs),rhsMax =  -5.97266466593057E+01  1.23897720904674E+00
(PID.TID 0000.0001)  ploadbar=  1.01136588814538E+05
 cg2d: Sum(rhs),rhsMax =  -5.97272145799481E+01  1.23875162422684E+00
(PID.TID 0000.0001)  ploadbar=  1.01136035485944E+05
 cg2d: Sum(rhs),rhsMax =  -5.95894768303437E+01  1.24141643106850E+00
(PID.TID 0000.0001)  ploadbar=  1.01135307360265E+05
 cg2d: Sum(rhs),rhsMax =  -5.94494526023708E+01  1.24414986519884E+00
(PID.TID 0000.0001)  ploadbar=  1.01134579234587E+05
 cg2d: Sum(rhs),rhsMax =  -5.93460066272063E+01  1.24613018885141E+00
(PID.TID 0000.0001)  ploadbar=  1.01133851108908E+05
 cg2d: Sum(rhs),rhsMax =  -5.92817930387730E+01  1.24728884899018E+00
(PID.TID 0000.0001)  ploadbar=  1.01133122983230E+05
 cg2d: Sum(rhs),rhsMax =  -5.92735437556843E+01  1.24726440553396E+00
(PID.TID 0000.0001)  ploadbar=  1.01132394857551E+05
 cg2d: Sum(rhs),rhsMax =  -5.93409171322839E+01  1.24563999450934E+00
(PID.TID 0000.0001)  ploadbar=  1.01131666731873E+05
 cg2d: Sum(rhs),rhsMax =  -5.95385490945924E+01  1.24126081945796E+00
(PID.TID 0000.0001)  ploadbar=  1.01130252615198E+05
 cg2d: Sum(rhs),rhsMax =  -5.97972629073818E+01  1.23560737388635E+00
(PID.TID 0000.0001)  ploadbar=  1.01128838498524E+05
 cg2d: Sum(rhs),rhsMax =  -6.00949407738718E+01  1.22916391416117E+00
(PID.TID 0000.0001)  ploadbar=  1.01127424381849E+05
 cg2d: Sum(rhs),rhsMax =  -5.98693329433064E+01  1.23342898732464E+00
(PID.TID 0000.0001)  ploadbar=  1.01126010265175E+05
 cg2d: Sum(rhs),rhsMax =  -5.96892885990245E+01  1.23673638027207E+00
(PID.TID 0000.0001)  ploadbar=  1.01124596148500E+05
 cg2d: Sum(rhs),rhsMax =  -5.95617414293797E+01  1.23892283916946E+00
(PID.TID 0000.0001)  ploadbar=  1.01123182031826E+05
 cg2d: Sum(rhs),rhsMax =  -5.96267135385269E+01  1.23717460149041E+00
(PID.TID 0000.0001)  ploadbar=  1.01122257447270E+05
 cg2d: Sum(rhs),rhsMax =  -5.97314332369418E+01  1.23466749043119E+00
(PID.TID 0000.0001)  ploadbar=  1.01121332862714E+05
 cg2d: Sum(rhs),rhsMax =  -5.98277714055635E+01  1.23239629526404E+00
(PID.TID 0000.0001)  ploadbar=  1.01120408278158E+05
 cg2d: Sum(rhs),rhsMax =  -5.99283227983832E+01  1.23009393787319E+00
(PID.TID 0000.0001)  ploadbar=  1.01119483693602E+05
 cg2d: Sum(rhs),rhsMax =  -6.00129685981674E+01  1.22816702574039E+00
(PID.TID 0000.0001)  ploadbar=  1.01118559109046E+05
 cg2d: Sum(rhs),rhsMax =  -6.00773900371150E+01  1.22669555105152E+00
(PID.TID 0000.0001)  ploadbar=  1.01117634524490E+05
 cg2d: Sum(rhs),rhsMax =  -6.01861319312900E+01  1.22433473031446E+00
(PID.TID 0000.0001)  ploadbar=  1.01116803585578E+05
 cg2d: Sum(rhs),rhsMax =  -6.02799211559424E+01  1.22229300758710E+00
(PID.TID 0000.0001)  ploadbar=  1.01115972646665E+05
 cg2d: Sum(rhs),rhsMax =  -6.03451764758562E+01  1.22083879450624E+00
(PID.TID 0000.0001)  ploadbar=  1.01115141707753E+05
 cg2d: Sum(rhs),rhsMax =  -6.03968555371815E+01  1.21966030100426E+00
(PID.TID 0000.0001)  ploadbar=  1.01114310768840E+05
 cg2d: Sum(rhs),rhsMax =  -5.83037569808248E+01  1.26329842252893E+00
(PID.TID 0000.0001)  ploadbar=  1.01113479829928E+05
 cg2d: Sum(rhs),rhsMax =  -5.61138491982063E+01  1.31243325484626E+00
(PID.TID 0000.0001)  ploadbar=  1.01112648891016E+05
 cg2d: Sum(rhs),rhsMax =  -5.40252259419168E+01  1.36302540556896E+00
(PID.TID 0000.0001)  ploadbar=  1.01112847438430E+05
 cg2d: Sum(rhs),rhsMax =  -5.20425761254603E+01  1.41481601406966E+00
(PID.TID 0000.0001)  ploadbar=  1.01113045985845E+05
 cg2d: Sum(rhs),rhsMax =  -5.02674672619321E+01  1.46464691880554E+00
(PID.TID 0000.0001)  ploadbar=  1.01113244533259E+05
 cg2d: Sum(rhs),rhsMax =  -4.87596871062581E+01  1.50980085090534E+00
(PID.TID 0000.0001)  ploadbar=  1.01113443080674E+05
 cg2d: Sum(rhs),rhsMax =  -4.72851974873612E+01  1.55672764987941E+00
(PID.TID 0000.0001)  ploadbar=  1.01113641628088E+05
 cg2d: Sum(rhs),rhsMax =  -4.58235764552919E+01  1.60620119857628E+00
(PID.TID 0000.0001)  ploadbar=  1.01113840175503E+05
 cg2d: Sum(rhs),rhsMax =  -4.45028603021467E+01  1.65363054618462E+00
(PID.TID 0000.0001)  ploadbar=  1.01113658029869E+05
 cg2d: Sum(rhs),rhsMax =  -4.35624179142020E+01  1.68903305339329E+00
(PID.TID 0000.0001)  ploadbar=  1.01113475884235E+05
 cg2d: Sum(rhs),rhsMax =  -4.30179012642747E+01  1.71005487143337E+00
(PID.TID 0000.0001)  ploadbar=  1.01113293738601E+05
 cg2d: Sum(rhs),rhsMax =  -4.31062508374087E+01  1.70613174265251E+00
(PID.TID 0000.0001)  ploadbar=  1.01113111592967E+05
 cg2d: Sum(rhs),rhsMax =  -4.35757089270023E+01  1.68727417486882E+00
(PID.TID 0000.0001)  ploadbar=  1.01112929447333E+05
 cg2d: Sum(rhs),rhsMax =  -4.41240185094245E+01  1.66576962001173E+00
(PID.TID 0000.0001)  ploadbar=  1.01112747301699E+05
 cg2d: Sum(rhs),rhsMax =  -4.47358965729443E+01  1.64254767254359E+00
(PID.TID 0000.0001)  ploadbar=  1.01112118974780E+05
 cg2d: Sum(rhs),rhsMax =  -4.53431389009400E+01  1.62020283544604E+00
(PID.TID 0000.0001)  ploadbar=  1.01111490647860E+05
 cg2d: Sum(rhs),rhsMax =  -4.59499491290868E+01  1.59854266058017E+00
(PID.TID 0000.0001)  ploadbar=  1.01110862320941E+05
 cg2d: Sum(rhs),rhsMax =  -4.65272209321369E+01  1.57852158207582E+00
(PID.TID 0000.0001)  ploadbar=  1.01110233994022E+05
 cg2d: Sum(rhs),rhsMax =  -4.70452169832499E+01  1.56102508473353E+00
(PID.TID 0000.0001)  ploadbar=  1.01109605667102E+05
 cg2d: Sum(rhs),rhsMax =  -4.74767325978932E+01  1.54678839982159E+00
(PID.TID 0000.0001)  ploadbar=  1.01108977340183E+05
 cg2d: Sum(rhs),rhsMax =  -4.78215220402672E+01  1.53555640115076E+00
(PID.TID 0000.0001)  ploadbar=  1.01108172380060E+05
 cg2d: Sum(rhs),rhsMax =  -4.82242449475212E+01  1.52261176067904E+00
(PID.TID 0000.0001)  ploadbar=  1.01107367419937E+05
 cg2d: Sum(rhs),rhsMax =  -4.86772339565578E+01  1.50827118014069E+00
(PID.TID 0000.0001)  ploadbar=  1.01106562459815E+05
 cg2d: Sum(rhs),rhsMax =  -4.91533940097672E+01  1.49343307956593E+00
(PID.TID 0000.0001)  ploadbar=  1.01105757499692E+05
 cg2d: Sum(rhs),rhsMax =  -4.96085946595441E+01  1.47944196333104E+00
(PID.TID 0000.0001)  ploadbar=  1.01104952539569E+05
 cg2d: Sum(rhs),rhsMax =  -5.00015803287681E+01  1.46746088654350E+00
(PID.TID 0000.0001)  ploadbar=  1.01104147579446E+05
 cg2d: Sum(rhs),rhsMax =  -5.03626542133499E+01  1.45660225324399E+00
(PID.TID 0000.0001)  ploadbar=  1.01104518031023E+05
 cg2d: Sum(rhs),rhsMax =  -5.07899361835039E+01  1.44402049959107E+00
(PID.TID 0000.0001)  ploadbar=  1.01104888482600E+05
 cg2d: Sum(rhs),rhsMax =  -5.12563922817023E+01  1.43055422213976E+00
(PID.TID 0000.0001)  ploadbar=  1.01105258934177E+05
 cg2d: Sum(rhs),rhsMax =  -5.17198065720777E+01  1.41740870353911E+00
(PID.TID 0000.0001)  ploadbar=  1.01105629385753E+05
 cg2d: Sum(rhs),rhsMax =  -5.21429600287838E+01  1.40557208966271E+00
(PID.TID 0000.0001)  ploadbar=  1.01105999837330E+05
 cg2d: Sum(rhs),rhsMax =  -5.25281824925379E+01  1.39491952992297E+00
(PID.TID 0000.0001)  ploadbar=  1.01106370288907E+05
 cg2d: Sum(rhs),rhsMax =  -5.29765311087645E+01  1.38271077816461E+00
(PID.TID 0000.0001)  ploadbar=  1.01105823844852E+05
 cg2d: Sum(rhs),rhsMax =  -5.34062024637627E+01  1.37112128447025E+00
(PID.TID 0000.0001)  ploadbar=  1.01105277400797E+05
 cg2d: Sum(rhs),rhsMax =  -5.37554455992753E+01  1.36168535365888E+00
(PID.TID 0000.0001)  ploadbar=  1.01104730956742E+05
 cg2d: Sum(rhs),rhsMax =  -5.41375743939565E+01  1.35148233215015E+00
(PID.TID 0000.0001)  ploadbar=  1.01104184512687E+05
 cg2d: Sum(rhs),rhsMax =  -5.46696146599781E+01  1.33767509290100E+00
(PID.TID 0000.0001)  ploadbar=  1.01103638068632E+05
 cg2d: Sum(rhs),rhsMax =  -5.50760143746393E+01  1.32708524201668E+00
(PID.TID 0000.0001)  ploadbar=  1.01103091624577E+05
 cg2d: Sum(rhs),rhsMax =  -5.54190818590687E+01  1.31825350752379E+00
(PID.TID 0000.0001)  ploadbar=  1.01102887685749E+05
 cg2d: Sum(rhs),rhsMax =  -5.57409156384936E+01  1.31012273025788E+00
(PID.TID 0000.0001)  ploadbar=  1.01102683746921E+05
 cg2d: Sum(rhs),rhsMax =  -5.60730490873180E+01  1.30193564998226E+00
(PID.TID 0000.0001)  ploadbar=  1.01102479808092E+05
 cg2d: Sum(rhs),rhsMax =  -5.64220706666628E+01  1.29354600636635E+00
(PID.TID 0000.0001)  ploadbar=  1.01102275869264E+05
 cg2d: Sum(rhs),rhsMax =  -5.67782419542170E+01  1.28518199085838E+00
(PID.TID 0000.0001)  ploadbar=  1.01102071930436E+05
 cg2d: Sum(rhs),rhsMax =  -5.71085895528386E+01  1.27758288840229E+00
(PID.TID 0000.0001)  ploadbar=  1.01101867991608E+05
 cg2d: Sum(rhs),rhsMax =  -5.73977502834466E+01  1.27095178512728E+00
(PID.TID 0000.0001)  ploadbar=  1.01102786265142E+05
 cg2d: Sum(rhs),rhsMax =  -5.76635222710747E+01  1.26486447928476E+00
(PID.TID 0000.0001)  ploadbar=  1.01103704538675E+05
 cg2d: Sum(rhs),rhsMax =  -5.78974918668956E+01  1.25948061663391E+00
(PID.TID 0000.0001)  ploadbar=  1.01104622812208E+05
 cg2d: Sum(rhs),rhsMax =  -5.80953347343154E+01  1.25487135015072E+00
(PID.TID 0000.0001)  ploadbar=  1.01105541085742E+05
 cg2d: Sum(rhs),rhsMax =  -5.82971880421663E+01  1.25015605810042E+00
(PID.TID 0000.0001)  ploadbar=  1.01106459359275E+05
 cg2d: Sum(rhs),rhsMax =  -5.85065767463890E+01  1.24525793617524E+00
(PID.TID 0000.0001)  ploadbar=  1.01107377632809E+05
 cg2d: Sum(rhs),rhsMax =  -5.87241984698877E+01  1.24027686837572E+00
(PID.TID 0000.0001)  ploadbar=  1.01107577195296E+05
 cg2d: Sum(rhs),rhsMax =  -5.83226201637529E+01  1.24849938406955E+00
(PID.TID 0000.0001)  ploadbar=  1.01107776757784E+05
 cg2d: Sum(rhs),rhsMax =  -5.73203131365696E+01  1.27004915937194E+00
(PID.TID 0000.0001)  ploadbar=  1.01107976320272E+05
 cg2d: Sum(rhs),rhsMax =  -5.63429471963078E+01  1.29182780886434E+00
(PID.TID 0000.0001)  ploadbar=  1.01108175882760E+05
 cg2d: Sum(rhs),rhsMax =  -5.53925722721156E+01  1.31376249142532E+00
(PID.TID 0000.0001)  ploadbar=  1.01108375445247E+05
 cg2d: Sum(rhs),rhsMax =  -5.44735876319277E+01  1.33571433636110E+00
(PID.TID 0000.0001)  ploadbar=  1.01108575007735E+05
 cg2d: Sum(rhs),rhsMax =  -5.35893968411604E+01  1.35749309340319E+00
(PID.TID 0000.0001)  ploadbar=  1.01108930100495E+05
 cg2d: Sum(rhs),rhsMax =  -5.27575871677558E+01  1.37858504494638E+00
(PID.TID 0000.0001)  ploadbar=  1.01109285193254E+05
 cg2d: Sum(rhs),rhsMax =  -5.19844348791356E+01  1.39872272987672E+00
(PID.TID 0000.0001)  ploadbar=  1.01109640286013E+05
 cg2d: Sum(rhs),rhsMax =  -5.12693148500877E+01  1.41781184174020E+00
(PID.TID 0000.0001)  ploadbar=  1.01109995378773E+05
 cg2d: Sum(rhs),rhsMax =  -5.06089798042630E+01  1.43583317610372E+00
(PID.TID 0000.0001)  ploadbar=  1.01110350471532E+05
 cg2d: Sum(rhs),rhsMax =  -4.99988965314748E+01  1.45282010682663E+00
(PID.TID 0000.0001)  ploadbar=  1.01110705564292E+05
 cg2d: Sum(rhs),rhsMax =  -4.94428660246253E+01  1.46869991802286E+00
(PID.TID 0000.0001)  ploadbar=  1.01112725634123E+05
 cg2d: Sum(rhs),rhsMax =  -4.89220306893106E+01  1.48394838091205E+00
(PID.TID 0000.0001)  ploadbar=  1.01114745703954E+05
 cg2d: Sum(rhs),rhsMax =  -4.84255339205914E+01  1.49884594904622E+00
(PID.TID 0000.0001)  ploadbar=  1.01116765773785E+05
 cg2d: Sum(rhs),rhsMax =  -4.79529765285861E+01  1.51336726610657E+00
(PID.TID 0000.0001)  ploadbar=  1.01118785843616E+05
 cg2d: Sum(rhs),rhsMax =  -4.75044120167948E+01  1.52747155668142E+00
(PID.TID 0000.0001)  ploadbar=  1.01120805913447E+05
 cg2d: Sum(rhs),rhsMax =  -4.70831680536820E+01  1.54101404686608E+00
(PID.TID 0000.0001)  ploadbar=  1.01122825983278E+05
 cg2d: Sum(rhs),rhsMax =  -4.66762089078173E+01  1.55426333235380E+00
(PID.TID 0000.0001)  ploadbar=  1.01122881896408E+05
 cg2d: Sum(rhs),rhsMax =  -4.62803306200544E+01  1.56729858287862E+00
(PID.TID 0000.0001)  ploadbar=  1.01122937809538E+05
 cg2d: Sum(rhs),rhsMax =  -4.58855446398936E+01  1.58044378836597E+00
(PID.TID 0000.0001)  ploadbar=  1.01122993722667E+05
 cg2d: Sum(rhs),rhsMax =  -4.55060058955150E+01  1.59320161034283E+00
(PID.TID 0000.0001)  ploadbar=  1.01123049635797E+05
 cg2d: Sum(rhs),rhsMax =  -4.51572081054482E+01  1.60499613726344E+00
(PID.TID 0000.0001)  ploadbar=  1.01123105548927E+05
 cg2d: Sum(rhs),rhsMax =  -4.48509106708109E+01  1.61535539226846E+00
(PID.TID 0000.0001)  ploadbar=  1.01123161462057E+05
 cg2d: Sum(rhs),rhsMax =  -4.46153076967721E+01  1.62331140378198E+00
(PID.TID 0000.0001)  ploadbar=  1.01121832884775E+05
 cg2d: Sum(rhs),rhsMax =  -4.44274048680848E+01  1.62962349244651E+00
(PID.TID 0000.0001)  ploadbar=  1.01120504307493E+05
 cg2d: Sum(rhs),rhsMax =  -4.42812006496364E+01  1.63446018628112E+00
(PID.TID 0000.0001)  ploadbar=  1.01119175730211E+05
 cg2d: Sum(rhs),rhsMax =  -4.41736154910763E+01  1.63789812837784E+00
(PID.TID 0000.0001)  ploadbar=  1.01117847152929E+05
 cg2d: Sum(rhs),rhsMax =  -4.40995318133776E+01  1.64009923760312E+00
(PID.TID 0000.0001)  ploadbar=  1.01116518575647E+05
 cg2d: Sum(rhs),rhsMax =  -4.40541909958802E+01  1.64122158005470E+00
(PID.TID 0000.0001)  ploadbar=  1.01115189998365E+05
 cg2d: Sum(rhs),rhsMax =  -4.37800494902798E+01  1.65088092686547E+00
(PID.TID 0000.0001)  ploadbar=  1.01114923660619E+05
 cg2d: Sum(rhs),rhsMax =  -4.31971891191512E+01  1.67247893032866E+00
(PID.TID 0000.0001)  ploadbar=  1.01114657322873E+05
 cg2d: Sum(rhs),rhsMax =  -4.26706055169620E+01  1.69237396229737E+00
(PID.TID 0000.0001)  ploadbar=  1.01114390985127E+05
 cg2d: Sum(rhs),rhsMax =  -4.21955281445409E+01  1.71060961370311E+00
(PID.TID 0000.0001)  ploadbar=  1.01114124647381E+05
 cg2d: Sum(rhs),rhsMax =  -4.17540328171961E+01  1.72780584499974E+00
(PID.TID 0000.0001)  ploadbar=  1.01113858309635E+05
 cg2d: Sum(rhs),rhsMax =  -4.13400406567528E+01  1.74414300995796E+00
(PID.TID 0000.0001)  ploadbar=  1.01113591971888E+05
 cg2d: Sum(rhs),rhsMax =  -4.09457665666472E+01  1.76010744745022E+00
(PID.TID 0000.0001)  ploadbar=  1.01112700354061E+05
 cg2d: Sum(rhs),rhsMax =  -4.05553551288558E+01  1.77634992224787E+00
(PID.TID 0000.0001)  ploadbar=  1.01111808736234E+05
 cg2d: Sum(rhs),rhsMax =  -4.01550158793427E+01  1.79348683518658E+00
(PID.TID 0000.0001)  ploadbar=  1.01110917118407E+05
 cg2d: Sum(rhs),rhsMax =  -3.97470476164966E+01  1.81144320933742E+00
(PID.TID 0000.0001)  ploadbar=  1.01110025500579E+05
 cg2d: Sum(rhs),rhsMax =  -3.93424299773325E+01  1.82973356867159E+00
(PID.TID 0000.0001)  ploadbar=  1.01109133882752E+05
 cg2d: Sum(rhs),rhsMax =  -3.89457117150613E+01  1.84813720014786E+00
(PID.TID 0000.0001)  ploadbar=  1.01108242264925E+05
 cg2d: Sum(rhs),rhsMax =  -3.85666597162296E+01  1.86601597580929E+00
(PID.TID 0000.0001)  ploadbar=  1.01108189943980E+05
 cg2d: Sum(rhs),rhsMax =  -3.82247025224261E+01  1.88235965131878E+00
(PID.TID 0000.0001)  ploadbar=  1.01108137623035E+05
 cg2d: Sum(rhs),rhsMax =  -3.79235027301295E+01  1.89688963334428E+00
(PID.TID 0000.0001)  ploadbar=  1.01108085302091E+05
 cg2d: Sum(rhs),rhsMax =  -3.76633297712531E+01  1.90949155811767E+00
(PID.TID 0000.0001)  ploadbar=  1.01108032981146E+05
 cg2d: Sum(rhs),rhsMax =  -3.74379244623244E+01  1.92039511112021E+00
(PID.TID 0000.0001)  ploadbar=  1.01107980660201E+05
 cg2d: Sum(rhs),rhsMax =  -3.72391754519162E+01  1.92995439137222E+00
(PID.TID 0000.0001)  ploadbar=  1.01107928339257E+05
 cg2d: Sum(rhs),rhsMax =  -3.70611170805605E+01  1.93861366842211E+00
(PID.TID 0000.0001)  ploadbar=  1.01108618194059E+05
 cg2d: Sum(rhs),rhsMax =  -3.69025281511515E+01  1.94639691667842E+00
(PID.TID 0000.0001)  ploadbar=  1.01109308048861E+05
 cg2d: Sum(rhs),rhsMax =  -3.67608695824358E+01  1.95339356072282E+00
(PID.TID 0000.0001)  ploadbar=  1.01109997903663E+05
 cg2d: Sum(rhs),rhsMax =  -3.66358499143288E+01  1.95958634327920E+00
(PID.TID 0000.0001)  ploadbar=  1.01110687758465E+05
 cg2d: Sum(rhs),rhsMax =  -3.65266615633994E+01  1.96498751536421E+00
(PID.TID 0000.0001)  ploadbar=  1.01111377613267E+05
 cg2d: Sum(rhs),rhsMax =  -3.64330285989715E+01  1.96958538548762E+00
(PID.TID 0000.0001)  ploadbar=  1.01112067468069E+05
 cg2d: Sum(rhs),rhsMax =  -3.63572520005707E+01  1.97319318849126E+00
(PID.TID 0000.0001)  ploadbar=  1.01113054428766E+05
 cg2d: Sum(rhs),rhsMax =  -3.62992446106632E+01  1.97580191757882E+00
(PID.TID 0000.0001)  ploadbar=  1.01114041389463E+05
 cg2d: Sum(rhs),rhsMax =  -3.62600869068018E+01  1.97734046610305E+00
(PID.TID 0000.0001)  ploadbar=  1.01115028350160E+05
 cg2d: Sum(rhs),rhsMax =  -3.62402581886340E+01  1.97777502465058E+00
(PID.TID 0000.0001)  ploadbar=  1.01116015310857E+05
 cg2d: Sum(rhs),rhsMax =  -3.62356019830729E+01  1.97732559480089E+00
(PID.TID 0000.0001)  ploadbar=  1.01117002271554E+05
 cg2d: Sum(rhs),rhsMax =  -3.62457139457706E+01  1.97601628020143E+00
(PID.TID 0000.0001)  ploadbar=  1.01117989232251E+05
 cg2d: Sum(rhs),rhsMax =  -3.62752076713037E+01  1.97375876483219E+00
(PID.TID 0000.0001)  ploadbar=  1.01118228414415E+05
 cg2d: Sum(rhs),rhsMax =  -3.63192651823435E+01  1.97080842462076E+00
(PID.TID 0000.0001)  ploadbar=  1.01118467596579E+05
 cg2d: Sum(rhs),rhsMax =  -3.63732907094942E+01  1.96741575635057E+00
(PID.TID 0000.0001)  ploadbar=  1.01118706778743E+05
 cg2d: Sum(rhs),rhsMax =  -3.64360128096638E+01  1.96364567762575E+00
(PID.TID 0000.0001)  ploadbar=  1.01118945960907E+05
 cg2d: Sum(rhs),rhsMax =  -3.65065181486521E+01  1.95954117652751E+00
(PID.TID 0000.0001)  ploadbar=  1.01119185143072E+05
 cg2d: Sum(rhs),rhsMax =  -3.65839118342660E+01  1.95514347278956E+00
(PID.TID 0000.0001)  ploadbar=  1.01119424325236E+05
 cg2d: Sum(rhs),rhsMax =  -3.66729278464829E+01  1.95010065169435E+00
(PID.TID 0000.0001)  ploadbar=  1.01119649442824E+05
 cg2d: Sum(rhs),rhsMax =  -3.67776371184198E+01  1.94420889921452E+00
(PID.TID 0000.0001)  ploadbar=  1.01119874560413E+05
 cg2d: Sum(rhs),rhsMax =  -3.69020847878586E+01  1.93726475017028E+00
(PID.TID 0000.0001)  ploadbar=  1.01120099678001E+05
 cg2d: Sum(rhs),rhsMax =  -3.70439821069807E+01  1.92940812375635E+00
(PID.TID 0000.0001)  ploadbar=  1.01120324795590E+05
 cg2d: Sum(rhs),rhsMax =  -3.71915113930171E+01  1.92126263803842E+00
(PID.TID 0000.0001)  ploadbar=  1.01120549913178E+05
 cg2d: Sum(rhs),rhsMax =  -3.73325079372062E+01  1.91345549386288E+00
(PID.TID 0000.0001)  ploadbar=  1.01120775030766E+05
 cg2d: Sum(rhs),rhsMax =  -3.74629998657414E+01  1.90638804004794E+00
(PID.TID 0000.0001)  ploadbar=  1.01122288258138E+05
 cg2d: Sum(rhs),rhsMax =  -3.76059954130093E+01  1.89886917201274E+00
(PID.TID 0000.0001)  ploadbar=  1.01123801485510E+05
 cg2d: Sum(rhs),rhsMax =  -3.77722784781274E+01  1.89036015969015E+00
(PID.TID 0000.0001)  ploadbar=  1.01125314712881E+05
 cg2d: Sum(rhs),rhsMax =  -3.79673923304232E+01  1.88060375696455E+00
(PID.TID 0000.0001)  ploadbar=  1.01126827940253E+05
 cg2d: Sum(rhs),rhsMax =  -3.81979814850831E+01  1.86931068686061E+00
(PID.TID 0000.0001)  ploadbar=  1.01128341167624E+05
 cg2d: Sum(rhs),rhsMax =  -3.84709034175485E+01  1.85619786654481E+00
(PID.TID 0000.0001)  ploadbar=  1.01129854394996E+05
 cg2d: Sum(rhs),rhsMax =  -3.87898406819206E+01  1.84103807741684E+00
(PID.TID 0000.0001)  ploadbar=  1.01129926671459E+05
 cg2d: Sum(rhs),rhsMax =  -3.91511799020295E+01  1.82410024921573E+00
(PID.TID 0000.0001)  ploadbar=  1.01129998947923E+05
 cg2d: Sum(rhs),rhsMax =  -3.95716766783291E+01  1.80471825563099E+00
(PID.TID 0000.0001)  ploadbar=  1.01130071224387E+05
 cg2d: Sum(rhs),rhsMax =  -4.00548281964076E+01  1.78289779755232E+00
(PID.TID 0000.0001)  ploadbar=  1.01130143500850E+05
 cg2d: Sum(rhs),rhsMax =  -4.06037789594340E+01  1.75868826140921E+00
(PID.TID 0000.0001)  ploadbar=  1.01130215777314E+05
 cg2d: Sum(rhs),rhsMax =  -4.12246806707787E+01  1.73203854158544E+00
(PID.TID 0000.0001)  ploadbar=  1.01130288053777E+05
 cg2d: Sum(rhs),rhsMax =  -4.19228316923465E+01  1.70311652988675E+00
(PID.TID 0000.0001)  ploadbar=  1.01131408724692E+05
 cg2d: Sum(rhs),rhsMax =  -4.26840527269081E+01  1.67273565451739E+00
(PID.TID 0000.0001)  ploadbar=  1.01132529395606E+05
 cg2d: Sum(rhs),rhsMax =  -4.35142802540157E+01  1.64087890531981E+00
(PID.TID 0000.0001)  ploadbar=  1.01133650066520E+05
 cg2d: Sum(rhs),rhsMax =  -4.44065368668690E+01  1.60802055859213E+00
(PID.TID 0000.0001)  ploadbar=  1.01134770737435E+05
 cg2d: Sum(rhs),rhsMax =  -4.53543060085521E+01  1.57457012048711E+00
(PID.TID 0000.0001)  ploadbar=  1.01135891408349E+05
 cg2d: Sum(rhs),rhsMax =  -4.63529845527398E+01  1.54082518282360E+00
(PID.TID 0000.0001)  ploadbar=  1.01137012079264E+05
 cg2d: Sum(rhs),rhsMax =  -4.73848808668139E+01  1.50737867929702E+00
(PID.TID 0000.0001)  ploadbar=  1.01137966259895E+05
 cg2d: Sum(rhs),rhsMax =  -4.81064971592039E+01  1.48479738645817E+00
(PID.TID 0000.0001)  ploadbar=  1.01138920440526E+05
 cg2d: Sum(rhs),rhsMax =  -4.82066438236396E+01  1.48165286354628E+00
(PID.TID 0000.0001)  ploadbar=  1.01139874621157E+05
 cg2d: Sum(rhs),rhsMax =  -4.83078385258121E+01  1.47838327938879E+00
(PID.TID 0000.0001)  ploadbar=  1.01140828801789E+05
 cg2d: Sum(rhs),rhsMax =  -4.84104345583198E+01  1.47497000598844E+00
(PID.TID 0000.0001)  ploadbar=  1.01141782982420E+05
 cg2d: Sum(rhs),rhsMax =  -4.85239336797100E+01  1.47111622640103E+00
(PID.TID 0000.0001)  ploadbar=  1.01142737163051E+05
 cg2d: Sum(rhs),rhsMax =  -4.86475086208681E+01  1.46702045026268E+00
(PID.TID 0000.0001)  ploadbar=  1.01144407810080E+05
 cg2d: Sum(rhs),rhsMax =  -4.87793054963397E+01  1.46273072070756E+00
(PID.TID 0000.0001)  ploadbar=  1.01146078457110E+05
 cg2d: Sum(rhs),rhsMax =  -4.87595760487840E+01  1.46301526095198E+00
(PID.TID 0000.0001)  ploadbar=  1.01147749104139E+05
 cg2d: Sum(rhs),rhsMax =  -4.86484919343186E+01  1.46606357043750E+00
(PID.TID 0000.0001)  ploadbar=  1.01149419751169E+05
 cg2d: Sum(rhs),rhsMax =  -4.85418251545909E+01  1.46899680586879E+00
(PID.TID 0000.0001)  ploadbar=  1.01151090398198E+05
 cg2d: Sum(rhs),rhsMax =  -4.84380731907439E+01  1.47184413015667E+00
(PID.TID 0000.0001)  ploadbar=  1.01152761045227E+05
 cg2d: Sum(rhs),rhsMax =  -4.83244854974254E+01  1.47498199835468E+00
(PID.TID 0000.0001)  ploadbar=  1.01153494401491E+05
 cg2d: Sum(rhs),rhsMax =  -4.82130042479629E+01  1.47803981515323E+00
(PID.TID 0000.0001)  ploadbar=  1.01154227757755E+05
 cg2d: Sum(rhs),rhsMax =  -4.80920580558404E+01  1.48137297838553E+00
(PID.TID 0000.0001)  ploadbar=  1.01154961114019E+05
 cg2d: Sum(rhs),rhsMax =  -4.79618656604856E+01  1.48498049376873E+00
(PID.TID 0000.0001)  ploadbar=  1.01155694470284E+05
 cg2d: Sum(rhs),rhsMax =  -4.78254138695834E+01  1.48877167350642E+00
(PID.TID 0000.0001)  ploadbar=  1.01156427826548E+05
 cg2d: Sum(rhs),rhsMax =  -4.76902173131509E+01  1.49251055829502E+00
(PID.TID 0000.0001)  ploadbar=  1.01157161182812E+05
 cg2d: Sum(rhs),rhsMax =  -4.75479114302199E+01  1.49659510133221E+00
(PID.TID 0000.0001)  ploadbar=  1.01158005252229E+05
 cg2d: Sum(rhs),rhsMax =  -4.74145776879524E+01  1.50051809268065E+00
(PID.TID 0000.0001)  ploadbar=  1.01158849321647E+05
 cg2d: Sum(rhs),rhsMax =  -4.72941528858408E+01  1.50414937767956E+00
(PID.TID 0000.0001)  ploadbar=  1.01159693391065E+05
 cg2d: Sum(rhs),rhsMax =  -4.71800711583081E+01  1.50768840699288E+00
(PID.TID 0000.0001)  ploadbar=  1.01160537460482E+05
 cg2d: Sum(rhs),rhsMax =  -4.70722892985492E+01  1.51112623622836E+00
(PID.TID 0000.0001)  ploadbar=  1.01161381529900E+05
 cg2d: Sum(rhs),rhsMax =  -4.69696056343382E+01  1.51449102755549E+00
(PID.TID 0000.0001)  ploadbar=  1.01162225599317E+05
 cg2d: Sum(rhs),rhsMax =  -4.68623721223732E+01  1.51794359377784E+00
(PID.TID 0000.0001)  ploadbar=  1.01162543498969E+05
 cg2d: Sum(rhs),rhsMax =  -4.67521570923653E+01  1.52142937934429E+00
(PID.TID 0000.0001)  ploadbar=  1.01162861398621E+05
 cg2d: Sum(rhs),rhsMax =  -4.66414385133517E+01  1.52486113413751E+00
(PID.TID 0000.0001)  ploadbar=  1.01163179298272E+05
 cg2d: Sum(rhs),rhsMax =  -4.65253469954479E+01  1.52838850873735E+00
(PID.TID 0000.0001)  ploadbar=  1.01163497197924E+05
 cg2d: Sum(rhs),rhsMax =  -4.64032480454376E+01  1.53203870979805E+00
(PID.TID 0000.0001)  ploadbar=  1.01163815097576E+05
 cg2d: Sum(rhs),rhsMax =  -4.62743597206321E+01  1.53584077437185E+00
(PID.TID 0000.0001)  ploadbar=  1.01164132997227E+05
 cg2d: Sum(rhs),rhsMax =  -4.61679939416902E+01  1.53895859353358E+00
(PID.TID 0000.0001)  ploadbar=  1.01162905630909E+05
 cg2d: Sum(rhs),rhsMax =  -4.60756784771131E+01  1.54165020945520E+00
(PID.TID 0000.0001)  ploadbar=  1.01161678264590E+05
 cg2d: Sum(rhs),rhsMax =  -4.59902141356535E+01  1.54414053154901E+00
(PID.TID 0000.0001)  ploadbar=  1.01160450898271E+05
 cg2d: Sum(rhs),rhsMax =  -4.59140961896662E+01  1.54634334103033E+00
(PID.TID 0000.0001)  ploadbar=  1.01159223531953E+05
 cg2d: Sum(rhs),rhsMax =  -4.58482580828122E+01  1.54822098993327E+00
(PID.TID 0000.0001)  ploadbar=  1.01157996165634E+05
 cg2d: Sum(rhs),rhsMax =  -4.57935067679328E+01  1.54974264662935E+00
(PID.TID 0000.0001)  ploadbar=  1.01156768799315E+05
 cg2d: Sum(rhs),rhsMax =  -4.57657043171100E+01  1.55030924005953E+00
(PID.TID 0000.0001)  ploadbar=  1.01155797586106E+05
 cg2d: Sum(rhs),rhsMax =  -4.57594475805585E+01  1.55009682656998E+00
(PID.TID 0000.0001)  ploadbar=  1.01154826372897E+05
 cg2d: Sum(rhs),rhsMax =  -4.57672056981657E+01  1.54935864617907E+00
(PID.TID 0000.0001)  ploadbar=  1.01153855159687E+05
 cg2d: Sum(rhs),rhsMax =  -4.57988425353188E+01  1.54776063908688E+00
(PID.TID 0000.0001)  ploadbar=  1.01152883946478E+05
 cg2d: Sum(rhs),rhsMax =  -4.58460550045505E+01  1.54558497277279E+00
(PID.TID 0000.0001)  ploadbar=  1.01151912733269E+05
 cg2d: Sum(rhs),rhsMax =  -4.58946429845214E+01  1.54331196667036E+00
(PID.TID 0000.0001)  ploadbar=  1.01150941520059E+05
 cg2d: Sum(rhs),rhsMax =  -4.59418465179754E+01  1.54116573568012E+00
(PID.TID 0000.0001)  ploadbar=  1.01150927752545E+05
 cg2d: Sum(rhs),rhsMax =  -4.60282361911076E+01  1.53778218957905E+00
(PID.TID 0000.0001)  ploadbar=  1.01150913985031E+05
 cg2d: Sum(rhs),rhsMax =  -4.61383326969959E+01  1.53368520260010E+00
(PID.TID 0000.0001)  ploadbar=  1.01150900217518E+05
 cg2d: Sum(rhs),rhsMax =  -4.62779900573373E+01  1.52868956532061E+00
(PID.TID 0000.0001)  ploadbar=  1.01150886450004E+05
 cg2d: Sum(rhs),rhsMax =  -4.64582842696366E+01  1.52243791946829E+00
(PID.TID 0000.0001)  ploadbar=  1.01150872682490E+05
 cg2d: Sum(rhs),rhsMax =  -4.66836369844133E+01  1.51480911456009E+00
(PID.TID 0000.0001)  ploadbar=  1.01150858914976E+05
 cg2d: Sum(rhs),rhsMax =  -4.69273171961807E+01  1.50659447586908E+00
(PID.TID 0000.0001)  ploadbar=  1.01150223898908E+05
 cg2d: Sum(rhs),rhsMax =  -4.72351117307825E+01  1.49635337795964E+00
(PID.TID 0000.0001)  ploadbar=  1.01149588882841E+05
 cg2d: Sum(rhs),rhsMax =  -4.76019110757691E+01  1.48432106115448E+00
(PID.TID 0000.0001)  ploadbar=  1.01148953866773E+05
 cg2d: Sum(rhs),rhsMax =  -4.80218727060526E+01  1.47075563872411E+00
(PID.TID 0000.0001)  ploadbar=  1.01148318850705E+05
 cg2d: Sum(rhs),rhsMax =  -4.84694567081354E+01  1.45650379790545E+00
(PID.TID 0000.0001)  ploadbar=  1.01147683834638E+05
 cg2d: Sum(rhs),rhsMax =  -4.88957800670611E+01  1.44304417986953E+00
(PID.TID 0000.0001)  ploadbar=  1.01147048818570E+05
 cg2d: Sum(rhs),rhsMax =  -4.94032595732687E+01  1.42754052303871E+00
(PID.TID 0000.0001)  ploadbar=  1.01146880866960E+05
 cg2d: Sum(rhs),rhsMax =  -4.98217863578389E+01  1.41493298680788E+00
(PID.TID 0000.0001)  ploadbar=  1.01146712915350E+05
 cg2d: Sum(rhs),rhsMax =  -5.01921880788704E+01  1.40392773170837E+00
(PID.TID 0000.0001)  ploadbar=  1.01146544963740E+05
 cg2d: Sum(rhs),rhsMax =  -5.01829325737919E+01  1.40366272759590E+00
(PID.TID 0000.0001)  ploadbar=  1.01146377012130E+05
 cg2d: Sum(rhs),rhsMax =  -5.02201040088690E+01  1.40213016922622E+00
(PID.TID 0000.0001)  ploadbar=  1.01146209060520E+05
 cg2d: Sum(rhs),rhsMax =  -5.02681590379094E+01  1.40031640201235E+00
(PID.TID 0000.0001)  ploadbar=  1.01146041108910E+05
 cg2d: Sum(rhs),rhsMax =  -5.02925596154559E+01  1.39912430005561E+00
(PID.TID 0000.0001)  ploadbar=  1.01147284312505E+05
 cg2d: Sum(rhs),rhsMax =  -5.02708050540126E+01  1.39917640274332E+00
(PID.TID 0000.0001)  ploadbar=  1.01148527516100E+05
 cg2d: Sum(rhs),rhsMax =  -5.02250837860993E+01  1.39985559105146E+00
(PID.TID 0000.0001)  ploadbar=  1.01149770719695E+05
 cg2d: Sum(rhs),rhsMax =  -5.01622416750890E+01  1.40097270283372E+00
(PID.TID 0000.0001)  ploadbar=  1.01151013923290E+05
 cg2d: Sum(rhs),rhsMax =  -5.00833852080164E+01  1.40249558137247E+00
(PID.TID 0000.0001)  ploadbar=  1.01152257126885E+05
 cg2d: Sum(rhs),rhsMax =  -4.99928157735926E+01  1.40430474561440E+00
(PID.TID 0000.0001)  ploadbar=  1.01153500330480E+05
 cg2d: Sum(rhs),rhsMax =  -4.99100193909615E+01  1.40595351728807E+00
(PID.TID 0000.0001)  ploadbar=  1.01153030193643E+05
 cg2d: Sum(rhs),rhsMax =  -4.98344161379000E+01  1.40745619786958E+00
(PID.TID 0000.0001)  ploadbar=  1.01152560056807E+05
 cg2d: Sum(rhs),rhsMax =  -4.97490325631965E+01  1.40928961460704E+00
(PID.TID 0000.0001)  ploadbar=  1.01152089919971E+05
 cg2d: Sum(rhs),rhsMax =  -4.96692439259909E+01  1.41101572227017E+00
(PID.TID 0000.0001)  ploadbar=  1.01151619783135E+05
 cg2d: Sum(rhs),rhsMax =  -4.95924988833561E+01  1.41270337943347E+00
(PID.TID 0000.0001)  ploadbar=  1.01151149646298E+05
 cg2d: Sum(rhs),rhsMax =  -4.95178223063260E+01  1.41438095973570E+00
(PID.TID 0000.0001)  ploadbar=  1.01150679509462E+05
 cg2d: Sum(rhs),rhsMax =  -4.94263292185321E+01  1.41654773544250E+00
(PID.TID 0000.0001)  ploadbar=  1.01150935884804E+05
 cg2d: Sum(rhs),rhsMax =  -4.93391067396527E+01  1.41860002398315E+00
(PID.TID 0000.0001)  ploadbar=  1.01151192260146E+05
 cg2d: Sum(rhs),rhsMax =  -4.92519020391641E+01  1.42065497782274E+00
(PID.TID 0000.0001)  ploadbar=  1.01151448635488E+05
 cg2d: Sum(rhs),rhsMax =  -4.91642935427607E+01  1.42272343388475E+00
(PID.TID 0000.0001)  ploadbar=  1.01151705010830E+05
 cg2d: Sum(rhs),rhsMax =  -4.90758981880207E+01  1.42481224740550E+00
(PID.TID 0000.0001)  ploadbar=  1.01151961386172E+05
 cg2d: Sum(rhs),rhsMax =  -4.89860574474312E+01  1.42693910699029E+00
(PID.TID 0000.0001)  ploadbar=  1.01152217761514E+05
 cg2d: Sum(rhs),rhsMax =  -4.88992866471323E+01  1.42905296876506E+00
(PID.TID 0000.0001)  ploadbar=  1.01152458799058E+05
 cg2d: Sum(rhs),rhsMax =  -4.88283022182566E+01  1.43077222007366E+00
(PID.TID 0000.0001)  ploadbar=  1.01152699836601E+05
 cg2d: Sum(rhs),rhsMax =  -4.87563606070343E+01  1.43257506446367E+00
(PID.TID 0000.0001)  ploadbar=  1.01152940874144E+05
 cg2d: Sum(rhs),rhsMax =  -4.86879145974769E+01  1.43432679321371E+00
(PID.TID 0000.0001)  ploadbar=  1.01153181911688E+05
 cg2d: Sum(rhs),rhsMax =  -4.86203548229092E+01  1.43609690648369E+00
(PID.TID 0000.0001)  ploadbar=  1.01153422949231E+05
 cg2d: Sum(rhs),rhsMax =  -4.85489409195275E+01  1.43801684519607E+00
(PID.TID 0000.0001)  ploadbar=  1.01153663986774E+05
 cg2d: Sum(rhs),rhsMax =  -4.84525684888253E+01  1.44064630352692E+00
(PID.TID 0000.0001)  ploadbar=  1.01153844254822E+05
 cg2d: Sum(rhs),rhsMax =  -4.83407866489616E+01  1.44370533333772E+00
(PID.TID 0000.0001)  ploadbar=  1.01154024522869E+05
 cg2d: Sum(rhs),rhsMax =  -4.82017593048482E+01  1.44755446909055E+00
(PID.TID 0000.0001)  ploadbar=  1.01154204790916E+05
 cg2d: Sum(rhs),rhsMax =  -4.80266623333725E+01  1.45247218412698E+00
(PID.TID 0000.0001)  ploadbar=  1.01154385058963E+05
 cg2d: Sum(rhs),rhsMax =  -4.78238539429509E+01  1.45822614063120E+00
(PID.TID 0000.0001)  ploadbar=  1.01154565327010E+05
 cg2d: Sum(rhs),rhsMax =  -4.76335367449429E+01  1.46359737924485E+00
(PID.TID 0000.0001)  ploadbar=  1.01154745595057E+05
 cg2d: Sum(rhs),rhsMax =  -4.75498920323362E+01  1.46576355468574E+00
(PID.TID 0000.0001)  ploadbar=  1.01153682843670E+05
 cg2d: Sum(rhs),rhsMax =  -4.74903644907188E+01  1.46723414905794E+00
(PID.TID 0000.0001)  ploadbar=  1.01152620092283E+05
 cg2d: Sum(rhs),rhsMax =  -4.67215922198859E+01  1.49104428416217E+00
(PID.TID 0000.0001)  ploadbar=  1.01151557340896E+05
 cg2d: Sum(rhs),rhsMax =  -4.57853785453977E+01  1.52123077675385E+00
(PID.TID 0000.0001)  ploadbar=  1.01150494589509E+05
 cg2d: Sum(rhs),rhsMax =  -4.47251286140278E+01  1.55701515092138E+00
(PID.TID 0000.0001)  ploadbar=  1.01149431838122E+05
 cg2d: Sum(rhs),rhsMax =  -4.36217932188426E+01  1.59614060591991E+00
(PID.TID 0000.0001)  ploadbar=  1.01148369086735E+05
 cg2d: Sum(rhs),rhsMax =  -4.26544821951249E+01  1.63201145457880E+00
(PID.TID 0000.0001)  ploadbar=  1.01148542469625E+05
 cg2d: Sum(rhs),rhsMax =  -4.19269942572808E+01  1.65992902541318E+00
(PID.TID 0000.0001)  ploadbar=  1.01148715852514E+05
 cg2d: Sum(rhs),rhsMax =  -4.15419886359167E+01  1.67483794917004E+00
(PID.TID 0000.0001)  ploadbar=  1.01148889235404E+05
 cg2d: Sum(rhs),rhsMax =  -4.15073506926171E+01  1.67568387010170E+00
(PID.TID 0000.0001)  ploadbar=  1.01149062618293E+05
 cg2d: Sum(rhs),rhsMax =  -4.17611218775668E+01  1.66487873928711E+00
(PID.TID 0000.0001)  ploadbar=  1.01149236001183E+05
 cg2d: Sum(rhs),rhsMax =  -4.22127715211454E+01  1.64637344648540E+00
(PID.TID 0000.0001)  ploadbar=  1.01149409384072E+05
 cg2d: Sum(rhs),rhsMax =  -4.27825940819024E+01  1.62390549656447E+00
(PID.TID 0000.0001)  ploadbar=  1.01150632565562E+05
 cg2d: Sum(rhs),rhsMax =  -4.34123770909867E+01  1.59994418567654E+00
(PID.TID 0000.0001)  ploadbar=  1.01151855747052E+05
 cg2d: Sum(rhs),rhsMax =  -4.40616542006898E+01  1.57608250164002E+00
(PID.TID 0000.0001)  ploadbar=  1.01153078928542E+05
 cg2d: Sum(rhs),rhsMax =  -4.47152316112625E+01  1.55286587723053E+00
(PID.TID 0000.0001)  ploadbar=  1.01154302110032E+05
 cg2d: Sum(rhs),rhsMax =  -4.53589046781992E+01  1.53074473176891E+00
(PID.TID 0000.0001)  ploadbar=  1.01155525291521E+05
 cg2d: Sum(rhs),rhsMax =  -4.59850861077704E+01  1.50989975063802E+00
(PID.TID 0000.0001)  ploadbar=  1.01156748473011E+05
 cg2d: Sum(rhs),rhsMax =  -4.65843374734817E+01  1.49045270305255E+00
(PID.TID 0000.0001)  ploadbar=  1.01156512314979E+05
 cg2d: Sum(rhs),rhsMax =  -4.71747315342495E+01  1.47175228231349E+00
(PID.TID 0000.0001)  ploadbar=  1.01156276156947E+05
 cg2d: Sum(rhs),rhsMax =  -4.77537351110009E+01  1.45384296487794E+00
(PID.TID 0000.0001)  ploadbar=  1.01156039998915E+05
 cg2d: Sum(rhs),rhsMax =  -4.83367296631333E+01  1.43622648628265E+00
(PID.TID 0000.0001)  ploadbar=  1.01155803840883E+05
 cg2d: Sum(rhs),rhsMax =  -4.89342514667219E+01  1.41858457643305E+00
(PID.TID 0000.0001)  ploadbar=  1.01155567682851E+05
 cg2d: Sum(rhs),rhsMax =  -4.95442612558605E+01  1.40098964860650E+00
(PID.TID 0000.0001)  ploadbar=  1.01155331524819E+05
 cg2d: Sum(rhs),rhsMax =  -5.01497060089998E+01  1.38407531714188E+00
(PID.TID 0000.0001)  ploadbar=  1.01153876350117E+05
 cg2d: Sum(rhs),rhsMax =  -5.07822546876132E+01  1.36695596461571E+00
(PID.TID 0000.0001)  ploadbar=  1.01152421175416E+05
 cg2d: Sum(rhs),rhsMax =  -5.14219989061532E+01  1.35018744682216E+00
(PID.TID 0000.0001)  ploadbar=  1.01150966000714E+05
 cg2d: Sum(rhs),rhsMax =  -5.20838340096093E+01  1.33338108775599E+00
(PID.TID 0000.0001)  ploadbar=  1.01149510826013E+05
 cg2d: Sum(rhs),rhsMax =  -5.27659507165888E+01  1.31660138630635E+00
(PID.TID 0000.0001)  ploadbar=  1.01148055651311E+05
 cg2d: Sum(rhs),rhsMax =  -5.34684923808497E+01  1.29985857245354E+00
(PID.TID 0000.0001)  ploadbar=  1.01146600476610E+05
 cg2d: Sum(rhs),rhsMax =  -5.35184086898995E+01  1.29913279596064E+00
(PID.TID 0000.0001)  ploadbar=  1.01145950641015E+05
 cg2d: Sum(rhs),rhsMax =  -5.32933238098811E+01  1.30503512169184E+00
(PID.TID 0000.0001)  ploadbar=  1.01145300805421E+05
 cg2d: Sum(rhs),rhsMax =  -5.30611502536014E+01  1.31108671768610E+00
(PID.TID 0000.0001)  ploadbar=  1.01144650969826E+05
 cg2d: Sum(rhs),rhsMax =  -5.28195890185628E+01  1.31734459854567E+00
(PID.TID 0000.0001)  ploadbar=  1.01144001134232E+05
 cg2d: Sum(rhs),rhsMax =  -5.25715511028672E+01  1.32373593259174E+00
(PID.TID 0000.0001)  ploadbar=  1.01143351298637E+05
 cg2d: Sum(rhs),rhsMax =  -5.23195127260658E+01  1.33020233552200E+00
(PID.TID 0000.0001)  ploadbar=  1.01142701463043E+05
 cg2d: Sum(rhs),rhsMax =  -5.20714569049119E+01  1.33666341001867E+00
(PID.TID 0000.0001)  ploadbar=  1.01141542055132E+05
 cg2d: Sum(rhs),rhsMax =  -5.18308966928237E+01  1.34301044201966E+00
(PID.TID 0000.0001)  ploadbar=  1.01140382647221E+05
 cg2d: Sum(rhs),rhsMax =  -5.16113315455328E+01  1.34888292874288E+00
(PID.TID 0000.0001)  ploadbar=  1.01139223239310E+05
 cg2d: Sum(rhs),rhsMax =  -5.14116728825941E+01  1.35429060416564E+00
(PID.TID 0000.0001)  ploadbar=  1.01138063831400E+05
 cg2d: Sum(rhs),rhsMax =  -5.12331719315361E+01  1.35918202546579E+00
(PID.TID 0000.0001)  ploadbar=  1.01136904423489E+05
 cg2d: Sum(rhs),rhsMax =  -5.10784063696799E+01  1.36347268389873E+00
(PID.TID 0000.0001)  ploadbar=  1.01135745015578E+05
 cg2d: Sum(rhs),rhsMax =  -5.09575859590597E+01  1.36685614491716E+00
(PID.TID 0000.0001)  ploadbar=  1.01134984938961E+05
 cg2d: Sum(rhs),rhsMax =  -5.08470840918577E+01  1.36995296629933E+00
(PID.TID 0000.0001)  ploadbar=  1.01134224862345E+05
 cg2d: Sum(rhs),rhsMax =  -5.07485372402688E+01  1.37271264523582E+00
(PID.TID 0000.0001)  ploadbar=  1.01133464785728E+05
 cg2d: Sum(rhs),rhsMax =  -5.06583787837848E+01  1.37522554104815E+00
(PID.TID 0000.0001)  ploadbar=  1.01132704709111E+05
 cg2d: Sum(rhs),rhsMax =  -5.05747992053306E+01  1.37753223932069E+00
(PID.TID 0000.0001)  ploadbar=  1.01131944632495E+05
 cg2d: Sum(rhs),rhsMax =  -5.04941450656824E+01  1.37972426206460E+00
(PID.TID 0000.0001)  ploadbar=  1.01131184555878E+05
 cg2d: Sum(rhs),rhsMax =  -5.04398619222427E+01  1.38126858931395E+00
(PID.TID 0000.0001)  ploadbar=  1.01130477966648E+05
 cg2d: Sum(rhs),rhsMax =  -5.03993653893027E+01  1.38250141263122E+00
(PID.TID 0000.0001)  ploadbar=  1.01129771377418E+05
 cg2d: Sum(rhs),rhsMax =  -5.03625856840312E+01  1.38369078385760E+00
(PID.TID 0000.0001)  ploadbar=  1.01129064788188E+05
 cg2d: Sum(rhs),rhsMax =  -5.03322375404882E+01  1.38476142176229E+00
(PID.TID 0000.0001)  ploadbar=  1.01128358198959E+05
 cg2d: Sum(rhs),rhsMax =  -5.03086889701260E+01  1.38569752920351E+00
(PID.TID 0000.0001)  ploadbar=  1.01127651609729E+05
 cg2d: Sum(rhs),rhsMax =  -5.02904453773079E+01  1.38653231567087E+00
(PID.TID 0000.0001)  ploadbar=  1.01126945020499E+05
 cg2d: Sum(rhs),rhsMax =  -5.02730835261887E+01  1.38735052833821E+00
(PID.TID 0000.0001)  ploadbar=  1.01126154676232E+05
 cg2d: Sum(rhs),rhsMax =  -5.02631884634831E+01  1.38796900911157E+00
(PID.TID 0000.0001)  ploadbar=  1.01125364331966E+05
 cg2d: Sum(rhs),rhsMax =  -5.02518826141424E+01  1.38862652963954E+00
(PID.TID 0000.0001)  ploadbar=  1.01124573987699E+05
 cg2d: Sum(rhs),rhsMax =  -5.02409284508754E+01  1.38926743841794E+00
(PID.TID 0000.0001)  ploadbar=  1.01123783643433E+05
 cg2d: Sum(rhs),rhsMax =  -5.02310154810413E+01  1.38987082329957E+00
(PID.TID 0000.0001)  ploadbar=  1.01122993299166E+05
 cg2d: Sum(rhs),rhsMax =  -5.02213002808888E+01  1.39045688914771E+00
(PID.TID 0000.0001)  ploadbar=  1.01122202954899E+05
 cg2d: Sum(rhs),rhsMax =  -5.02000129378509E+01  1.39139931932860E+00
(PID.TID 0000.0001)  ploadbar=  1.01123286159355E+05
 cg2d: Sum(rhs),rhsMax =  -5.01813456382606E+01  1.39229618707527E+00
(PID.TID 0000.0001)  ploadbar=  1.01124369363810E+05
 cg2d: Sum(rhs),rhsMax =  -5.01689070447125E+01  1.39304185347709E+00
(PID.TID 0000.0001)  ploadbar=  1.01125452568265E+05
 cg2d: Sum(rhs),rhsMax =  -5.01604021252367E+01  1.39369650432883E+00
(PID.TID 0000.0001)  ploadbar=  1.01126535772720E+05
 cg2d: Sum(rhs),rhsMax =  -5.01539261323665E+01  1.39430517347712E+00
(PID.TID 0000.0001)  ploadbar=  1.01127618977175E+05
 cg2d: Sum(rhs),rhsMax =  -5.01481496716574E+01  1.39490086913360E+00
(PID.TID 0000.0001)  ploadbar=  1.01128702181630E+05
 cg2d: Sum(rhs),rhsMax =  -5.01432206642996E+01  1.39541507653453E+00
(PID.TID 0000.0001)  ploadbar=  1.01128641255743E+05
 cg2d: Sum(rhs),rhsMax =  -5.01327841431340E+01  1.39602122614261E+00
(PID.TID 0000.0001)  ploadbar=  1.01128580329855E+05
 cg2d: Sum(rhs),rhsMax =  -5.01258212289833E+01  1.39646602725366E+00
(PID.TID 0000.0001)  ploadbar=  1.01128519403968E+05
 cg2d: Sum(rhs),rhsMax =  -5.01233056333310E+01  1.39671750645364E+00
(PID.TID 0000.0001)  ploadbar=  1.01128458478080E+05
 cg2d: Sum(rhs),rhsMax =  -5.01249874347752E+01  1.39677723630662E+00
(PID.TID 0000.0001)  ploadbar=  1.01128397552193E+05
 cg2d: Sum(rhs),rhsMax =  -5.01319998249135E+01  1.39660838991171E+00
(PID.TID 0000.0001)  ploadbar=  1.01128336626305E+05
 cg2d: Sum(rhs),rhsMax =  -5.01589215578723E+01  1.39598343613412E+00
(PID.TID 0000.0001)  ploadbar=  1.01127092995537E+05
 cg2d: Sum(rhs),rhsMax =  -5.01981713343442E+01  1.39510766970881E+00
(PID.TID 0000.0001)  ploadbar=  1.01125849364769E+05
 cg2d: Sum(rhs),rhsMax =  -5.02470182047180E+01  1.39405533831904E+00
(PID.TID 0000.0001)  ploadbar=  1.01124605734002E+05
 cg2d: Sum(rhs),rhsMax =  -5.03076093929517E+01  1.39276483906357E+00
(PID.TID 0000.0001)  ploadbar=  1.01123362103234E+05
 cg2d: Sum(rhs),rhsMax =  -5.03805121421795E+01  1.39121874372471E+00
(PID.TID 0000.0001)  ploadbar=  1.01122118472466E+05
 cg2d: Sum(rhs),rhsMax =  -5.04646280350333E+01  1.38944381994440E+00
(PID.TID 0000.0001)  ploadbar=  1.01120874841698E+05
 cg2d: Sum(rhs),rhsMax =  -5.05533850921128E+01  1.38745875336641E+00
(PID.TID 0000.0001)  ploadbar=  1.01120529945993E+05
 cg2d: Sum(rhs),rhsMax =  -5.06477139698284E+01  1.38523340069106E+00
(PID.TID 0000.0001)  ploadbar=  1.01120185050288E+05
 cg2d: Sum(rhs),rhsMax =  -5.07416324792218E+01  1.38292814427608E+00
(PID.TID 0000.0001)  ploadbar=  1.01119840154583E+05
 cg2d: Sum(rhs),rhsMax =  -5.08346805099859E+01  1.38055160747334E+00
(PID.TID 0000.0001)  ploadbar=  1.01119495258879E+05
 cg2d: Sum(rhs),rhsMax =  -5.09283147681828E+01  1.37806014215446E+00
(PID.TID 0000.0001)  ploadbar=  1.01119150363174E+05
 cg2d: Sum(rhs),rhsMax =  -5.10234379831774E+01  1.37542779967611E+00
(PID.TID 0000.0001)  ploadbar=  1.01118805467469E+05
 cg2d: Sum(rhs),rhsMax =  -5.11146703840507E+01  1.37293899013442E+00
(PID.TID 0000.0001)  ploadbar=  1.01119754393709E+05
 cg2d: Sum(rhs),rhsMax =  -5.12110730988779E+01  1.37034579229331E+00
(PID.TID 0000.0001)  ploadbar=  1.01120703319948E+05
 cg2d: Sum(rhs),rhsMax =  -5.13084036825204E+01  1.36775866658533E+00
(PID.TID 0000.0001)  ploadbar=  1.01121652246188E+05
 cg2d: Sum(rhs),rhsMax =  -5.14026384833017E+01  1.36527902361822E+00
(PID.TID 0000.0001)  ploadbar=  1.01122601172427E+05
 cg2d: Sum(rhs),rhsMax =  -5.14919223657117E+01  1.36295087420861E+00
(PID.TID 0000.0001)  ploadbar=  1.01123550098667E+05
 cg2d: Sum(rhs),rhsMax =  -5.15752488485941E+01  1.36079555332547E+00
(PID.TID 0000.0001)  ploadbar=  1.01124499024906E+05
 cg2d: Sum(rhs),rhsMax =  -5.16508364989360E+01  1.35882388678218E+00
(PID.TID 0000.0001)  ploadbar=  1.01124334447983E+05
 cg2d: Sum(rhs),rhsMax =  -5.17191143654368E+01  1.35702191678591E+00
(PID.TID 0000.0001)  ploadbar=  1.01124169871059E+05
 cg2d: Sum(rhs),rhsMax =  -5.17810081858779E+01  1.35535951577339E+00
(PID.TID 0000.0001)  ploadbar=  1.01124005294136E+05
 cg2d: Sum(rhs),rhsMax =  -5.18354887625654E+01  1.35385968848572E+00
(PID.TID 0000.0001)  ploadbar=  1.01123840717212E+05
 cg2d: Sum(rhs),rhsMax =  -5.18820845077039E+01  1.35252863372282E+00
(PID.TID 0000.0001)  ploadbar=  1.01123676140289E+05
 cg2d: Sum(rhs),rhsMax =  -5.19209544649615E+01  1.35135860444124E+00
(PID.TID 0000.0001)  ploadbar=  1.01123511563365E+05
 cg2d: Sum(rhs),rhsMax =  -5.19543152194653E+01  1.35040416049519E+00
(PID.TID 0000.0001)  ploadbar=  1.01123905361710E+05
 cg2d: Sum(rhs),rhsMax =  -5.19818503670887E+01  1.34967024975634E+00
(PID.TID 0000.0001)  ploadbar=  1.01124299160055E+05
 cg2d: Sum(rhs),rhsMax =  -5.20031910466672E+01  1.34916371248410E+00
(PID.TID 0000.0001)  ploadbar=  1.01124692958400E+05
 cg2d: Sum(rhs),rhsMax =  -5.20180350001321E+01  1.34888910110904E+00
(PID.TID 0000.0001)  ploadbar=  1.01125086756745E+05
 cg2d: Sum(rhs),rhsMax =  -5.20259977257073E+01  1.34885418408880E+00
(PID.TID 0000.0001)  ploadbar=  1.01125480555090E+05
 cg2d: Sum(rhs),rhsMax =  -5.20269192349233E+01  1.34905413270762E+00
(PID.TID 0000.0001)  ploadbar=  1.01125874353434E+05
 cg2d: Sum(rhs),rhsMax =  -5.20187491738731E+01  1.34941944715437E+00
(PID.TID 0000.0001)  ploadbar=  1.01125293874217E+05
 cg2d: Sum(rhs),rhsMax =  -5.19972943761136E+01  1.35005966281172E+00
(PID.TID 0000.0001)  ploadbar=  1.01124713394999E+05
 cg2d: Sum(rhs),rhsMax =  -5.19640989346779E+01  1.35093070699560E+00
(PID.TID 0000.0001)  ploadbar=  1.01124132915782E+05
 cg2d: Sum(rhs),rhsMax =  -5.19217700079410E+01  1.35196263082313E+00
(PID.TID 0000.0001)  ploadbar=  1.01123552436565E+05
 cg2d: Sum(rhs),rhsMax =  -5.18696246143666E+01  1.35317267785502E+00
(PID.TID 0000.0001)  ploadbar=  1.01122971957347E+05
 cg2d: Sum(rhs),rhsMax =  -5.18069633302288E+01  1.35458002101881E+00
(PID.TID 0000.0001)  ploadbar=  1.01122391478130E+05
 cg2d: Sum(rhs),rhsMax =  -5.17429049652689E+01  1.35606135815371E+00
(PID.TID 0000.0001)  ploadbar=  1.01121739328463E+05
 cg2d: Sum(rhs),rhsMax =  -5.16724799763121E+01  1.35773559033258E+00
(PID.TID 0000.0001)  ploadbar=  1.01121087178796E+05
 cg2d: Sum(rhs),rhsMax =  -5.15986560160978E+01  1.35952003351915E+00
(PID.TID 0000.0001)  ploadbar=  1.01120435029129E+05
 cg2d: Sum(rhs),rhsMax =  -5.15223343077092E+01  1.36138714876671E+00
(PID.TID 0000.0001)  ploadbar=  1.01119782879462E+05
 cg2d: Sum(rhs),rhsMax =  -5.14433626241486E+01  1.36334122427568E+00
(PID.TID 0000.0001)  ploadbar=  1.01119130729795E+05
 cg2d: Sum(rhs),rhsMax =  -5.13616264007492E+01  1.36538371029342E+00
(PID.TID 0000.0001)  ploadbar=  1.01118478580128E+05
 cg2d: Sum(rhs),rhsMax =  -5.12849521113822E+01  1.36727138493606E+00
(PID.TID 0000.0001)  ploadbar=  1.01118435262920E+05
 cg2d: Sum(rhs),rhsMax =  -5.12071677636946E+01  1.36916502913825E+00
(PID.TID 0000.0001)  ploadbar=  1.01118391945713E+05
 cg2d: Sum(rhs),rhsMax =  -5.11353621846323E+01  1.37087722794697E+00
(PID.TID 0000.0001)  ploadbar=  1.01118348628506E+05
 cg2d: Sum(rhs),rhsMax =  -5.10680786009258E+01  1.37244266013566E+00
(PID.TID 0000.0001)  ploadbar=  1.01118305311299E+05
 cg2d: Sum(rhs),rhsMax =  -5.10001594572703E+01  1.37399692537753E+00
(PID.TID 0000.0001)  ploadbar=  1.01118261994091E+05
 cg2d: Sum(rhs),rhsMax =  -5.09343992851661E+01  1.37546153006851E+00
(PID.TID 0000.0001)  ploadbar=  1.01118218676884E+05
 cg2d: Sum(rhs),rhsMax =  -5.08789728895299E+01  1.37672646031585E+00
(PID.TID 0000.0001)  ploadbar=  1.01118335184130E+05
 cg2d: Sum(rhs),rhsMax =  -5.08334051745564E+01  1.37779667477102E+00
(PID.TID 0000.0001)  ploadbar=  1.01118451691376E+05
 cg2d: Sum(rhs),rhsMax =  -5.07996793605323E+01  1.37861418265918E+00
(PID.TID 0000.0001)  ploadbar=  1.01118568198621E+05
 cg2d: Sum(rhs),rhsMax =  -5.07768021655547E+01  1.37919972190160E+00
(PID.TID 0000.0001)  ploadbar=  1.01118684705867E+05
 cg2d: Sum(rhs),rhsMax =  -5.07651586710485E+01  1.37953651332399E+00
(PID.TID 0000.0001)  ploadbar=  1.01118801213112E+05
 cg2d: Sum(rhs),rhsMax =  -5.07757410105925E+01  1.37932084841117E+00
(PID.TID 0000.0001)  ploadbar=  1.01118917720358E+05
 cg2d: Sum(rhs),rhsMax =  -5.07905706064876E+01  1.37896935590351E+00
(PID.TID 0000.0001)  ploadbar=  1.01117617047691E+05
 cg2d: Sum(rhs),rhsMax =  -5.08114714762036E+01  1.37842920787813E+00
(PID.TID 0000.0001)  ploadbar=  1.01116316375024E+05
 cg2d: Sum(rhs),rhsMax =  -5.08395223950734E+01  1.37766748917390E+00
(PID.TID 0000.0001)  ploadbar=  1.01115015702357E+05
 cg2d: Sum(rhs),rhsMax =  -5.08735775099482E+01  1.37671572530494E+00
(PID.TID 0000.0001)  ploadbar=  1.01113715029690E+05
 cg2d: Sum(rhs),rhsMax =  -5.09127217955051E+01  1.37560147551914E+00
(PID.TID 0000.0001)  ploadbar=  1.01112414357022E+05
 cg2d: Sum(rhs),rhsMax =  -5.09550797981009E+01  1.37437830194127E+00
(PID.TID 0000.0001)  ploadbar=  1.01111113684355E+05
 cg2d: Sum(rhs),rhsMax =  -5.09854060895007E+01  1.37351100168565E+00
(PID.TID 0000.0001)  ploadbar=  1.01111610353229E+05
 cg2d: Sum(rhs),rhsMax =  -5.10210701865044E+01  1.37251620618214E+00
(PID.TID 0000.0001)  ploadbar=  1.01112107022104E+05
 cg2d: Sum(rhs),rhsMax =  -5.10554836359190E+01  1.37156954179513E+00
(PID.TID 0000.0001)  ploadbar=  1.01112603690978E+05
 cg2d: Sum(rhs),rhsMax =  -5.10909612349558E+01  1.37060272822107E+00
(PID.TID 0000.0001)  ploadbar=  1.01113100359852E+05
 cg2d: Sum(rhs),rhsMax =  -5.11296675818400E+01  1.36955534474056E+00
(PID.TID 0000.0001)  ploadbar=  1.01113597028726E+05
 cg2d: Sum(rhs),rhsMax =  -5.11726388680400E+01  1.36840297701176E+00
(PID.TID 0000.0001)  ploadbar=  1.01114093697600E+05
 cg2d: Sum(rhs),rhsMax =  -5.12137613579353E+01  1.36726951241442E+00
(PID.TID 0000.0001)  ploadbar=  1.01113462104740E+05
 cg2d: Sum(rhs),rhsMax =  -5.12583324340579E+01  1.36601111875494E+00
(PID.TID 0000.0001)  ploadbar=  1.01112830511879E+05
 cg2d: Sum(rhs),rhsMax =  -5.13032794116758E+01  1.36470913368016E+00
(PID.TID 0000.0001)  ploadbar=  1.01112198919019E+05
 cg2d: Sum(rhs),rhsMax =  -5.13470752311624E+01  1.36340414910255E+00
(PID.TID 0000.0001)  ploadbar=  1.01111567326158E+05
 cg2d: Sum(rhs),rhsMax =  -5.13898231591093E+01  1.36209324265703E+00
(PID.TID 0000.0001)  ploadbar=  1.01110935733298E+05
 cg2d: Sum(rhs),rhsMax =  -5.14312834309703E+01  1.36077378551877E+00
(PID.TID 0000.0001)  ploadbar=  1.01110304140438E+05
 cg2d: Sum(rhs),rhsMax =  -5.14921297467671E+01  1.35902595271150E+00
(PID.TID 0000.0001)  ploadbar=  1.01108969515746E+05
 cg2d: Sum(rhs),rhsMax =  -5.15580618456973E+01  1.35722191296274E+00
(PID.TID 0000.0001)  ploadbar=  1.01107634891053E+05
 cg2d: Sum(rhs),rhsMax =  -5.16260630623259E+01  1.35543614152817E+00
(PID.TID 0000.0001)  ploadbar=  1.01106300266361E+05
 cg2d: Sum(rhs),rhsMax =  -5.16963889564488E+01  1.35365480220187E+00
(PID.TID 0000.0001)  ploadbar=  1.01104965641669E+05
 cg2d: Sum(rhs),rhsMax =  -5.17694878605574E+01  1.35186246275552E+00
(PID.TID 0000.0001)  ploadbar=  1.01103631016977E+05
 cg2d: Sum(rhs),rhsMax =  -5.18447841249116E+01  1.35006613996592E+00
(PID.TID 0000.0001)  ploadbar=  1.01102296392285E+05
 cg2d: Sum(rhs),rhsMax =  -5.19079218212718E+01  1.34859355425572E+00
(PID.TID 0000.0001)  ploadbar=  1.01101055666235E+05
 cg2d: Sum(rhs),rhsMax =  -5.19629752756791E+01  1.34733156280000E+00
(PID.TID 0000.0001)  ploadbar=  1.01099814940186E+05
 cg2d: Sum(rhs),rhsMax =  -5.20024745608926E+01  1.34646987333826E+00
(PID.TID 0000.0001)  ploadbar=  1.01098574214137E+05
 cg2d: Sum(rhs),rhsMax =  -5.20281190352831E+01  1.34596497443093E+00
(PID.TID 0000.0001)  ploadbar=  1.01097333488087E+05
 cg2d: Sum(rhs),rhsMax =  -5.20463073197752E+01  1.34565609480427E+00
(PID.TID 0000.0001)  ploadbar=  1.01096092762038E+05
 cg2d: Sum(rhs),rhsMax =  -5.20675851963726E+01  1.34526868519880E+00
(PID.TID 0000.0001)  ploadbar=  1.01094852035988E+05
 cg2d: Sum(rhs),rhsMax =  -5.20803217645690E+01  1.34515588844355E+00
(PID.TID 0000.0001)  ploadbar=  1.01094569466423E+05
 cg2d: Sum(rhs),rhsMax =  -5.20977994271824E+01  1.34496167425364E+00
(PID.TID 0000.0001)  ploadbar=  1.01094286896857E+05
 cg2d: Sum(rhs),rhsMax =  -5.21294976755861E+01  1.34443788874203E+00
(PID.TID 0000.0001)  ploadbar=  1.01094004327291E+05
 cg2d: Sum(rhs),rhsMax =  -5.21755911893701E+01  1.34357851038119E+00
(PID.TID 0000.0001)  ploadbar=  1.01093721757726E+05
 cg2d: Sum(rhs),rhsMax =  -5.22297214976654E+01  1.34254713231076E+00
(PID.TID 0000.0001)  ploadbar=  1.01093439188160E+05
 cg2d: Sum(rhs),rhsMax =  -5.22879577963579E+01  1.34144293475477E+00
(PID.TID 0000.0001)  ploadbar=  1.01093156618594E+05
 cg2d: Sum(rhs),rhsMax =  -5.23609646656406E+01  1.33993842350403E+00
(PID.TID 0000.0001)  ploadbar=  1.01092282058910E+05
 cg2d: Sum(rhs),rhsMax =  -5.24313629909070E+01  1.33847779844490E+00
(PID.TID 0000.0001)  ploadbar=  1.01091407499225E+05
 cg2d: Sum(rhs),rhsMax =  -5.25027304878982E+01  1.33696972150364E+00
(PID.TID 0000.0001)  ploadbar=  1.01090532939541E+05
 cg2d: Sum(rhs),rhsMax =  -5.25723310432826E+01  1.33548276783038E+00
(PID.TID 0000.0001)  ploadbar=  1.01089658379856E+05
 cg2d: Sum(rhs),rhsMax =  -5.26381601745404E+01  1.33406394578313E+00
(PID.TID 0000.0001)  ploadbar=  1.01088783820172E+05
 cg2d: Sum(rhs),rhsMax =  -5.26996903490043E+01  1.33272228754523E+00
(PID.TID 0000.0001)  ploadbar=  1.01087909260487E+05
 cg2d: Sum(rhs),rhsMax =  -5.27805382716060E+01  1.33096798298000E+00
(PID.TID 0000.0001)  ploadbar=  1.01087889430784E+05
 cg2d: Sum(rhs),rhsMax =  -5.28722210390893E+01  1.32901292635818E+00
(PID.TID 0000.0001)  ploadbar=  1.01087869601081E+05
 cg2d: Sum(rhs),rhsMax =  -5.29675981301375E+01  1.32703257883299E+00
(PID.TID 0000.0001)  ploadbar=  1.01087849771378E+05
 cg2d: Sum(rhs),rhsMax =  -5.30702002430955E+01  1.32493411938840E+00
(PID.TID 0000.0001)  ploadbar=  1.01087829941675E+05
 cg2d: Sum(rhs),rhsMax =  -5.31801938571659E+01  1.32271161053884E+00
(PID.TID 0000.0001)  ploadbar=  1.01087810111972E+05
 cg2d: Sum(rhs),rhsMax =  -5.32960584903416E+01  1.32040266477122E+00
(PID.TID 0000.0001)  ploadbar=  1.01087790282268E+05
 cg2d: Sum(rhs),rhsMax =  -5.34092262808205E+01  1.31814437198376E+00
(PID.TID 0000.0001)  ploadbar=  1.01087577088551E+05
 cg2d: Sum(rhs),rhsMax =  -5.35169320638152E+01  1.31600355512317E+00
(PID.TID 0000.0001)  ploadbar=  1.01087363894833E+05
 cg2d: Sum(rhs),rhsMax =  -5.36202782848556E+01  1.31395233814054E+00
(PID.TID 0000.0001)  ploadbar=  1.01087150701116E+05
 cg2d: Sum(rhs),rhsMax =  -5.37192077501456E+01  1.31198981691456E+00
(PID.TID 0000.0001)  ploadbar=  1.01086937507398E+05
 cg2d: Sum(rhs),rhsMax =  -5.38127490206440E+01  1.31014130703150E+00
(PID.TID 0000.0001)  ploadbar=  1.01086724313681E+05
 cg2d: Sum(rhs),rhsMax =  -5.39006160950796E+01  1.30841391571913E+00
(PID.TID 0000.0001)  ploadbar=  1.01086511119963E+05
 cg2d: Sum(rhs),rhsMax =  -5.39825343878860E+01  1.30685207097869E+00
(PID.TID 0000.0001)  ploadbar=  1.01086662358759E+05
 cg2d: Sum(rhs),rhsMax =  -5.40570244751012E+01  1.30547846400351E+00
(PID.TID 0000.0001)  ploadbar=  1.01086813597554E+05
 cg2d: Sum(rhs),rhsMax =  -5.41279990121534E+01  1.30419569627267E+00
(PID.TID 0000.0001)  ploadbar=  1.01086964836350E+05
 cg2d: Sum(rhs),rhsMax =  -5.41957983713292E+01  1.30298942423053E+00
(PID.TID 0000.0001)  ploadbar=  1.01087116075145E+05
 cg2d: Sum(rhs),rhsMax =  -5.42586387574991E+01  1.30189726411931E+00
(PID.TID 0000.0001)  ploadbar=  1.01087267313941E+05
 cg2d: Sum(rhs),rhsMax =  -5.43152892773315E+01  1.30094506723341E+00
(PID.TID 0000.0001)  ploadbar=  1.01087418552736E+05
 cg2d: Sum(rhs),rhsMax =  -5.43539541771708E+01  1.30035677203631E+00
(PID.TID 0000.0001)  ploadbar=  1.01086925843731E+05
 cg2d: Sum(rhs),rhsMax =  -5.43744822545619E+01  1.30013410418100E+00
(PID.TID 0000.0001)  ploadbar=  1.01086433134726E+05
 cg2d: Sum(rhs),rhsMax =  -5.43804639055506E+01  1.30019486630509E+00
(PID.TID 0000.0001)  ploadbar=  1.01085940425721E+05
 cg2d: Sum(rhs),rhsMax =  -5.43700722484778E+01  1.30058192492349E+00
(PID.TID 0000.0001)  ploadbar=  1.01085447716715E+05
 cg2d: Sum(rhs),rhsMax =  -5.43438867395674E+01  1.30128105592454E+00
(PID.TID 0000.0001)  ploadbar=  1.01084955007710E+05
 cg2d: Sum(rhs),rhsMax =  -5.43017853355733E+01  1.30229334157656E+00
(PID.TID 0000.0001)  ploadbar=  1.01084462298705E+05
 cg2d: Sum(rhs),rhsMax =  -5.42617839152451E+01  1.30332655959370E+00
(PID.TID 0000.0001)  ploadbar=  1.01085652597166E+05
 cg2d: Sum(rhs),rhsMax =  -5.42282121150913E+01  1.30427147426665E+00
(PID.TID 0000.0001)  ploadbar=  1.01086842895626E+05
 cg2d: Sum(rhs),rhsMax =  -5.42078665137319E+01  1.30495913315430E+00
(PID.TID 0000.0001)  ploadbar=  1.01088033194087E+05
 cg2d: Sum(rhs),rhsMax =  -5.41995296470008E+01  1.30541442204616E+00
(PID.TID 0000.0001)  ploadbar=  1.01089223492547E+05
 cg2d: Sum(rhs),rhsMax =  -5.42020954634025E+01  1.30565949601812E+00
(PID.TID 0000.0001)  ploadbar=  1.01090413791008E+05
 cg2d: Sum(rhs),rhsMax =  -5.42143036404865E+01  1.30572374741620E+00
(PID.TID 0000.0001)  ploadbar=  1.01091604089469E+05
 cg2d: Sum(rhs),rhsMax =  -5.42313840291434E+01  1.30564251147765E+00
(PID.TID 0000.0001)  ploadbar=  1.01092146991045E+05
 cg2d: Sum(rhs),rhsMax =  -5.42483272806094E+01  1.30553839602386E+00
(PID.TID 0000.0001)  ploadbar=  1.01092689892622E+05
 cg2d: Sum(rhs),rhsMax =  -5.42646878511681E+01  1.30542647223955E+00
(PID.TID 0000.0001)  ploadbar=  1.01093232794198E+05
 cg2d: Sum(rhs),rhsMax =  -5.42790736154654E+01  1.30534300717304E+00
(PID.TID 0000.0001)  ploadbar=  1.01093775695775E+05
 cg2d: Sum(rhs),rhsMax =  -5.42930546422723E+01  1.30524811285866E+00
(PID.TID 0000.0001)  ploadbar=  1.01094318597351E+05
 cg2d: Sum(rhs),rhsMax =  -5.43094783760250E+01  1.30507594712264E+00
(PID.TID 0000.0001)  ploadbar=  1.01094861498928E+05
 cg2d: Sum(rhs),rhsMax =  -5.43334194042680E+01  1.30473563873986E+00
(PID.TID 0000.0001)  ploadbar=  1.01095396221748E+05
 cg2d: Sum(rhs),rhsMax =  -5.43681710875020E+01  1.30414040287489E+00
(PID.TID 0000.0001)  ploadbar=  1.01095930944568E+05
 cg2d: Sum(rhs),rhsMax =  -5.44097095500378E+01  1.30338493568748E+00
(PID.TID 0000.0001)  ploadbar=  1.01096465667388E+05
 cg2d: Sum(rhs),rhsMax =  -5.44576802923113E+01  1.30247281146607E+00
(PID.TID 0000.0001)  ploadbar=  1.01097000390208E+05
 cg2d: Sum(rhs),rhsMax =  -5.45149673960910E+01  1.30133229492447E+00
(PID.TID 0000.0001)  ploadbar=  1.01097535113028E+05
 cg2d: Sum(rhs),rhsMax =  -5.45819638623796E+01  1.29995314883468E+00
(PID.TID 0000.0001)  ploadbar=  1.01098069835848E+05
 cg2d: Sum(rhs),rhsMax =  -5.46427051926939E+01  1.29865653289598E+00
(PID.TID 0000.0001)  ploadbar=  1.01098097603229E+05
 cg2d: Sum(rhs),rhsMax =  -5.47051776683388E+01  1.29724990211510E+00
(PID.TID 0000.0001)  ploadbar=  1.01098125370610E+05
 cg2d: Sum(rhs),rhsMax =  -5.47683866495527E+01  1.29575952059009E+00
(PID.TID 0000.0001)  ploadbar=  1.01098153137991E+05
 cg2d: Sum(rhs),rhsMax =  -5.48324644329533E+01  1.29418514507270E+00
(PID.TID 0000.0001)  ploadbar=  1.01098180905372E+05
 cg2d: Sum(rhs),rhsMax =  -5.48971312961250E+01  1.29253308629117E+00
(PID.TID 0000.0001)  ploadbar=  1.01098208672753E+05
 cg2d: Sum(rhs),rhsMax =  -5.49613651929099E+01  1.29082524974598E+00
(PID.TID 0000.0001)  ploadbar=  1.01098236440134E+05
 cg2d: Sum(rhs),rhsMax =  -5.50192016811456E+01  1.28933857079443E+00
(PID.TID 0000.0001)  ploadbar=  1.01098459720794E+05
 cg2d: Sum(rhs),rhsMax =  -5.50785368850246E+01  1.28788292969642E+00
(PID.TID 0000.0001)  ploadbar=  1.01098683001455E+05
 cg2d: Sum(rhs),rhsMax =  -5.51409716122775E+01  1.28641474655961E+00
(PID.TID 0000.0001)  ploadbar=  1.01098906282115E+05
 cg2d: Sum(rhs),rhsMax =  -5.52057183217079E+01  1.28494609963170E+00
(PID.TID 0000.0001)  ploadbar=  1.01099129562775E+05
 cg2d: Sum(rhs),rhsMax =  -5.52721118244566E+01  1.28349006950728E+00
(PID.TID 0000.0001)  ploadbar=  1.01099352843436E+05
 cg2d: Sum(rhs),rhsMax =  -5.53393990047735E+01  1.28205980177464E+00
(PID.TID 0000.0001)  ploadbar=  1.01099576124096E+05
 cg2d: Sum(rhs),rhsMax =  -5.54138072529042E+01  1.28046601571349E+00
(PID.TID 0000.0001)  ploadbar=  1.01100041516929E+05
 cg2d: Sum(rhs),rhsMax =  -5.54884370901981E+01  1.27887074258528E+00
(PID.TID 0000.0001)  ploadbar=  1.01100506909762E+05
 cg2d: Sum(rhs),rhsMax =  -5.55630999718391E+01  1.27728022073403E+00
(PID.TID 0000.0001)  ploadbar=  1.01100972302595E+05
 cg2d: Sum(rhs),rhsMax =  -5.56393974927436E+01  1.27566331119348E+00
(PID.TID 0000.0001)  ploadbar=  1.01101437695428E+05
 cg2d: Sum(rhs),rhsMax =  -5.57176542696889E+01  1.27401501757392E+00
(PID.TID 0000.0001)  ploadbar=  1.01101903088261E+05
 cg2d: Sum(rhs),rhsMax =  -5.57976898467468E+01  1.27233984401496E+00
(PID.TID 0000.0001)  ploadbar=  1.01102368481094E+05
 cg2d: Sum(rhs),rhsMax =  -5.58858741206270E+01  1.27052348486658E+00
(PID.TID 0000.0001)  ploadbar=  1.01104177464967E+05
 cg2d: Sum(rhs),rhsMax =  -5.59799514978509E+01  1.26861212530839E+00
(PID.TID 0000.0001)  ploadbar=  1.01105986448840E+05
 cg2d: Sum(rhs),rhsMax =  -5.60750144803570E+01  1.26671416370482E+00
(PID.TID 0000.0001)  ploadbar=  1.01107795432713E+05
 cg2d: Sum(rhs),rhsMax =  -5.61713828842857E+01  1.26482021521727E+00
(PID.TID 0000.0001)  ploadbar=  1.01109604416585E+05
 cg2d: Sum(rhs),rhsMax =  -5.62700158049357E+01  1.26290609702000E+00
(PID.TID 0000.0001)  ploadbar=  1.01111413400458E+05
 cg2d: Sum(rhs),rhsMax =  -5.63711109264737E+01  1.26096426544977E+00
(PID.TID 0000.0001)  ploadbar=  1.01113222384331E+05
 cg2d: Sum(rhs),rhsMax =  -5.64809337669687E+01  1.25880899585604E+00
(PID.TID 0000.0001)  ploadbar=  1.01113846226508E+05
 cg2d: Sum(rhs),rhsMax =  -5.65934397922104E+01  1.25657770910460E+00
(PID.TID 0000.0001)  ploadbar=  1.01114470068685E+05
 cg2d: Sum(rhs),rhsMax =  -5.67068854123055E+01  1.25431129914982E+00
(PID.TID 0000.0001)  ploadbar=  1.01115093910862E+05
 cg2d: Sum(rhs),rhsMax =  -5.68221614110589E+01  1.25198864787182E+00
(PID.TID 0000.0001)  ploadbar=  1.01115717753039E+05
 cg2d: Sum(rhs),rhsMax =  -5.69397639744710E+01  1.24959792860154E+00
(PID.TID 0000.0001)  ploadbar=  1.01116341595216E+05
 cg2d: Sum(rhs),rhsMax =  -5.70600504550571E+01  1.24713152448709E+00
(PID.TID 0000.0001)  ploadbar=  1.01116965437393E+05
 cg2d: Sum(rhs),rhsMax =  -5.71755572384891E+01  1.24482428799084E+00
(PID.TID 0000.0001)  ploadbar=  1.01116356365828E+05
 cg2d: Sum(rhs),rhsMax =  -5.72956888198399E+01  1.24246564167032E+00
(PID.TID 0000.0001)  ploadbar=  1.01115747294262E+05
 cg2d: Sum(rhs),rhsMax =  -5.74190629966375E+01  1.24007910034283E+00
(PID.TID 0000.0001)  ploadbar=  1.01115138222696E+05
 cg2d: Sum(rhs),rhsMax =  -5.75460866260921E+01  1.23765082039816E+00
(PID.TID 0000.0001)  ploadbar=  1.01114529151131E+05
 cg2d: Sum(rhs),rhsMax =  -5.76770192745347E+01  1.23517279024660E+00
(PID.TID 0000.0001)  ploadbar=  1.01113920079565E+05
 cg2d: Sum(rhs),rhsMax =  -5.78112631394566E+01  1.23265653287111E+00
(PID.TID 0000.0001)  ploadbar=  1.01113311008000E+05
 cg2d: Sum(rhs),rhsMax =  -5.79513152778871E+01  1.23003172738536E+00
(PID.TID 0000.0001)  ploadbar=  1.01113924325722E+05
 cg2d: Sum(rhs),rhsMax =  -5.80931163682084E+01  1.22738435991510E+00
(PID.TID 0000.0001)  ploadbar=  1.01114537643445E+05
 cg2d: Sum(rhs),rhsMax =  -5.82363717238725E+01  1.22472048964623E+00
(PID.TID 0000.0001)  ploadbar=  1.01115150961167E+05
 cg2d: Sum(rhs),rhsMax =  -5.83813275966486E+01  1.22203323006709E+00
(PID.TID 0000.0001)  ploadbar=  1.01115764278890E+05
 cg2d: Sum(rhs),rhsMax =  -5.85273839212134E+01  1.21933410233631E+00
(PID.TID 0000.0001)  ploadbar=  1.01116377596613E+05
 cg2d: Sum(rhs),rhsMax =  -5.86738802540409E+01  1.21663584290096E+00
(PID.TID 0000.0001)  ploadbar=  1.01116990914335E+05
 cg2d: Sum(rhs),rhsMax =  -5.88192223403469E+01  1.21396334418556E+00
(PID.TID 0000.0001)  ploadbar=  1.01118610553216E+05
 cg2d: Sum(rhs),rhsMax =  -5.89630358943524E+01  1.21131067776821E+00
(PID.TID 0000.0001)  ploadbar=  1.01120230192097E+05
 cg2d: Sum(rhs),rhsMax =  -5.91030846325919E+01  1.20872271795889E+00
(PID.TID 0000.0001)  ploadbar=  1.01121849830978E+05
 cg2d: Sum(rhs),rhsMax =  -5.92408000451467E+01  1.20616494487208E+00
(PID.TID 0000.0001)  ploadbar=  1.01123469469859E+05
 cg2d: Sum(rhs),rhsMax =  -5.93769852988035E+01  1.20361808471962E+00
(PID.TID 0000.0001)  ploadbar=  1.01125089108740E+05
 cg2d: Sum(rhs),rhsMax =  -5.95120730761076E+01  1.20107170867688E+00
(PID.TID 0000.0001)  ploadbar=  1.01126708747621E+05
 cg2d: Sum(rhs),rhsMax =  -5.96425830654845E+01  1.19858877306237E+00
(PID.TID 0000.0001)  ploadbar=  1.01126895798885E+05
 cg2d: Sum(rhs),rhsMax =  -5.97691640849210E+01  1.19615789714569E+00
(PID.TID 0000.0001)  ploadbar=  1.01127082850150E+05
 cg2d: Sum(rhs),rhsMax =  -5.98947742810762E+01  1.19372133774440E+00
(PID.TID 0000.0001)  ploadbar=  1.01127269901414E+05
 cg2d: Sum(rhs),rhsMax =  -6.00181761947797E+01  1.19129987725897E+00
(PID.TID 0000.0001)  ploadbar=  1.01127456952678E+05
 cg2d: Sum(rhs),rhsMax =  -6.01398575014164E+01  1.18888438037609E+00
(PID.TID 0000.0001)  ploadbar=  1.01127644003943E+05
 cg2d: Sum(rhs),rhsMax =  -6.02607525633097E+01  1.18645362619785E+00
(PID.TID 0000.0001)  ploadbar=  1.01127831055207E+05
 cg2d: Sum(rhs),rhsMax =  -6.03840925404008E+01  1.18404860597933E+00
(PID.TID 0000.0001)  ploadbar=  1.01128326962921E+05
 cg2d: Sum(rhs),rhsMax =  -6.05107156385125E+01  1.18164571697555E+00
(PID.TID 0000.0001)  ploadbar=  1.01128822870634E+05
 cg2d: Sum(rhs),rhsMax =  -6.06398648391812E+01  1.17925392678036E+00
(PID.TID 0000.0001)  ploadbar=  1.01129318778348E+05
 cg2d: Sum(rhs),rhsMax =  -6.07708457102744E+01  1.17688185839573E+00
(PID.TID 0000.0001)  ploadbar=  1.01129814686061E+05
 cg2d: Sum(rhs),rhsMax =  -6.09037753377050E+01  1.17453078517572E+00
(PID.TID 0000.0001)  ploadbar=  1.01130310593775E+05
 cg2d: Sum(rhs),rhsMax =  -6.10376408670092E+01  1.17221983207935E+00
(PID.TID 0000.0001)  ploadbar=  1.01130806501488E+05
 cg2d: Sum(rhs),rhsMax =  -6.11696060218646E+01  1.16999166698960E+00
(PID.TID 0000.0001)  ploadbar=  1.01130469125908E+05
 cg2d: Sum(rhs),rhsMax =  -6.12983786230292E+01  1.16786883754581E+00
(PID.TID 0000.0001)  ploadbar=  1.01130131750328E+05
 cg2d: Sum(rhs),rhsMax =  -6.14251837846026E+01  1.16582915359276E+00
(PID.TID 0000.0001)  ploadbar=  1.01129794374747E+05
 cg2d: Sum(rhs),rhsMax =  -6.15502071256653E+01  1.16386450171207E+00
(PID.TID 0000.0001)  ploadbar=  1.01129456999167E+05
 cg2d: Sum(rhs),rhsMax =  -6.16737432349644E+01  1.16196375187975E+00
(PID.TID 0000.0001)  ploadbar=  1.01129119623587E+05
 cg2d: Sum(rhs),rhsMax =  -6.17960629426191E+01  1.16011981633809E+00
(PID.TID 0000.0001)  ploadbar=  1.01128782248007E+05
 cg2d: Sum(rhs),rhsMax =  -6.19202152034842E+01  1.15821246120030E+00
(PID.TID 0000.0001)  ploadbar=  1.01128775944982E+05
 cg2d: Sum(rhs),rhsMax =  -6.20425216032630E+01  1.15630285019840E+00
(PID.TID 0000.0001)  ploadbar=  1.01128769641957E+05
 cg2d: Sum(rhs),rhsMax =  -6.21609141141718E+01  1.15442764079533E+00
(PID.TID 0000.0001)  ploadbar=  1.01128763338932E+05
 cg2d: Sum(rhs),rhsMax =  -6.22752428075165E+01  1.15258597230884E+00
(PID.TID 0000.0001)  ploadbar=  1.01128757035907E+05
 cg2d: Sum(rhs),rhsMax =  -6.23849126512560E+01  1.15078702678477E+00
(PID.TID 0000.0001)  ploadbar=  1.01128750732882E+05
 cg2d: Sum(rhs),rhsMax =  -6.24904962310465E+01  1.14902219785465E+00
(PID.TID 0000.0001)  ploadbar=  1.01128744429857E+05
 cg2d: Sum(rhs),rhsMax =  -6.25924485669263E+01  1.14729126398629E+00
(PID.TID 0000.0001)  ploadbar=  1.01128783070213E+05
 cg2d: Sum(rhs),rhsMax =  -6.26875684784458E+01  1.14565319321715E+00
(PID.TID 0000.0001)  ploadbar=  1.01128821710570E+05
 cg2d: Sum(rhs),rhsMax =  -6.27793462564053E+01  1.14404329382970E+00
(PID.TID 0000.0001)  ploadbar=  1.01128860350926E+05
 cg2d: Sum(rhs),rhsMax =  -6.28677000076498E+01  1.14246033676103E+00
(PID.TID 0000.0001)  ploadbar=  1.01128898991283E+05
 cg2d: Sum(rhs),rhsMax =  -6.29516918472496E+01  1.14091882988696E+00
(PID.TID 0000.0001)  ploadbar=  1.01128937631639E+05
 cg2d: Sum(rhs),rhsMax =  -6.30314403703673E+01  1.13941733602164E+00
(PID.TID 0000.0001)  ploadbar=  1.01128976271996E+05
 cg2d: Sum(rhs),rhsMax =  -6.31070190241995E+01  1.13803827372307E+00
(PID.TID 0000.0001)  ploadbar=  1.01130213066014E+05
 cg2d: Sum(rhs),rhsMax =  -6.31817871679877E+01  1.13671478567470E+00
(PID.TID 0000.0001)  ploadbar=  1.01131449860033E+05
 cg2d: Sum(rhs),rhsMax =  -6.32536939843939E+01  1.13548045683624E+00
(PID.TID 0000.0001)  ploadbar=  1.01132686654051E+05
 cg2d: Sum(rhs),rhsMax =  -6.22377147940664E+01  1.15410908080966E+00
(PID.TID 0000.0001)  ploadbar=  1.01133923448070E+05
 cg2d: Sum(rhs),rhsMax =  -6.13212951741048E+01  1.17148348616441E+00
(PID.TID 0000.0001)  ploadbar=  1.01135160242088E+05
 cg2d: Sum(rhs),rhsMax =  -6.04903022890614E+01  1.18773820586898E+00
(PID.TID 0000.0001)  ploadbar=  1.01136397036106E+05
 cg2d: Sum(rhs),rhsMax =  -5.97501259797667E+01  1.20264554070814E+00
(PID.TID 0000.0001)  ploadbar=  1.01137543880325E+05
 cg2d: Sum(rhs),rhsMax =  -5.90828149890243E+01  1.21645505239473E+00
(PID.TID 0000.0001)  ploadbar=  1.01138690724543E+05
 cg2d: Sum(rhs),rhsMax =  -5.84839794113264E+01  1.22916783700248E+00
(PID.TID 0000.0001)  ploadbar=  1.01139837568762E+05
 cg2d: Sum(rhs),rhsMax =  -5.79541696424668E+01  1.24069510925159E+00
(PID.TID 0000.0001)  ploadbar=  1.01140984412980E+05
 cg2d: Sum(rhs),rhsMax =  -5.74987551620448E+01  1.25084726663264E+00
(PID.TID 0000.0001)  ploadbar=  1.01142131257199E+05
 cg2d: Sum(rhs),rhsMax =  -5.71174835138122E+01  1.25955417194735E+00
(PID.TID 0000.0001)  ploadbar=  1.01143278101417E+05
 cg2d: Sum(rhs),rhsMax =  -5.68683408854184E+01  1.26541292181196E+00
(PID.TID 0000.0001)  ploadbar=  1.01143532985608E+05
 cg2d: Sum(rhs),rhsMax =  -5.67044020664447E+01  1.26938343141607E+00
(PID.TID 0000.0001)  ploadbar=  1.01143787869799E+05
 cg2d: Sum(rhs),rhsMax =  -5.66112079011940E+01  1.27175622163126E+00
(PID.TID 0000.0001)  ploadbar=  1.01144042753990E+05
 cg2d: Sum(rhs),rhsMax =  -5.65771160737663E+01  1.27277355094646E+00
(PID.TID 0000.0001)  ploadbar=  1.01144297638180E+05
 cg2d: Sum(rhs),rhsMax =  -5.65901189263690E+01  1.27269669974827E+00
(PID.TID 0000.0001)  ploadbar=  1.01144552522371E+05
 cg2d: Sum(rhs),rhsMax =  -5.66343586143886E+01  1.27188156014549E+00
(PID.TID 0000.0001)  ploadbar=  1.01144807406562E+05
 cg2d: Sum(rhs),rhsMax =  -5.66934145198543E+01  1.27071169482564E+00
(PID.TID 0000.0001)  ploadbar=  1.01145770654111E+05
 cg2d: Sum(rhs),rhsMax =  -5.68039220494047E+01  1.26836904055847E+00
(PID.TID 0000.0001)  ploadbar=  1.01146733901661E+05
 cg2d: Sum(rhs),rhsMax =  -5.69519669580353E+01  1.26517343558291E+00
(PID.TID 0000.0001)  ploadbar=  1.01147697149210E+05
 cg2d: Sum(rhs),rhsMax =  -5.71338325560757E+01  1.26121892995911E+00
(PID.TID 0000.0001)  ploadbar=  1.01148660396760E+05
 cg2d: Sum(rhs),rhsMax =  -5.73474992596955E+01  1.25656487858902E+00
(PID.TID 0000.0001)  ploadbar=  1.01149623644309E+05
 cg2d: Sum(rhs),rhsMax =  -5.75389569176055E+01  1.25240042025085E+00
(PID.TID 0000.0001)  ploadbar=  1.01150586891859E+05
 cg2d: Sum(rhs),rhsMax =  -5.80325026342488E+01  1.24183263804324E+00
(PID.TID 0000.0001)  ploadbar=  1.01152275664687E+05
 cg2d: Sum(rhs),rhsMax =  -5.87290101726729E+01  1.22724381297324E+00
(PID.TID 0000.0001)  ploadbar=  1.01153964437516E+05
 cg2d: Sum(rhs),rhsMax =  -5.94243547555940E+01  1.21307607354330E+00
(PID.TID 0000.0001)  ploadbar=  1.01155653210344E+05
 cg2d: Sum(rhs),rhsMax =  -5.99966383531489E+01  1.20174868919118E+00
(PID.TID 0000.0001)  ploadbar=  1.01157341983173E+05
 cg2d: Sum(rhs),rhsMax =  -6.05398868444468E+01  1.19125794396776E+00
(PID.TID 0000.0001)  ploadbar=  1.01159030756001E+05
 cg2d: Sum(rhs),rhsMax =  -6.10884571143404E+01  1.18090159385387E+00
(PID.TID 0000.0001)  ploadbar=  1.01160719528829E+05
 cg2d: Sum(rhs),rhsMax =  -6.16057172557303E+01  1.17132238021710E+00
(PID.TID 0000.0001)  ploadbar=  1.01161255343380E+05
 cg2d: Sum(rhs),rhsMax =  -6.20995100409370E+01  1.16234045027978E+00
(PID.TID 0000.0001)  ploadbar=  1.01161791157931E+05
 cg2d: Sum(rhs),rhsMax =  -6.25644954894544E+01  1.15402814958861E+00
(PID.TID 0000.0001)  ploadbar=  1.01162326972482E+05
 cg2d: Sum(rhs),rhsMax =  -6.30004556068049E+01  1.14636586266365E+00
(PID.TID 0000.0001)  ploadbar=  1.01162862787033E+05
 cg2d: Sum(rhs),rhsMax =  -6.34063366737301E+01  1.13934923898863E+00
(PID.TID 0000.0001)  ploadbar=  1.01163398601584E+05
 cg2d: Sum(rhs),rhsMax =  -6.37825827644522E+01  1.13294650158073E+00
(PID.TID 0000.0001)  ploadbar=  1.01163934416135E+05
 cg2d: Sum(rhs),rhsMax =  -6.41197103891382E+01  1.12732849557564E+00
(PID.TID 0000.0001)  ploadbar=  1.01163522678446E+05
 cg2d: Sum(rhs),rhsMax =  -6.44521938121339E+01  1.12186680113748E+00
(PID.TID 0000.0001)  ploadbar=  1.01163110940757E+05
 cg2d: Sum(rhs),rhsMax =  -6.47869824446250E+01  1.11643558371315E+00
(PID.TID 0000.0001)  ploadbar=  1.01162699203068E+05
 cg2d: Sum(rhs),rhsMax =  -6.51179922404878E+01  1.11113807659399E+00
(PID.TID 0000.0001)  ploadbar=  1.01162287465378E+05
 cg2d: Sum(rhs),rhsMax =  -6.54462397008776E+01  1.10595271905769E+00
(PID.TID 0000.0001)  ploadbar=  1.01161875727689E+05
 cg2d: Sum(rhs),rhsMax =  -6.57686010315892E+01  1.10092871528130E+00
(PID.TID 0000.0001)  ploadbar=  1.01161463990000E+05
 cg2d: Sum(rhs),rhsMax =  -6.60254251085849E+01  1.09702638794780E+00
(PID.TID 0000.0001)  ploadbar=  1.01161852158020E+05
 cg2d: Sum(rhs),rhsMax =  -6.62569200357548E+01  1.09355647612012E+00
(PID.TID 0000.0001)  ploadbar=  1.01162240326040E+05
 cg2d: Sum(rhs),rhsMax =  -6.64743362724287E+01  1.09032684855166E+00
(PID.TID 0000.0001)  ploadbar=  1.01162628494060E+05
 cg2d: Sum(rhs),rhsMax =  -6.66740836352650E+01  1.08739245542819E+00
(PID.TID 0000.0001)  ploadbar=  1.01163016662079E+05
 cg2d: Sum(rhs),rhsMax =  -6.68579967364398E+01  1.08471831504122E+00
(PID.TID 0000.0001)  ploadbar=  1.01163404830099E+05
 cg2d: Sum(rhs),rhsMax =  -6.70262163311047E+01  1.08229390308407E+00
(PID.TID 0000.0001)  ploadbar=  1.01163792998119E+05
 cg2d: Sum(rhs),rhsMax =  -6.72425282751536E+01  1.07916670643746E+00
(PID.TID 0000.0001)  ploadbar=  1.01164204793378E+05
 cg2d: Sum(rhs),rhsMax =  -6.74467118261586E+01  1.07630341711889E+00
(PID.TID 0000.0001)  ploadbar=  1.01164616588636E+05
 cg2d: Sum(rhs),rhsMax =  -6.75597502818753E+01  1.07495365356720E+00
(PID.TID 0000.0001)  ploadbar=  1.01165028383895E+05
 cg2d: Sum(rhs),rhsMax =  -6.74739649395895E+01  1.07681938457659E+00
(PID.TID 0000.0001)  ploadbar=  1.01165440179154E+05
 cg2d: Sum(rhs),rhsMax =  -6.73903987017634E+01  1.07870125723377E+00
(PID.TID 0000.0001)  ploadbar=  1.01165851974412E+05
 cg2d: Sum(rhs),rhsMax =  -6.73082303098142E+01  1.08060842359055E+00
(PID.TID 0000.0001)  ploadbar=  1.01166263769671E+05
 cg2d: Sum(rhs),rhsMax =  -6.73249759785479E+01  1.08091740046070E+00
(PID.TID 0000.0001)  ploadbar=  1.01165586578630E+05
 cg2d: Sum(rhs),rhsMax =  -6.73429768281838E+01  1.08119593128986E+00
(PID.TID 0000.0001)  ploadbar=  1.01164909387590E+05
 cg2d: Sum(rhs),rhsMax =  -6.73561205967089E+01  1.08154481508138E+00
(PID.TID 0000.0001)  ploadbar=  1.01164232196549E+05
 cg2d: Sum(rhs),rhsMax =  -6.73681970955092E+01  1.08190416357077E+00
(PID.TID 0000.0001)  ploadbar=  1.01163555005509E+05
 cg2d: Sum(rhs),rhsMax =  -6.73770885057964E+01  1.08231155679391E+00
(PID.TID 0000.0001)  ploadbar=  1.01162877814468E+05
 cg2d: Sum(rhs),rhsMax =  -6.73819207147157E+01  1.08277968034858E+00
(PID.TID 0000.0001)  ploadbar=  1.01162200623428E+05
 cg2d: Sum(rhs),rhsMax =  -6.73263968674282E+01  1.08421789345637E+00
(PID.TID 0000.0001)  ploadbar=  1.01164084759865E+05
 cg2d: Sum(rhs),rhsMax =  -6.72721433805169E+01  1.08563107887003E+00
(PID.TID 0000.0001)  ploadbar=  1.01165968896302E+05
 cg2d: Sum(rhs),rhsMax =  -6.72187150563876E+01  1.08702529843557E+00
(PID.TID 0000.0001)  ploadbar=  1.01167853032739E+05
 cg2d: Sum(rhs),rhsMax =  -6.71624426473330E+01  1.08846071282485E+00
(PID.TID 0000.0001)  ploadbar=  1.01169737169176E+05
 cg2d: Sum(rhs),rhsMax =  -6.71054595763611E+01  1.08990369499726E+00
(PID.TID 0000.0001)  ploadbar=  1.01171621305613E+05
 cg2d: Sum(rhs),rhsMax =  -6.70585579509725E+01  1.09117822030202E+00
(PID.TID 0000.0001)  ploadbar=  1.01173505442049E+05
 cg2d: Sum(rhs),rhsMax =  -6.69370717578958E+01  1.09359412164744E+00
(PID.TID 0000.0001)  ploadbar=  1.01173393311036E+05
 cg2d: Sum(rhs),rhsMax =  -6.68777868605780E+01  1.09492160765743E+00
(PID.TID 0000.0001)  ploadbar=  1.01173281180023E+05
 cg2d: Sum(rhs),rhsMax =  -6.68152790707896E+01  1.09622762879335E+00
(PID.TID 0000.0001)  ploadbar=  1.01173169049010E+05
 cg2d: Sum(rhs),rhsMax =  -6.67510315718079E+01  1.09749020593679E+00
(PID.TID 0000.0001)  ploadbar=  1.01173056917997E+05
 cg2d: Sum(rhs),rhsMax =  -6.66841664674498E+01  1.09872851159377E+00
(PID.TID 0000.0001)  ploadbar=  1.01172944786984E+05
 cg2d: Sum(rhs),rhsMax =  -6.66157379331771E+01  1.09992956289861E+00
(PID.TID 0000.0001)  ploadbar=  1.01172832655971E+05
 cg2d: Sum(rhs),rhsMax =  -6.66194585006213E+01  1.10000500401466E+00
(PID.TID 0000.0001)  ploadbar=  1.01171310163931E+05
 cg2d: Sum(rhs),rhsMax =  -6.66268875326937E+01  1.10007363885372E+00
(PID.TID 0000.0001)  ploadbar=  1.01169787671892E+05
 cg2d: Sum(rhs),rhsMax =  -6.66402192301396E+01  1.10009672127299E+00
(PID.TID 0000.0001)  ploadbar=  1.01168265179853E+05
 cg2d: Sum(rhs),rhsMax =  -6.66590562402249E+01  1.10008151061943E+00
(PID.TID 0000.0001)  ploadbar=  1.01166742687813E+05
 cg2d: Sum(rhs),rhsMax =  -6.66819689054586E+01  1.10005162740671E+00
(PID.TID 0000.0001)  ploadbar=  1.01165220195774E+05
 cg2d: Sum(rhs),rhsMax =  -6.67086478834904E+01  1.10001200664754E+00
(PID.TID 0000.0001)  ploadbar=  1.01163697703735E+05
 cg2d: Sum(rhs),rhsMax =  -6.66342114581582E+01  1.10162216630305E+00
(PID.TID 0000.0001)  ploadbar=  1.01163175687182E+05
 cg2d: Sum(rhs),rhsMax =  -6.65563956201066E+01  1.10327449107806E+00
(PID.TID 0000.0001)  ploadbar=  1.01162653670629E+05
 cg2d: Sum(rhs),rhsMax =  -6.64836676823362E+01  1.10483196031198E+00
(PID.TID 0000.0001)  ploadbar=  1.01162131654076E+05
 cg2d: Sum(rhs),rhsMax =  -6.64112869890880E+01  1.10637494830544E+00
(PID.TID 0000.0001)  ploadbar=  1.01161609637524E+05
 cg2d: Sum(rhs),rhsMax =  -6.63411434343548E+01  1.10787414012875E+00
(PID.TID 0000.0001)  ploadbar=  1.01161087620971E+05
 cg2d: Sum(rhs),rhsMax =  -6.59297367517814E+01  1.11511070893453E+00
(PID.TID 0000.0001)  ploadbar=  1.01160565604418E+05
 cg2d: Sum(rhs),rhsMax =  -6.49002435438040E+01  1.13312703709259E+00
(PID.TID 0000.0001)  ploadbar=  1.01160688590245E+05
 cg2d: Sum(rhs),rhsMax =  -6.41308288137777E+01  1.14704611382679E+00
(PID.TID 0000.0001)  ploadbar=  1.01160811576073E+05
 cg2d: Sum(rhs),rhsMax =  -6.36306948724082E+01  1.15638225061384E+00
(PID.TID 0000.0001)  ploadbar=  1.01160934561900E+05
 cg2d: Sum(rhs),rhsMax =  -6.33736279137318E+01  1.16138767032187E+00
(PID.TID 0000.0001)  ploadbar=  1.01161057547728E+05
 cg2d: Sum(rhs),rhsMax =  -6.33232076848379E+01  1.16262005114980E+00
(PID.TID 0000.0001)  ploadbar=  1.01161180533556E+05
 cg2d: Sum(rhs),rhsMax =  -6.34417440235604E+01  1.16074764815312E+00
(PID.TID 0000.0001)  ploadbar=  1.01161303519383E+05
 cg2d: Sum(rhs),rhsMax =  -6.37148449629947E+01  1.15603635142588E+00
(PID.TID 0000.0001)  ploadbar=  1.01160695258641E+05
 cg2d: Sum(rhs),rhsMax =  -6.40424819618439E+01  1.15034935823573E+00
(PID.TID 0000.0001)  ploadbar=  1.01160086997898E+05
 cg2d: Sum(rhs),rhsMax =  -6.44336257080268E+01  1.14355709408657E+00
(PID.TID 0000.0001)  ploadbar=  1.01159478737156E+05
 cg2d: Sum(rhs),rhsMax =  -6.48796134886369E+01  1.13585130921661E+00
(PID.TID 0000.0001)  ploadbar=  1.01158870476414E+05
 cg2d: Sum(rhs),rhsMax =  -6.51672770301555E+01  1.13096092090964E+00
(PID.TID 0000.0001)  ploadbar=  1.01158262215671E+05
 cg2d: Sum(rhs),rhsMax =  -6.50812838570482E+01  1.13255845063129E+00
(PID.TID 0000.0001)  ploadbar=  1.01157653954929E+05
 cg2d: Sum(rhs),rhsMax =  -6.50334483884110E+01  1.13354954113595E+00
(PID.TID 0000.0001)  ploadbar=  1.01157574998183E+05
 cg2d: Sum(rhs),rhsMax =  -6.49854303878827E+01  1.13459168585507E+00
(PID.TID 0000.0001)  ploadbar=  1.01157496041437E+05
 cg2d: Sum(rhs),rhsMax =  -6.49376999463652E+01  1.13567607054344E+00
(PID.TID 0000.0001)  ploadbar=  1.01157417084690E+05
 cg2d: Sum(rhs),rhsMax =  -6.48938854425193E+01  1.13673881139880E+00
(PID.TID 0000.0001)  ploadbar=  1.01157338127944E+05
 cg2d: Sum(rhs),rhsMax =  -6.48531116865238E+01  1.13779520862927E+00
(PID.TID 0000.0001)  ploadbar=  1.01157259171198E+05
 cg2d: Sum(rhs),rhsMax =  -6.48159529238194E+01  1.13883650840720E+00
(PID.TID 0000.0001)  ploadbar=  1.01157180214452E+05
 cg2d: Sum(rhs),rhsMax =  -6.47854322853593E+01  1.13975057735227E+00
(PID.TID 0000.0001)  ploadbar=  1.01156524695254E+05
 cg2d: Sum(rhs),rhsMax =  -6.47587989321357E+01  1.14058640248151E+00
(PID.TID 0000.0001)  ploadbar=  1.01155869176056E+05
 cg2d: Sum(rhs),rhsMax =  -6.47379124949574E+01  1.14131408731049E+00
(PID.TID 0000.0001)  ploadbar=  1.01155213656858E+05
 cg2d: Sum(rhs),rhsMax =  -6.47204080381193E+01  1.14197516499325E+00
(PID.TID 0000.0001)  ploadbar=  1.01154558137660E+05
 cg2d: Sum(rhs),rhsMax =  -6.47067300536483E+01  1.14256435063635E+00
(PID.TID 0000.0001)  ploadbar=  1.01153902618462E+05
 cg2d: Sum(rhs),rhsMax =  -6.46965932927518E+01  1.14309039719907E+00
(PID.TID 0000.0001)  ploadbar=  1.01153247099264E+05
 cg2d: Sum(rhs),rhsMax =  -6.46793172820943E+01  1.14377122051576E+00
(PID.TID 0000.0001)  ploadbar=  1.01153499378328E+05
 cg2d: Sum(rhs),rhsMax =  -6.46658439860595E+01  1.14440614238778E+00
(PID.TID 0000.0001)  ploadbar=  1.01153751657392E+05
 cg2d: Sum(rhs),rhsMax =  -6.46536176374623E+01  1.14503940223120E+00
(PID.TID 0000.0001)  ploadbar=  1.01154003936456E+05
 cg2d: Sum(rhs),rhsMax =  -6.46450322173350E+01  1.14562829450615E+00
(PID.TID 0000.0001)  ploadbar=  1.01154256215520E+05
 cg2d: Sum(rhs),rhsMax =  -6.46415331537324E+01  1.14614522433555E+00
(PID.TID 0000.0001)  ploadbar=  1.01154508494584E+05
 cg2d: Sum(rhs),rhsMax =  -6.46435479978694E+01  1.14658306419380E+00
(PID.TID 0000.0001)  ploadbar=  1.01154760773647E+05
 cg2d: Sum(rhs),rhsMax =  -6.46906559051050E+01  1.14617124962821E+00
(PID.TID 0000.0001)  ploadbar=  1.01154460225129E+05
 cg2d: Sum(rhs),rhsMax =  -6.47430176005790E+01  1.14561599568619E+00
(PID.TID 0000.0001)  ploadbar=  1.01154159676610E+05
 cg2d: Sum(rhs),rhsMax =  -6.47898872707483E+01  1.14510622354992E+00
(PID.TID 0000.0001)  ploadbar=  1.01153859128091E+05
 cg2d: Sum(rhs),rhsMax =  -6.48355867382633E+01  1.14456763236039E+00
(PID.TID 0000.0001)  ploadbar=  1.01153558579572E+05
 cg2d: Sum(rhs),rhsMax =  -6.48788268744848E+01  1.14402852201874E+00
(PID.TID 0000.0001)  ploadbar=  1.01153258031054E+05
 cg2d: Sum(rhs),rhsMax =  -6.49188985691819E+01  1.14350525817012E+00
(PID.TID 0000.0001)  ploadbar=  1.01152957482535E+05
 cg2d: Sum(rhs),rhsMax =  -6.49412951001636E+01  1.14334887836040E+00
(PID.TID 0000.0001)  ploadbar=  1.01153334510533E+05
 cg2d: Sum(rhs),rhsMax =  -6.49733314235902E+01  1.14307308914483E+00
(PID.TID 0000.0001)  ploadbar=  1.01153711538532E+05
 cg2d: Sum(rhs),rhsMax =  -6.50019447095465E+01  1.14290622164306E+00
(PID.TID 0000.0001)  ploadbar=  1.01154088566530E+05
 cg2d: Sum(rhs),rhsMax =  -6.50311063972871E+01  1.14277787732367E+00
(PID.TID 0000.0001)  ploadbar=  1.01154465594529E+05
 cg2d: Sum(rhs),rhsMax =  -6.50646249885519E+01  1.14262074751576E+00
(PID.TID 0000.0001)  ploadbar=  1.01154842622527E+05
 cg2d: Sum(rhs),rhsMax =  -6.51033105491240E+01  1.14242086902441E+00
(PID.TID 0000.0001)  ploadbar=  1.01155219650526E+05
 cg2d: Sum(rhs),rhsMax =  -6.51541377204984E+01  1.14197891022675E+00
(PID.TID 0000.0001)  ploadbar=  1.01155943507714E+05
 cg2d: Sum(rhs),rhsMax =  -6.52064730520830E+01  1.14148371948305E+00
(PID.TID 0000.0001)  ploadbar=  1.01156667364902E+05
 cg2d: Sum(rhs),rhsMax =  -6.52608150083419E+01  1.14092918813457E+00
(PID.TID 0000.0001)  ploadbar=  1.01157391222090E+05
 cg2d: Sum(rhs),rhsMax =  -6.53160103797750E+01  1.14033702798702E+00
(PID.TID 0000.0001)  ploadbar=  1.01158115079278E+05
 cg2d: Sum(rhs),rhsMax =  -6.53719678661999E+01  1.13971078266252E+00
(PID.TID 0000.0001)  ploadbar=  1.01158838936466E+05
 cg2d: Sum(rhs),rhsMax =  -6.54288935705105E+01  1.13904693077596E+00
(PID.TID 0000.0001)  ploadbar=  1.01159562793654E+05
 cg2d: Sum(rhs),rhsMax =  -6.54698358577474E+01  1.13869799123987E+00
(PID.TID 0000.0001)  ploadbar=  1.01159096612119E+05
 cg2d: Sum(rhs),rhsMax =  -6.55148913168161E+01  1.13830596161691E+00
(PID.TID 0000.0001)  ploadbar=  1.01158630430583E+05
 cg2d: Sum(rhs),rhsMax =  -6.55539514538996E+01  1.13804404098195E+00
(PID.TID 0000.0001)  ploadbar=  1.01158164249047E+05
 cg2d: Sum(rhs),rhsMax =  -6.53998362262934E+01  1.14116702444193E+00
(PID.TID 0000.0001)  ploadbar=  1.01157698067512E+05
 cg2d: Sum(rhs),rhsMax =  -6.50978788215576E+01  1.14692603704425E+00
(PID.TID 0000.0001)  ploadbar=  1.01157231885976E+05
 cg2d: Sum(rhs),rhsMax =  -6.48344453620162E+01  1.15207418147910E+00
(PID.TID 0000.0001)  ploadbar=  1.01156765704440E+05
 cg2d: Sum(rhs),rhsMax =  -6.46043463053148E+01  1.15661189290001E+00
(PID.TID 0000.0001)  ploadbar=  1.01156863320822E+05
 cg2d: Sum(rhs),rhsMax =  -6.44175884445951E+01  1.16034427816774E+00
(PID.TID 0000.0001)  ploadbar=  1.01156960937203E+05
 cg2d: Sum(rhs),rhsMax =  -6.42746725298726E+01  1.16325070598448E+00
(PID.TID 0000.0001)  ploadbar=  1.01157058553584E+05
 cg2d: Sum(rhs),rhsMax =  -6.41854932181811E+01  1.16514085720932E+00
(PID.TID 0000.0001)  ploadbar=  1.01157156169965E+05
 cg2d: Sum(rhs),rhsMax =  -6.41449225707109E+01  1.16610201368704E+00
(PID.TID 0000.0001)  ploadbar=  1.01157253786346E+05
 cg2d: Sum(rhs),rhsMax =  -6.41506805320622E+01  1.16617511758911E+00
(PID.TID 0000.0001)  ploadbar=  1.01157351402727E+05
 cg2d: Sum(rhs),rhsMax =  -6.42131487343892E+01  1.16524566246430E+00
(PID.TID 0000.0001)  ploadbar=  1.01157277045410E+05
 cg2d: Sum(rhs),rhsMax =  -6.43339007282482E+01  1.16328796130610E+00
(PID.TID 0000.0001)  ploadbar=  1.01157202688093E+05
 cg2d: Sum(rhs),rhsMax =  -6.45149289520735E+01  1.16027795266573E+00
(PID.TID 0000.0001)  ploadbar=  1.01157128330776E+05
 cg2d: Sum(rhs),rhsMax =  -6.47560488019531E+01  1.15623580705868E+00
(PID.TID 0000.0001)  ploadbar=  1.01157053973459E+05
 cg2d: Sum(rhs),rhsMax =  -6.50511862670588E+01  1.15129348938689E+00
(PID.TID 0000.0001)  ploadbar=  1.01156979616142E+05
 cg2d: Sum(rhs),rhsMax =  -6.53920608796346E+01  1.14562259530934E+00
(PID.TID 0000.0001)  ploadbar=  1.01156905258825E+05
 cg2d: Sum(rhs),rhsMax =  -6.55250754994076E+01  1.14358809468902E+00
(PID.TID 0000.0001)  ploadbar=  1.01156662755822E+05
 cg2d: Sum(rhs),rhsMax =  -6.54997832537897E+01  1.14428184670905E+00
(PID.TID 0000.0001)  ploadbar=  1.01156420252818E+05
 cg2d: Sum(rhs),rhsMax =  -6.54807057085531E+01  1.14483124212015E+00
(PID.TID 0000.0001)  ploadbar=  1.01156177749815E+05
 cg2d: Sum(rhs),rhsMax =  -6.54645483506719E+01  1.14530161494068E+00
(PID.TID 0000.0001)  ploadbar=  1.01155935246811E+05
 cg2d: Sum(rhs),rhsMax =  -6.54503454537925E+01  1.14571288356159E+00
(PID.TID 0000.0001)  ploadbar=  1.01155692743807E+05
 cg2d: Sum(rhs),rhsMax =  -6.54395452985421E+01  1.14603845788755E+00
(PID.TID 0000.0001)  ploadbar=  1.01155450240804E+05
 cg2d: Sum(rhs),rhsMax =  -6.54328765880718E+01  1.14629696627825E+00
(PID.TID 0000.0001)  ploadbar=  1.01155554108176E+05
 cg2d: Sum(rhs),rhsMax =  -6.54255688995492E+01  1.14656481423979E+00
(PID.TID 0000.0001)  ploadbar=  1.01155657975549E+05
 cg2d: Sum(rhs),rhsMax =  -6.54233300982189E+01  1.14673980746820E+00
(PID.TID 0000.0001)  ploadbar=  1.01155761842922E+05
 cg2d: Sum(rhs),rhsMax =  -6.54211709784601E+01  1.14690787029884E+00
(PID.TID 0000.0001)  ploadbar=  1.01155865710294E+05
 cg2d: Sum(rhs),rhsMax =  -6.54188057026758E+01  1.14707432876590E+00
(PID.TID 0000.0001)  ploadbar=  1.01155969577667E+05
 cg2d: Sum(rhs),rhsMax =  -6.54195181805903E+01  1.14718023521392E+00
(PID.TID 0000.0001)  ploadbar=  1.01156073445039E+05
 cg2d: Sum(rhs),rhsMax =  -6.54513925082834E+01  1.14670384881514E+00
(PID.TID 0000.0001)  ploadbar=  1.01154966788462E+05
 cg2d: Sum(rhs),rhsMax =  -6.54870258442132E+01  1.14612519409297E+00
(PID.TID 0000.0001)  ploadbar=  1.01153860131885E+05
 cg2d: Sum(rhs),rhsMax =  -6.55270637448221E+01  1.14543240127070E+00
(PID.TID 0000.0001)  ploadbar=  1.01152753475308E+05
 cg2d: Sum(rhs),rhsMax =  -6.55673543811935E+01  1.14469675270644E+00
(PID.TID 0000.0001)  ploadbar=  1.01151646818731E+05
 cg2d: Sum(rhs),rhsMax =  -6.56039724450496E+01  1.14399167807896E+00
(PID.TID 0000.0001)  ploadbar=  1.01150540162154E+05
 cg2d: Sum(rhs),rhsMax =  -6.56353379251119E+01  1.14334847502650E+00
(PID.TID 0000.0001)  ploadbar=  1.01149433505577E+05
 cg2d: Sum(rhs),rhsMax =  -6.56644399753500E+01  1.14282635529726E+00
(PID.TID 0000.0001)  ploadbar=  1.01147846206732E+05
 cg2d: Sum(rhs),rhsMax =  -6.56971633637754E+01  1.14231811345803E+00
(PID.TID 0000.0001)  ploadbar=  1.01146258907886E+05
 cg2d: Sum(rhs),rhsMax =  -6.57304106589459E+01  1.14187706725800E+00
(PID.TID 0000.0001)  ploadbar=  1.01144671609040E+05
 cg2d: Sum(rhs),rhsMax =  -6.57628242665337E+01  1.14152646698756E+00
(PID.TID 0000.0001)  ploadbar=  1.01143084310195E+05
 cg2d: Sum(rhs),rhsMax =  -6.57941810679699E+01  1.14127004122953E+00
(PID.TID 0000.0001)  ploadbar=  1.01141497011349E+05
 cg2d: Sum(rhs),rhsMax =  -6.58249589956534E+01  1.14109928359235E+00
(PID.TID 0000.0001)  ploadbar=  1.01139909712504E+05
 cg2d: Sum(rhs),rhsMax =  -6.58641018616222E+01  1.14079262570331E+00
(PID.TID 0000.0001)  ploadbar=  1.01138328414534E+05
 cg2d: Sum(rhs),rhsMax =  -6.59054524482602E+01  1.14045391109708E+00
(PID.TID 0000.0001)      cg2d_init_res =   3.07617332684368E-01
(PID.TID 0000.0001)      cg2d_iters(min,last) =      -1     149
(PID.TID 0000.0001)      cg2d_last_res =   9.78616648782907E-08
(PID.TID 0000.0001) // =======================================================
(PID.TID 0000.0001) // Begin MONITOR dynamic field statistics
(PID.TID 0000.0001) // =======================================================
(PID.TID 0000.0001) %MON time_tsnumber                =                 12264
(PID.TID 0000.0001) %MON time_secondsf                =   4.4150400000000E+07
(PID.TID 0000.0001) %MON dynstat_eta_max              =   1.1592432388420E+00
(PID.TID 0000.0001) %MON dynstat_eta_min              =  -5.9732048472638E+00
(PID.TID 0000.0001) %MON dynstat_eta_mean             =   3.8041892090844E-02
(PID.TID 0000.0001) %MON dynstat_eta_sd               =   7.9259597765030E-01
(PID.TID 0000.0001) %MON dynstat_eta_del2             =   2.6134311387143E-04
(PID.TID 0000.0001) %MON dynstat_uvel_max             =   7.9530123437198E-01
(PID.TID 0000.0001) %MON dynstat_uvel_min             =  -9.4639853185685E-01
(PID.TID 0000.0001) %MON dynstat_uvel_mean            =   1.4477557152434E-03
(PID.TID 0000.0001) %MON dynstat_uvel_sd              =   2.0658831101786E-02
(PID.TID 0000.0001) %MON dynstat_uvel_del2            =   8.3874850346001E-06
(PID.TID 0000.0001) %MON dynstat_vvel_max             =   8.6080496253653E-01
(PID.TID 0000.0001) %MON dynstat_vvel_min             =  -9.9107454681062E-01
(PID.TID 0000.0001) %MON dynstat_vvel_mean            =   1.1511918312534E-03
(PID.TID 0000.0001) %MON dynstat_vvel_sd              =   2.1051784205915E-02
(PID.TID 0000.0001) %MON dynstat_vvel_del2            =   8.7422953324794E-06
(PID.TID 0000.0001) %MON dynstat_wvel_max             =   9.9044550880084E-04
(PID.TID 0000.0001) %MON dynstat_wvel_min             =  -8.5197382491270E-04
(PID.TID 0000.0001) %MON dynstat_wvel_mean            =  -2.6879436950910E-09
(PID.TID 0000.0001) %MON dynstat_wvel_sd              =   1.9264947312702E-05
(PID.TID 0000.0001) %MON dynstat_wvel_del2            =   1.5463227506600E-08
(PID.TID 0000.0001) %MON dynstat_theta_max            =   3.1954680976846E+01
(PID.TID 0000.0001) %MON dynstat_theta_min            =  -1.9824733800142E+00
(PID.TID 0000.0001) %MON dynstat_theta_mean           =   3.5851196564729E+00
(PID.TID 0000.0001) %MON dynstat_theta_sd             =   4.4406446708325E+00
(PID.TID 0000.0001) %MON dynstat_theta_del2           =   8.6983745470617E-05
(PID.TID 0000.0001) %MON dynstat_salt_max             =   4.0647919883178E+01
(PID.TID 0000.0001) %MON dynstat_salt_min             =   2.1799005536625E+01
(PID.TID 0000.0001) %MON dynstat_salt_mean            =   3.4727271574203E+01
(PID.TID 0000.0001) %MON dynstat_salt_sd              =   3.7557599889823E-01
(PID.TID 0000.0001) %MON dynstat_salt_del2            =   1.8917118875176E-05
(PID.TID 0000.0001) %MON dynstat_sst_max              =   3.1954680976846E+01
(PID.TID 0000.0001) %MON dynstat_sst_min              =  -1.9607569717494E+00
(PID.TID 0000.0001) %MON dynstat_sst_mean             =   1.8210076363372E+01
(PID.TID 0000.0001) %MON dynstat_sst_sd               =   1.0430763477095E+01
(PID.TID 0000.0001) %MON dynstat_sst_del2             =   6.0816089666342E-04
(PID.TID 0000.0001) %MON dynstat_sss_max              =   3.9476238191629E+01
(PID.TID 0000.0001) %MON dynstat_sss_min              =   2.1799005536625E+01
(PID.TID 0000.0001) %MON dynstat_sss_mean             =   3.4755449793041E+01
(PID.TID 0000.0001) %MON dynstat_sss_sd               =   1.1611343190392E+00
(PID.TID 0000.0001) %MON dynstat_sss_del2             =   3.0158704438812E-04
(PID.TID 0000.0001) %MON forcing_qnet_max             =   8.9696684054030E+02
(PID.TID 0000.0001) %MON forcing_qnet_min             =  -5.6742084571894E+02
(PID.TID 0000.0001) %MON forcing_qnet_mean            =   4.2017020621351E+01
(PID.TID 0000.0001) %MON forcing_qnet_sd              =   1.6354134413329E+02
(PID.TID 0000.0001) %MON forcing_qnet_del2            =   8.8323418071615E-02
(PID.TID 0000.0001) %MON forcing_qsw_max              =   4.9634133928860E+01
(PID.TID 0000.0001) %MON forcing_qsw_min              =  -6.8962575688705E+02
(PID.TID 0000.0001) %MON forcing_qsw_mean             =  -1.1566149257396E+02
(PID.TID 0000.0001) %MON forcing_qsw_sd               =   1.4593793296667E+02
(PID.TID 0000.0001) %MON forcing_qsw_del2             =   5.4278489948751E-02
(PID.TID 0000.0001) %MON forcing_empmr_max            =   2.2951396245062E-03
(PID.TID 0000.0001) %MON forcing_empmr_min            =  -3.1695469985331E-03
(PID.TID 0000.0001) %MON forcing_empmr_mean           =  -3.5949275637539E-06
(PID.TID 0000.0001) %MON forcing_empmr_sd             =   9.8956375392271E-05
(PID.TID 0000.0001) %MON forcing_empmr_del2           =   2.6109463607474E-07
(PID.TID 0000.0001) %MON forcing_fu_max               =   1.2695122758547E+00
(PID.TID 0000.0001) %MON forcing_fu_min               =  -6.8735981980960E-01
(PID.TID 0000.0001) %MON forcing_fu_mean              =   6.3256473029704E-03
(PID.TID 0000.0001) %MON forcing_fu_sd                =   1.3385423566541E-01
(PID.TID 0000.0001) %MON forcing_fu_del2              =   6.2854193086568E-05
(PID.TID 0000.0001) %MON forcing_fv_max               =   7.0823139051818E-01
(PID.TID 0000.0001) %MON forcing_fv_min               =  -5.6532067060471E-01
(PID.TID 0000.0001) %MON forcing_fv_mean              =   2.5868105539123E-03
(PID.TID 0000.0001) %MON forcing_fv_sd                =   1.1175086858828E-01
(PID.TID 0000.0001) %MON forcing_fv_del2              =   6.0536088982760E-05
(PID.TID 0000.0001) %MON trAdv_CFL_u_max              =   5.5008465244910E-02
(PID.TID 0000.0001) %MON trAdv_CFL_v_max              =   6.0862756081488E-02
(PID.TID 0000.0001) %MON trAdv_CFL_w_max              =   1.2359433619768E-01
(PID.TID 0000.0001) %MON advcfl_uvel_max              =   4.7157005895482E-02
(PID.TID 0000.0001) %MON advcfl_vvel_max              =   6.3481290154369E-02
(PID.TID 0000.0001) %MON advcfl_wvel_max              =   1.0608424113601E-01
(PID.TID 0000.0001) %MON advcfl_W_hf_max              =   1.1123454224521E-01
(PID.TID 0000.0001) %MON pe_b_mean                    =   1.3333914401085E-03
(PID.TID 0000.0001) %MON ke_max                       =   5.3654536774307E-01
(PID.TID 0000.0001) %MON ke_mean                      =   4.2114022077514E-04
(PID.TID 0000.0001) %MON ke_vol                       =   1.3350114919612E+18
(PID.TID 0000.0001) %MON vort_r_min                   =  -2.3587562369371E-05
(PID.TID 0000.0001) %MON vort_r_max                   =   2.2458880783332E-05
(PID.TID 0000.0001) %MON vort_a_mean                  =  -1.9727864647440E-05
(PID.TID 0000.0001) %MON vort_a_sd                    =   7.4543083972287E-05
(PID.TID 0000.0001) %MON vort_p_mean                  =  -2.1760293965672E-05
(PID.TID 0000.0001) %MON vort_p_sd                    =   9.7248760085052E-05
(PID.TID 0000.0001) %MON surfExpan_theta_mean         =  -1.6230707646333E-07
(PID.TID 0000.0001) %MON surfExpan_salt_mean          =   3.3783347646331E-08
(PID.TID 0000.0001) // =======================================================
(PID.TID 0000.0001) // End MONITOR dynamic field statistics
(PID.TID 0000.0001) // =======================================================
(PID.TID 0000.0001)  ploadbar=  1.01136747116564E+05
(PID.TID 0000.0001) %SBO sbo_mass                     =   1.3737574961060E+21
(PID.TID 0000.0001) %SBO sbo_mass_fw                  =   4.4680735482915E+16
(PID.TID 0000.0001) %SBO sbo_zoamc                    =   1.1857374766236E+25
(PID.TID 0000.0001) %SBO sbo_zoamp                    =   2.9276657921534E+30
(PID.TID 0000.0001) // =======================================================
(PID.TID 0000.0001) // Begin MONITOR SEAICE statistics
(PID.TID 0000.0001) // =======================================================
(PID.TID 0000.0001) %MON seaice_tsnumber              =                 12264
(PID.TID 0000.0001) %MON seaice_time_sec              =   4.4150400000000E+07
(PID.TID 0000.0001) %MON seaice_uice_max              =   4.0000000000000E-01
(PID.TID 0000.0001) %MON seaice_uice_min              =  -4.0000000000000E-01
(PID.TID 0000.0001) %MON seaice_uice_mean             =  -5.6948431052545E-03
(PID.TID 0000.0001) %MON seaice_uice_sd               =   1.8121135557783E-01
(PID.TID 0000.0001) %MON seaice_uice_del2             =   1.4151818897996E-04
(PID.TID 0000.0001) %MON seaice_vice_max              =   4.0000000000000E-01
(PID.TID 0000.0001) %MON seaice_vice_min              =  -4.0000000000000E-01
(PID.TID 0000.0001) %MON seaice_vice_mean             =  -1.2222907594331E-02
(PID.TID 0000.0001) %MON seaice_vice_sd               =   1.8074244858351E-01
(PID.TID 0000.0001) %MON seaice_vice_del2             =   1.4315783226458E-04
(PID.TID 0000.0001) %MON seaice_area_max              =   9.7000000000000E-01
(PID.TID 0000.0001) %MON seaice_area_min              =   0.0000000000000E+00
(PID.TID 0000.0001) %MON seaice_area_mean             =   6.2608698650867E-02
(PID.TID 0000.0001) %MON seaice_area_sd               =   2.2929710620255E-01
(PID.TID 0000.0001) %MON seaice_area_del2             =   2.1194949240016E-04
(PID.TID 0000.0001) %MON seaice_heff_max              =   5.8032229076111E+00
(PID.TID 0000.0001) %MON seaice_heff_min              =   0.0000000000000E+00
(PID.TID 0000.0001) %MON seaice_heff_mean             =   8.9649202740045E-02
(PID.TID 0000.0001) %MON seaice_heff_sd               =   4.2285600567790E-01
(PID.TID 0000.0001) %MON seaice_heff_del2             =   2.7886493689174E-04
(PID.TID 0000.0001) %MON seaice_hsnow_max             =   1.2292995885658E+00
(PID.TID 0000.0001) %MON seaice_hsnow_min             =  -4.2908695584885E-05
(PID.TID 0000.0001) %MON seaice_hsnow_mean            =   1.2350939793093E-02
(PID.TID 0000.0001) %MON seaice_hsnow_sd              =   5.9731799782972E-02
(PID.TID 0000.0001) %MON seaice_hsnow_del2            =   5.1129331675682E-05
(PID.TID 0000.0001) // =======================================================
(PID.TID 0000.0001) // End MONITOR SEAICE statistics
(PID.TID 0000.0001) // =======================================================
(PID.TID 0000.0001) // =======================================================
(PID.TID 0000.0001) // Begin MONITOR EXF statistics
(PID.TID 0000.0001) // =======================================================
(PID.TID 0000.0001) %MON exf_tsnumber                 =                 12264
(PID.TID 0000.0001) %MON exf_time_sec                 =   4.4150400000000E+07
(PID.TID 0000.0001) %MON exf_ustress_max              =   1.2865241765976E+00
(PID.TID 0000.0001) %MON exf_ustress_min              =  -8.1635534763336E-01
(PID.TID 0000.0001) %MON exf_ustress_mean             =   5.9774967967754E-03
(PID.TID 0000.0001) %MON exf_ustress_sd               =   1.3468711429316E-01
(PID.TID 0000.0001) %MON exf_ustress_del2             =   8.0390285477207E-05
(PID.TID 0000.0001) %MON exf_vstress_max              =   9.0066087764781E-01
(PID.TID 0000.0001) %MON exf_vstress_min              =  -5.9247130155563E-01
(PID.TID 0000.0001) %MON exf_vstress_mean             =   2.5268524573670E-03
(PID.TID 0000.0001) %MON exf_vstress_sd               =   1.1121150225391E-01
(PID.TID 0000.0001) %MON exf_vstress_del2             =   7.5919952459886E-05
(PID.TID 0000.0001) %MON exf_hflux_max                =   1.2851339881143E+03
(PID.TID 0000.0001) %MON exf_hflux_min                =  -5.3385249779661E+02
(PID.TID 0000.0001) %MON exf_hflux_mean               =   4.3377565557631E+01
(PID.TID 0000.0001) %MON exf_hflux_sd                 =   1.8569056713969E+02
(PID.TID 0000.0001) %MON exf_hflux_del2               =   3.2803890197369E-01
(PID.TID 0000.0001) %MON exf_sflux_max                =   2.0645153694338E-07
(PID.TID 0000.0001) %MON exf_sflux_min                =  -3.1590253198405E-06
(PID.TID 0000.0001) %MON exf_sflux_mean               =  -2.6174133536762E-09
(PID.TID 0000.0001) %MON exf_sflux_sd                 =   8.7211532540996E-08
(PID.TID 0000.0001) %MON exf_sflux_del2               =   1.7962097275079E-10
(PID.TID 0000.0001) %MON exf_wspeed_max               =   2.1071719169617E+01
(PID.TID 0000.0001) %MON exf_wspeed_min               =   5.4447671771049E-01
(PID.TID 0000.0001) %MON exf_wspeed_mean              =   7.3060564547231E+00
(PID.TID 0000.0001) %MON exf_wspeed_sd                =   3.2609362541269E+00
(PID.TID 0000.0001) %MON exf_wspeed_del2              =   1.2662712687901E-02
(PID.TID 0000.0001) %MON exf_atemp_max                =   3.1236984863281E+02
(PID.TID 0000.0001) %MON exf_atemp_min                =   2.2243785896301E+02
(PID.TID 0000.0001) %MON exf_atemp_mean               =   2.8988432183719E+02
(PID.TID 0000.0001) %MON exf_atemp_sd                 =   1.1282403598058E+01
(PID.TID 0000.0001) %MON exf_atemp_del2               =   2.4630722200302E-02
(PID.TID 0000.0001) %MON exf_aqh_max                  =   2.5599951855838E-02
(PID.TID 0000.0001) %MON exf_aqh_min                  =  -8.1001237504097E-06
(PID.TID 0000.0001) %MON exf_aqh_mean                 =   1.1203668068331E-02
(PID.TID 0000.0001) %MON exf_aqh_sd                   =   5.7744294866076E-03
(PID.TID 0000.0001) %MON exf_aqh_del2                 =   1.5124505992486E-05
(PID.TID 0000.0001) %MON exf_lwflux_max               =   2.2107581767390E+02
(PID.TID 0000.0001) %MON exf_lwflux_min               =  -5.0175932592260E+01
(PID.TID 0000.0001) %MON exf_lwflux_mean              =   4.3381534410266E+01
(PID.TID 0000.0001) %MON exf_lwflux_sd                =   2.4858703236942E+01
(PID.TID 0000.0001) %MON exf_lwflux_del2              =   7.6597613166271E-02
(PID.TID 0000.0001) %MON exf_evap_max                 =   2.7231878787934E-07
(PID.TID 0000.0001) %MON exf_evap_min                 =  -2.2073256343471E-08
(PID.TID 0000.0001) %MON exf_evap_mean                =   4.2401952331771E-08
(PID.TID 0000.0001) %MON exf_evap_sd                  =   2.9503416497251E-08
(PID.TID 0000.0001) %MON exf_evap_del2                =   7.0431491586901E-11
(PID.TID 0000.0001) %MON exf_precip_max               =   1.5121862020351E-06
(PID.TID 0000.0001) %MON exf_precip_min               =  -2.6223814231230E-08
(PID.TID 0000.0001) %MON exf_precip_mean              =   4.0368094811504E-08
(PID.TID 0000.0001) %MON exf_precip_sd                =   7.0632203047813E-08
(PID.TID 0000.0001) %MON exf_precip_del2              =   1.7307305419307E-10
(PID.TID 0000.0001) %MON exf_swflux_max               =   5.2556553562368E+01
(PID.TID 0000.0001) %MON exf_swflux_min               =  -6.2813253172984E+02
(PID.TID 0000.0001) %MON exf_swflux_mean              =  -1.2635579363569E+02
(PID.TID 0000.0001) %MON exf_swflux_sd                =   1.4801263704396E+02
(PID.TID 0000.0001) %MON exf_swflux_del2              =   2.6292786883738E-01
(PID.TID 0000.0001) %MON exf_swdown_max               =   6.7794329833984E+02
(PID.TID 0000.0001) %MON exf_swdown_min               =  -6.6663272857666E+01
(PID.TID 0000.0001) %MON exf_swdown_mean              =   1.3737213459820E+02
(PID.TID 0000.0001) %MON exf_swdown_sd                =   1.6009932505260E+02
(PID.TID 0000.0001) %MON exf_swdown_del2              =   2.8631434767802E-01
(PID.TID 0000.0001) %MON exf_lwdown_max               =   4.7118644714355E+02
(PID.TID 0000.0001) %MON exf_lwdown_min               =   7.9124198913574E+01
(PID.TID 0000.0001) %MON exf_lwdown_mean              =   3.6697663210888E+02
(PID.TID 0000.0001) %MON exf_lwdown_sd                =   5.8464628006844E+01
(PID.TID 0000.0001) %MON exf_lwdown_del2              =   4.9729580925130E-01
(PID.TID 0000.0001) %MON exf_apressure_max            =   1.0354763671875E+05
(PID.TID 0000.0001) %MON exf_apressure_min            =   9.4401535156250E+04
(PID.TID 0000.0001) %MON exf_apressure_mean           =   1.0113516581859E+05
(PID.TID 0000.0001) %MON exf_apressure_sd             =   1.1485221914056E+03
(PID.TID 0000.0001) %MON exf_apressure_del2           =   1.4513235780347E+02
(PID.TID 0000.0001) %MON exf_runoff_max               =   3.1856565641885E-06
(PID.TID 0000.0001) %MON exf_runoff_min               =   0.0000000000000E+00
(PID.TID 0000.0001) %MON exf_runoff_mean              =   4.6512708739432E-09
(PID.TID 0000.0001) %MON exf_runoff_sd                =   4.0722969529259E-08
(PID.TID 0000.0001) %MON exf_runoff_del2              =   4.7846032036813E-11
(PID.TID 0000.0001) // =======================================================
(PID.TID 0000.0001) // End MONITOR EXF statistics
(PID.TID 0000.0001) // =======================================================
 cg2d: Sum(rhs),rhsMax =  -6.59439942449351E+01  1.14017411783650E+00
(PID.TID 0000.0001)  ploadbar=  1.01135165818595E+05
 cg2d: Sum(rhs),rhsMax =  -6.59820566945735E+01  1.13991465372530E+00
(PID.TID 0000.0001)  ploadbar=  1.01133584520625E+05
 cg2d: Sum(rhs),rhsMax =  -6.60205224751067E+01  1.13966191821373E+00
(PID.TID 0000.0001)  ploadbar=  1.01132003222655E+05
 cg2d: Sum(rhs),rhsMax =  -6.60604956922450E+01  1.13939702328232E+00
(PID.TID 0000.0001)  ploadbar=  1.01130421924686E+05
 cg2d: Sum(rhs),rhsMax =  -6.60306122416863E+01  1.14035089608268E+00
(PID.TID 0000.0001)  ploadbar=  1.01127996405599E+05
 cg2d: Sum(rhs),rhsMax =  -6.60062803227326E+01  1.14121543205611E+00
(PID.TID 0000.0001)  ploadbar=  1.01125570886512E+05
 cg2d: Sum(rhs),rhsMax =  -6.59808651041732E+01  1.14210422909419E+00
(PID.TID 0000.0001)  ploadbar=  1.01123145367425E+05
 cg2d: Sum(rhs),rhsMax =  -6.59571028115294E+01  1.14296775663560E+00
(PID.TID 0000.0001)  ploadbar=  1.01120719848339E+05
 cg2d: Sum(rhs),rhsMax =  -6.59372317919062E+01  1.14376624771233E+00
(PID.TID 0000.0001)  ploadbar=  1.01118294329252E+05
 cg2d: Sum(rhs),rhsMax =  -6.59192824385520E+01  1.14453127010217E+00
(PID.TID 0000.0001)  ploadbar=  1.01115868810165E+05
 cg2d: Sum(rhs),rhsMax =  -6.58878250723946E+01  1.14548771929104E+00
(PID.TID 0000.0001)  ploadbar=  1.01113846276836E+05
 cg2d: Sum(rhs),rhsMax =  -6.58506443473057E+01  1.14649950491493E+00
(PID.TID 0000.0001)  ploadbar=  1.01111823743507E+05
 cg2d: Sum(rhs),rhsMax =  -6.58075975164190E+01  1.14756896479943E+00
(PID.TID 0000.0001)  ploadbar=  1.01109801210178E+05
 cg2d: Sum(rhs),rhsMax =  -6.57591549903252E+01  1.14868812761270E+00
(PID.TID 0000.0001)  ploadbar=  1.01107778676849E+05
 cg2d: Sum(rhs),rhsMax =  -6.57056875326202E+01  1.14985651028109E+00
(PID.TID 0000.0001)  ploadbar=  1.01105756143521E+05
 cg2d: Sum(rhs),rhsMax =  -6.00927087471238E+01  1.25747474464052E+00
(PID.TID 0000.0001)  ploadbar=  1.01103733610192E+05
 cg2d: Sum(rhs),rhsMax =  -5.34343140589014E+01  1.41450229159854E+00
(PID.TID 0000.0001)  ploadbar=  1.01101930753521E+05
 cg2d: Sum(rhs),rhsMax =  -4.75034519638359E+01  1.59157936500489E+00
(PID.TID 0000.0001)  ploadbar=  1.01100127896850E+05
 cg2d: Sum(rhs),rhsMax =  -4.36884061240521E+01  1.73118354614100E+00
(PID.TID 0000.0001)  ploadbar=  1.01098325040179E+05
 cg2d: Sum(rhs),rhsMax =  -4.07080838293541E+01  1.85870658886913E+00
(PID.TID 0000.0001)  ploadbar=  1.01096522183508E+05
 cg2d: Sum(rhs),rhsMax =  -3.82940763883118E+01  1.97682697354182E+00
(PID.TID 0000.0001)  ploadbar=  1.01094719326837E+05
 cg2d: Sum(rhs),rhsMax =  -3.63337625784099E+01  2.08461235820662E+00
(PID.TID 0000.0001)  ploadbar=  1.01092916470166E+05
 cg2d: Sum(rhs),rhsMax =  -3.47720958897621E+01  2.17940130154675E+00
(PID.TID 0000.0001)  ploadbar=  1.01092494637980E+05
 cg2d: Sum(rhs),rhsMax =  -3.34671554260957E+01  2.26556966457675E+00
(PID.TID 0000.0001)  ploadbar=  1.01092072805793E+05
 cg2d: Sum(rhs),rhsMax =  -3.24179149670082E+01  2.34010925832653E+00
(PID.TID 0000.0001)  ploadbar=  1.01091650973607E+05
 cg2d: Sum(rhs),rhsMax =  -3.15775110316003E+01  2.40362874307534E+00
(PID.TID 0000.0001)  ploadbar=  1.01091229141420E+05
 cg2d: Sum(rhs),rhsMax =  -3.09170747305830E+01  2.45623888590074E+00
(PID.TID 0000.0001)  ploadbar=  1.01090807309233E+05
 cg2d: Sum(rhs),rhsMax =  -3.04137352168184E+01  2.49816928447117E+00
(PID.TID 0000.0001)  ploadbar=  1.01090385477047E+05
 cg2d: Sum(rhs),rhsMax =  -3.00538220198078E+01  2.52937284775383E+00
(PID.TID 0000.0001)  ploadbar=  1.01090068061489E+05
 cg2d: Sum(rhs),rhsMax =  -2.97622003060480E+01  2.55543511580421E+00
(PID.TID 0000.0001)  ploadbar=  1.01089750645932E+05
 cg2d: Sum(rhs),rhsMax =  -2.95271813828909E+01  2.57703967696344E+00
(PID.TID 0000.0001)  ploadbar=  1.01089433230375E+05
 cg2d: Sum(rhs),rhsMax =  -2.93597062608349E+01  2.59298519249125E+00
(PID.TID 0000.0001)  ploadbar=  1.01089115814818E+05
 cg2d: Sum(rhs),rhsMax =  -2.92592703018497E+01  2.60310795278086E+00
(PID.TID 0000.0001)  ploadbar=  1.01088798399260E+05
 cg2d: Sum(rhs),rhsMax =  -2.92262447463232E+01  2.60724217133276E+00
(PID.TID 0000.0001)  ploadbar=  1.01088480983703E+05
 cg2d: Sum(rhs),rhsMax =  -2.92349580765248E+01  2.60746924112606E+00
(PID.TID 0000.0001)  ploadbar=  1.01088112261272E+05
 cg2d: Sum(rhs),rhsMax =  -2.92923395299693E+01  2.60317442544153E+00
(PID.TID 0000.0001)  ploadbar=  1.01087743538840E+05
 cg2d: Sum(rhs),rhsMax =  -2.93882577980887E+01  2.59530685490359E+00
(PID.TID 0000.0001)  ploadbar=  1.01087374816409E+05
 cg2d: Sum(rhs),rhsMax =  -2.95171873353285E+01  2.58442685392248E+00
(PID.TID 0000.0001)  ploadbar=  1.01087006093977E+05
 cg2d: Sum(rhs),rhsMax =  -2.96927942043398E+01  2.56943323761235E+00
(PID.TID 0000.0001)  ploadbar=  1.01086637371546E+05
 cg2d: Sum(rhs),rhsMax =  -3.00604825165768E+01  2.53813748596553E+00
(PID.TID 0000.0001)  ploadbar=  1.01086268649114E+05
 cg2d: Sum(rhs),rhsMax =  -3.05240862183598E+01  2.49980667937294E+00
(PID.TID 0000.0001)  ploadbar=  1.01086035524303E+05
 cg2d: Sum(rhs),rhsMax =  -3.10784501354568E+01  2.45551530573752E+00
(PID.TID 0000.0001)  ploadbar=  1.01085802399491E+05
 cg2d: Sum(rhs),rhsMax =  -3.17011394827023E+01  2.40765857104282E+00
(PID.TID 0000.0001)  ploadbar=  1.01085569274679E+05
 cg2d: Sum(rhs),rhsMax =  -3.24319589184844E+01  2.35385372812691E+00
(PID.TID 0000.0001)  ploadbar=  1.01085336149867E+05
 cg2d: Sum(rhs),rhsMax =  -3.32482013377205E+01  2.29658694894345E+00
(PID.TID 0000.0001)  ploadbar=  1.01085103025056E+05
 cg2d: Sum(rhs),rhsMax =  -3.40387883809533E+01  2.24383690203549E+00
(PID.TID 0000.0001)  ploadbar=  1.01084869900244E+05
 cg2d: Sum(rhs),rhsMax =  -3.48279227954906E+01  2.19350979929174E+00
(PID.TID 0000.0001)  ploadbar=  1.01085249468662E+05
 cg2d: Sum(rhs),rhsMax =  -3.56153659392866E+01  2.14544741930132E+00
(PID.TID 0000.0001)  ploadbar=  1.01085629037079E+05
 cg2d: Sum(rhs),rhsMax =  -3.63927494359548E+01  2.09998101056962E+00
(PID.TID 0000.0001)  ploadbar=  1.01086008605497E+05
 cg2d: Sum(rhs),rhsMax =  -3.69433160494948E+01  2.06898122795993E+00
(PID.TID 0000.0001)  ploadbar=  1.01086388173915E+05
 cg2d: Sum(rhs),rhsMax =  -3.73501871338524E+01  2.04667983858112E+00
(PID.TID 0000.0001)  ploadbar=  1.01086767742332E+05
 cg2d: Sum(rhs),rhsMax =  -3.79018128126901E+01  2.01707110119527E+00
(PID.TID 0000.0001)  ploadbar=  1.01087147310750E+05
 cg2d: Sum(rhs),rhsMax =  -3.84312284964629E+01  1.98948797947972E+00
(PID.TID 0000.0001)  ploadbar=  1.01087972061712E+05
 cg2d: Sum(rhs),rhsMax =  -3.83731398966270E+01  1.99271644364599E+00
(PID.TID 0000.0001)  ploadbar=  1.01088796812674E+05
 cg2d: Sum(rhs),rhsMax =  -3.83246900632070E+01  1.99546355117001E+00
(PID.TID 0000.0001)  ploadbar=  1.01089621563636E+05
 cg2d: Sum(rhs),rhsMax =  -3.83234116856587E+01  1.99577063925113E+00
(PID.TID 0000.0001)  ploadbar=  1.01090446314598E+05
 cg2d: Sum(rhs),rhsMax =  -3.83381395634659E+01  1.99526152699587E+00
(PID.TID 0000.0001)  ploadbar=  1.01091271065560E+05
 cg2d: Sum(rhs),rhsMax =  -3.83815946346558E+01  1.99327626622444E+00
(PID.TID 0000.0001)  ploadbar=  1.01092095816521E+05
 cg2d: Sum(rhs),rhsMax =  -3.83932097223547E+01  1.99284703753311E+00
(PID.TID 0000.0001)  ploadbar=  1.01092457622035E+05
 cg2d: Sum(rhs),rhsMax =  -3.83710235311612E+01  1.99406439727557E+00
(PID.TID 0000.0001)  ploadbar=  1.01092819427548E+05
 cg2d: Sum(rhs),rhsMax =  -3.83170429228258E+01  1.99683205101760E+00
(PID.TID 0000.0001)  ploadbar=  1.01093181233061E+05
 cg2d: Sum(rhs),rhsMax =  -3.82209963293495E+01  2.00170257593141E+00
(PID.TID 0000.0001)  ploadbar=  1.01093543038574E+05
 cg2d: Sum(rhs),rhsMax =  -3.81097011371778E+01  2.00730080577476E+00
(PID.TID 0000.0001)  ploadbar=  1.01093904844088E+05
 cg2d: Sum(rhs),rhsMax =  -3.79903433998107E+01  2.01326597263842E+00
(PID.TID 0000.0001)  ploadbar=  1.01094266649601E+05
 cg2d: Sum(rhs),rhsMax =  -3.78822216987023E+01  2.01881128457267E+00
(PID.TID 0000.0001)  ploadbar=  1.01093969936669E+05
 cg2d: Sum(rhs),rhsMax =  -3.77921555665023E+01  2.02355172471492E+00
(PID.TID 0000.0001)  ploadbar=  1.01093673223737E+05
 cg2d: Sum(rhs),rhsMax =  -3.77259682420441E+01  2.02716139144560E+00
(PID.TID 0000.0001)  ploadbar=  1.01093376510805E+05
 cg2d: Sum(rhs),rhsMax =  -3.76907507429930E+01  2.02924691887354E+00
(PID.TID 0000.0001)  ploadbar=  1.01093079797873E+05
 cg2d: Sum(rhs),rhsMax =  -3.76912525068607E+01  2.02954268433934E+00
(PID.TID 0000.0001)  ploadbar=  1.01092783084941E+05
 cg2d: Sum(rhs),rhsMax =  -3.77260932390503E+01  2.02812159189993E+00
(PID.TID 0000.0001)  ploadbar=  1.01092486372009E+05
 cg2d: Sum(rhs),rhsMax =  -3.77882935292667E+01  2.02524135657457E+00
(PID.TID 0000.0001)  ploadbar=  1.01092940804430E+05
 cg2d: Sum(rhs),rhsMax =  -3.78828094952184E+01  2.02064476175814E+00
(PID.TID 0000.0001)  ploadbar=  1.01093395236851E+05
 cg2d: Sum(rhs),rhsMax =  -3.80048858463857E+01  2.01460956136922E+00
(PID.TID 0000.0001)  ploadbar=  1.01093849669272E+05
 cg2d: Sum(rhs),rhsMax =  -3.81434731467554E+01  2.00775049990011E+00
(PID.TID 0000.0001)  ploadbar=  1.01094304101693E+05
 cg2d: Sum(rhs),rhsMax =  -3.82905595683624E+01  2.00050601436606E+00
(PID.TID 0000.0001)  ploadbar=  1.01094758534114E+05
 cg2d: Sum(rhs),rhsMax =  -3.84396304491665E+01  1.99322990139019E+00
(PID.TID 0000.0001)  ploadbar=  1.01095212966534E+05
 cg2d: Sum(rhs),rhsMax =  -3.85645006851263E+01  1.98734488357865E+00
(PID.TID 0000.0001)  ploadbar=  1.01096361813528E+05
 cg2d: Sum(rhs),rhsMax =  -3.86793394688294E+01  1.98208960852897E+00
(PID.TID 0000.0001)  ploadbar=  1.01097510660522E+05
 cg2d: Sum(rhs),rhsMax =  -3.88054380541489E+01  1.97636904353905E+00
(PID.TID 0000.0001)  ploadbar=  1.01098659507516E+05
 cg2d: Sum(rhs),rhsMax =  -3.89304230995377E+01  1.97082270176206E+00
(PID.TID 0000.0001)  ploadbar=  1.01099808354509E+05
 cg2d: Sum(rhs),rhsMax =  -3.91013577752037E+01  1.96308765474924E+00
(PID.TID 0000.0001)  ploadbar=  1.01100957201503E+05
 cg2d: Sum(rhs),rhsMax =  -3.93250501380451E+01  1.95289201539141E+00
(PID.TID 0000.0001)  ploadbar=  1.01102106048497E+05
 cg2d: Sum(rhs),rhsMax =  -3.95883549344907E+01  1.94071320768651E+00
(PID.TID 0000.0001)  ploadbar=  1.01102552006912E+05
 cg2d: Sum(rhs),rhsMax =  -3.99316776748370E+01  1.92466740971325E+00
(PID.TID 0000.0001)  ploadbar=  1.01102997965327E+05
 cg2d: Sum(rhs),rhsMax =  -4.03768563245135E+01  1.90391923014516E+00
(PID.TID 0000.0001)  ploadbar=  1.01103443923741E+05
 cg2d: Sum(rhs),rhsMax =  -4.09090803801446E+01  1.87945965920629E+00
(PID.TID 0000.0001)  ploadbar=  1.01103889882156E+05
 cg2d: Sum(rhs),rhsMax =  -4.15230349772846E+01  1.85182737684103E+00
(PID.TID 0000.0001)  ploadbar=  1.01104335840571E+05
 cg2d: Sum(rhs),rhsMax =  -4.22152105529768E+01  1.82147148660204E+00
(PID.TID 0000.0001)  ploadbar=  1.01104781798986E+05
 cg2d: Sum(rhs),rhsMax =  -4.30051033030320E+01  1.78808604930650E+00
(PID.TID 0000.0001)  ploadbar=  1.01104262247216E+05
 cg2d: Sum(rhs),rhsMax =  -4.38932856353827E+01  1.75203385098811E+00
(PID.TID 0000.0001)  ploadbar=  1.01103742695446E+05
 cg2d: Sum(rhs),rhsMax =  -4.48655952685586E+01  1.71425335520559E+00
(PID.TID 0000.0001)  ploadbar=  1.01103223143676E+05
 cg2d: Sum(rhs),rhsMax =  -4.58922087288705E+01  1.67615240616332E+00
(PID.TID 0000.0001)  ploadbar=  1.01102703591906E+05
 cg2d: Sum(rhs),rhsMax =  -4.69314967160073E+01  1.63934411794998E+00
(PID.TID 0000.0001)  ploadbar=  1.01102184040136E+05
 cg2d: Sum(rhs),rhsMax =  -4.79357520968684E+01  1.60538081980013E+00
(PID.TID 0000.0001)  ploadbar=  1.01101664488366E+05
 cg2d: Sum(rhs),rhsMax =  -4.88756849382547E+01  1.57486465154876E+00
(PID.TID 0000.0001)  ploadbar=  1.01100879470202E+05
 cg2d: Sum(rhs),rhsMax =  -4.96865301897066E+01  1.54949196279968E+00
(PID.TID 0000.0001)  ploadbar=  1.01100094452038E+05
 cg2d: Sum(rhs),rhsMax =  -5.03284381156953E+01  1.53003595217642E+00
(PID.TID 0000.0001)  ploadbar=  1.01099309433874E+05
 cg2d: Sum(rhs),rhsMax =  -5.07826280665328E+01  1.51664626358537E+00
(PID.TID 0000.0001)  ploadbar=  1.01098524415710E+05
 cg2d: Sum(rhs),rhsMax =  -5.10570687257475E+01  1.50878430267634E+00
(PID.TID 0000.0001)  ploadbar=  1.01097739397546E+05
 cg2d: Sum(rhs),rhsMax =  -5.11881290204659E+01  1.50520954813269E+00
(PID.TID 0000.0001)  ploadbar=  1.01096954379382E+05
 cg2d: Sum(rhs),rhsMax =  -5.12317980804800E+01  1.50427336831937E+00
(PID.TID 0000.0001)  ploadbar=  1.01097866247728E+05
 cg2d: Sum(rhs),rhsMax =  -5.12082152879477E+01  1.50536379705160E+00
(PID.TID 0000.0001)  ploadbar=  1.01098778116075E+05
 cg2d: Sum(rhs),rhsMax =  -5.11581216496196E+01  1.50729063312226E+00
(PID.TID 0000.0001)  ploadbar=  1.01099689984422E+05
 cg2d: Sum(rhs),rhsMax =  -5.13379136882742E+01  1.50251921176332E+00
(PID.TID 0000.0001)  ploadbar=  1.01100601852768E+05
 cg2d: Sum(rhs),rhsMax =  -5.15427711774169E+01  1.49710893762981E+00
(PID.TID 0000.0001)  ploadbar=  1.01101513721115E+05
 cg2d: Sum(rhs),rhsMax =  -5.17820510396974E+01  1.49080957447958E+00
(PID.TID 0000.0001)  ploadbar=  1.01102425589462E+05
 cg2d: Sum(rhs),rhsMax =  -5.20471131246830E+01  1.48377159640484E+00
(PID.TID 0000.0001)  ploadbar=  1.01101447620318E+05
 cg2d: Sum(rhs),rhsMax =  -5.23422584336039E+01  1.47589357311355E+00
(PID.TID 0000.0001)  ploadbar=  1.01100469651175E+05
 cg2d: Sum(rhs),rhsMax =  -5.26629411907670E+01  1.46733268672319E+00
(PID.TID 0000.0001)  ploadbar=  1.01099491682031E+05
 cg2d: Sum(rhs),rhsMax =  -5.29853710694600E+01  1.45876970130635E+00
(PID.TID 0000.0001)  ploadbar=  1.01098513712888E+05
 cg2d: Sum(rhs),rhsMax =  -5.24270366694401E+01  1.47462090762821E+00
(PID.TID 0000.0001)  ploadbar=  1.01097535743744E+05
 cg2d: Sum(rhs),rhsMax =  -5.14937151048853E+01  1.50161728426722E+00
(PID.TID 0000.0001)  ploadbar=  1.01096557774600E+05
 cg2d: Sum(rhs),rhsMax =  -5.06653192572617E+01  1.52648878613704E+00
(PID.TID 0000.0001)  ploadbar=  1.01095417408052E+05
 cg2d: Sum(rhs),rhsMax =  -4.99002074828085E+01  1.55025588773776E+00
(PID.TID 0000.0001)  ploadbar=  1.01094277041504E+05
 cg2d: Sum(rhs),rhsMax =  -4.91789493867848E+01  1.57339699464706E+00
(PID.TID 0000.0001)  ploadbar=  1.01093136674955E+05
 cg2d: Sum(rhs),rhsMax =  -4.85402632427197E+01  1.59454723191744E+00
(PID.TID 0000.0001)  ploadbar=  1.01091996308407E+05
 cg2d: Sum(rhs),rhsMax =  -4.79732108112100E+01  1.61388959092396E+00
(PID.TID 0000.0001)  ploadbar=  1.01090855941858E+05
 cg2d: Sum(rhs),rhsMax =  -4.74565659711598E+01  1.63200450754967E+00
(PID.TID 0000.0001)  ploadbar=  1.01089715575310E+05
 cg2d: Sum(rhs),rhsMax =  -4.70146219779915E+01  1.64784924548731E+00
(PID.TID 0000.0001)  ploadbar=  1.01088917077108E+05
 cg2d: Sum(rhs),rhsMax =  -4.66326884487020E+01  1.66180405307949E+00
(PID.TID 0000.0001)  ploadbar=  1.01088118578906E+05
 cg2d: Sum(rhs),rhsMax =  -4.63239935794989E+01  1.67329589898222E+00
(PID.TID 0000.0001)  ploadbar=  1.01087320080703E+05
 cg2d: Sum(rhs),rhsMax =  -4.60776550163099E+01  1.68262342548485E+00
(PID.TID 0000.0001)  ploadbar=  1.01086521582501E+05
 cg2d: Sum(rhs),rhsMax =  -4.58949682204472E+01  1.68967139665046E+00
(PID.TID 0000.0001)  ploadbar=  1.01085723084299E+05
 cg2d: Sum(rhs),rhsMax =  -4.57830653654131E+01  1.69412273900752E+00
(PID.TID 0000.0001)  ploadbar=  1.01084924586097E+05
 cg2d: Sum(rhs),rhsMax =  -4.59226223070612E+01  1.68934238749159E+00
(PID.TID 0000.0001)  ploadbar=  1.01084589394568E+05
 cg2d: Sum(rhs),rhsMax =  -4.62025510251962E+01  1.67951229816914E+00
(PID.TID 0000.0001)  ploadbar=  1.01084254203040E+05
 cg2d: Sum(rhs),rhsMax =  -4.65954768622402E+01  1.66579123740582E+00
(PID.TID 0000.0001)  ploadbar=  1.01083919011511E+05
 cg2d: Sum(rhs),rhsMax =  -4.70550365165493E+01  1.65000246940061E+00
(PID.TID 0000.0001)  ploadbar=  1.01083583819983E+05
 cg2d: Sum(rhs),rhsMax =  -4.70124103939092E+01  1.65202271598758E+00
(PID.TID 0000.0001)  ploadbar=  1.01083248628454E+05
 cg2d: Sum(rhs),rhsMax =  -4.70071344946847E+01  1.65278199533967E+00
(PID.TID 0000.0001)  ploadbar=  1.01082913436926E+05
 cg2d: Sum(rhs),rhsMax =  -4.70581712942770E+01  1.65146651514379E+00
(PID.TID 0000.0001)  ploadbar=  1.01082497616806E+05
 cg2d: Sum(rhs),rhsMax =  -4.71342652588965E+01  1.64916932694668E+00
(PID.TID 0000.0001)  ploadbar=  1.01082081796687E+05
 cg2d: Sum(rhs),rhsMax =  -4.72639444566126E+01  1.64490896730596E+00
(PID.TID 0000.0001)  ploadbar=  1.01081665976568E+05
 cg2d: Sum(rhs),rhsMax =  -4.74021870262059E+01  1.64027812019398E+00
(PID.TID 0000.0001)  ploadbar=  1.01081250156449E+05
 cg2d: Sum(rhs),rhsMax =  -4.75282597064951E+01  1.63599960962851E+00
(PID.TID 0000.0001)  ploadbar=  1.01080834336329E+05
 cg2d: Sum(rhs),rhsMax =  -4.76504150943683E+01  1.63178344076367E+00
(PID.TID 0000.0001)  ploadbar=  1.01080418516210E+05
 cg2d: Sum(rhs),rhsMax =  -4.77785860773970E+01  1.62750020641517E+00
(PID.TID 0000.0001)  ploadbar=  1.01079408454039E+05
 cg2d: Sum(rhs),rhsMax =  -4.79254697119274E+01  1.62271104494141E+00
(PID.TID 0000.0001)  ploadbar=  1.01078398391868E+05
 cg2d: Sum(rhs),rhsMax =  -4.80604376811390E+01  1.61845393600556E+00
(PID.TID 0000.0001)  ploadbar=  1.01077388329697E+05
 cg2d: Sum(rhs),rhsMax =  -4.81906647346799E+01  1.61448378924122E+00
(PID.TID 0000.0001)  ploadbar=  1.01076378267526E+05
 cg2d: Sum(rhs),rhsMax =  -4.83220379236969E+01  1.61060745373745E+00
(PID.TID 0000.0001)  ploadbar=  1.01075368205355E+05
 cg2d: Sum(rhs),rhsMax =  -4.84565816270611E+01  1.60675774301943E+00
(PID.TID 0000.0001)  ploadbar=  1.01074358143184E+05
 cg2d: Sum(rhs),rhsMax =  -4.85692043418036E+01  1.60360695337193E+00
(PID.TID 0000.0001)  ploadbar=  1.01074003273582E+05
 cg2d: Sum(rhs),rhsMax =  -4.86932331211418E+01  1.60004669135349E+00
(PID.TID 0000.0001)  ploadbar=  1.01073648403980E+05
 cg2d: Sum(rhs),rhsMax =  -4.88111125210256E+01  1.59666129779622E+00
(PID.TID 0000.0001)  ploadbar=  1.01073293534379E+05
 cg2d: Sum(rhs),rhsMax =  -4.89207604709491E+01  1.59352170725384E+00
(PID.TID 0000.0001)  ploadbar=  1.01072938664777E+05
 cg2d: Sum(rhs),rhsMax =  -4.90289608257659E+01  1.59041301234519E+00
(PID.TID 0000.0001)  ploadbar=  1.01072583795175E+05
 cg2d: Sum(rhs),rhsMax =  -4.91308222725005E+01  1.58749640464171E+00
(PID.TID 0000.0001)  ploadbar=  1.01072228925573E+05
 cg2d: Sum(rhs),rhsMax =  -4.92388293502099E+01  1.58444897571304E+00
(PID.TID 0000.0001)  ploadbar=  1.01071869444184E+05
 cg2d: Sum(rhs),rhsMax =  -4.93459902542041E+01  1.58148809962944E+00
(PID.TID 0000.0001)  ploadbar=  1.01071509962796E+05
 cg2d: Sum(rhs),rhsMax =  -4.94438341611473E+01  1.57888122755575E+00
(PID.TID 0000.0001)  ploadbar=  1.01071150481408E+05
 cg2d: Sum(rhs),rhsMax =  -4.95322808331849E+01  1.57663028403840E+00
(PID.TID 0000.0001)  ploadbar=  1.01070791000019E+05
 cg2d: Sum(rhs),rhsMax =  -4.96136495001153E+01  1.57465909380055E+00
(PID.TID 0000.0001)  ploadbar=  1.01070431518631E+05
 cg2d: Sum(rhs),rhsMax =  -4.96918242054741E+01  1.57284519896084E+00
(PID.TID 0000.0001)  ploadbar=  1.01070072037242E+05
 cg2d: Sum(rhs),rhsMax =  -4.97431399411092E+01  1.57176960531884E+00
(PID.TID 0000.0001)  ploadbar=  1.01070701613366E+05
 cg2d: Sum(rhs),rhsMax =  -4.97944569250134E+01  1.57057632764695E+00
(PID.TID 0000.0001)  ploadbar=  1.01071331189489E+05
 cg2d: Sum(rhs),rhsMax =  -4.98417636630478E+01  1.56939631100258E+00
(PID.TID 0000.0001)  ploadbar=  1.01071960765612E+05
 cg2d: Sum(rhs),rhsMax =  -4.98850445944939E+01  1.56823544965125E+00
(PID.TID 0000.0001)  ploadbar=  1.01072590341736E+05
 cg2d: Sum(rhs),rhsMax =  -4.99239778489033E+01  1.56711134374508E+00
(PID.TID 0000.0001)  ploadbar=  1.01073219917859E+05
 cg2d: Sum(rhs),rhsMax =  -4.99563727610526E+01  1.56608682030810E+00
(PID.TID 0000.0001)  ploadbar=  1.01073849493982E+05
 cg2d: Sum(rhs),rhsMax =  -4.99885613655399E+01  1.56515709698461E+00
(PID.TID 0000.0001)  ploadbar=  1.01076294616213E+05
 cg2d: Sum(rhs),rhsMax =  -5.00226231542375E+01  1.56425193434070E+00
(PID.TID 0000.0001)  ploadbar=  1.01078739738443E+05
 cg2d: Sum(rhs),rhsMax =  -4.99293245404103E+01  1.56741715051736E+00
(PID.TID 0000.0001)  ploadbar=  1.01081184860674E+05
 cg2d: Sum(rhs),rhsMax =  -4.98021392216903E+01  1.57174782125826E+00
(PID.TID 0000.0001)  ploadbar=  1.01083629982904E+05
 cg2d: Sum(rhs),rhsMax =  -4.96749461641374E+01  1.57618463404744E+00
(PID.TID 0000.0001)  ploadbar=  1.01086075105134E+05
 cg2d: Sum(rhs),rhsMax =  -4.95545774750072E+01  1.58051539957724E+00
(PID.TID 0000.0001)  ploadbar=  1.01088520227365E+05
 cg2d: Sum(rhs),rhsMax =  -4.94446463604361E+01  1.58450972558258E+00
(PID.TID 0000.0001)  ploadbar=  1.01089976672272E+05
 cg2d: Sum(rhs),rhsMax =  -4.93352858231178E+01  1.58847837590886E+00
(PID.TID 0000.0001)  ploadbar=  1.01091433117179E+05
 cg2d: Sum(rhs),rhsMax =  -4.92273918080286E+01  1.59239497103645E+00
(PID.TID 0000.0001)  ploadbar=  1.01092889562086E+05
 cg2d: Sum(rhs),rhsMax =  -4.91221861362122E+01  1.59622880588790E+00
(PID.TID 0000.0001)  ploadbar=  1.01094346006994E+05
 cg2d: Sum(rhs),rhsMax =  -4.90209076066943E+01  1.59995635941475E+00
(PID.TID 0000.0001)  ploadbar=  1.01095802451901E+05
 cg2d: Sum(rhs),rhsMax =  -4.89237523885396E+01  1.60357494902586E+00
(PID.TID 0000.0001)  ploadbar=  1.01097258896808E+05
 cg2d: Sum(rhs),rhsMax =  -4.88479266122723E+01  1.60650998599224E+00
(PID.TID 0000.0001)  ploadbar=  1.01098826128281E+05
 cg2d: Sum(rhs),rhsMax =  -4.87801806017569E+01  1.60918063816716E+00
(PID.TID 0000.0001)  ploadbar=  1.01100393359753E+05
 cg2d: Sum(rhs),rhsMax =  -4.87251584077479E+01  1.61143516079934E+00
(PID.TID 0000.0001)  ploadbar=  1.01101960591226E+05
 cg2d: Sum(rhs),rhsMax =  -4.86812384473861E+01  1.61332976905830E+00
(PID.TID 0000.0001)  ploadbar=  1.01103527822699E+05
 cg2d: Sum(rhs),rhsMax =  -4.86485157871505E+01  1.61486526691024E+00
(PID.TID 0000.0001)  ploadbar=  1.01105095054172E+05
 cg2d: Sum(rhs),rhsMax =  -4.86280421033892E+01  1.61601022079814E+00
(PID.TID 0000.0001)  ploadbar=  1.01106662285644E+05
 cg2d: Sum(rhs),rhsMax =  -4.85914052685595E+01  1.61760914161664E+00
(PID.TID 0000.0001)  ploadbar=  1.01107711162489E+05
 cg2d: Sum(rhs),rhsMax =  -4.85390120309739E+01  1.61964431068307E+00
(PID.TID 0000.0001)  ploadbar=  1.01108760039333E+05
 cg2d: Sum(rhs),rhsMax =  -4.84643159547142E+01  1.62233859662483E+00
(PID.TID 0000.0001)  ploadbar=  1.01109808916177E+05
 cg2d: Sum(rhs),rhsMax =  -4.83638062801137E+01  1.62582220113801E+00
(PID.TID 0000.0001)  ploadbar=  1.01110857793021E+05
 cg2d: Sum(rhs),rhsMax =  -4.82386153662265E+01  1.63007167502985E+00
(PID.TID 0000.0001)  ploadbar=  1.01111906669866E+05
 cg2d: Sum(rhs),rhsMax =  -4.80882936805900E+01  1.63511485716238E+00
(PID.TID 0000.0001)  ploadbar=  1.01112955546710E+05
 cg2d: Sum(rhs),rhsMax =  -4.79451181378204E+01  1.64000944345255E+00
(PID.TID 0000.0001)  ploadbar=  1.01114218170926E+05
 cg2d: Sum(rhs),rhsMax =  -4.78118893327610E+01  1.64464675431490E+00
(PID.TID 0000.0001)  ploadbar=  1.01115480795141E+05
 cg2d: Sum(rhs),rhsMax =  -4.76959782758107E+01  1.64876390445852E+00
(PID.TID 0000.0001)  ploadbar=  1.01116743419357E+05
 cg2d: Sum(rhs),rhsMax =  -4.76025549820388E+01  1.65216789890909E+00
(PID.TID 0000.0001)  ploadbar=  1.01118006043573E+05
 cg2d: Sum(rhs),rhsMax =  -4.75391265616637E+01  1.65458396785699E+00
(PID.TID 0000.0001)  ploadbar=  1.01119268667788E+05
 cg2d: Sum(rhs),rhsMax =  -4.75094652977855E+01  1.65587022499680E+00
(PID.TID 0000.0001)  ploadbar=  1.01120531292004E+05
 cg2d: Sum(rhs),rhsMax =  -4.75490832379425E+01  1.65472765278342E+00
(PID.TID 0000.0001)  ploadbar=  1.01120968236858E+05
 cg2d: Sum(rhs),rhsMax =  -4.76348831824118E+01  1.65197317981268E+00
(PID.TID 0000.0001)  ploadbar=  1.01121405181711E+05
 cg2d: Sum(rhs),rhsMax =  -4.77457827772827E+01  1.64836049047671E+00
(PID.TID 0000.0001)  ploadbar=  1.01121842126565E+05
 cg2d: Sum(rhs),rhsMax =  -4.78876660880958E+01  1.64371033782676E+00
(PID.TID 0000.0001)  ploadbar=  1.01122279071418E+05
 cg2d: Sum(rhs),rhsMax =  -4.80616428680298E+01  1.63800748636596E+00
(PID.TID 0000.0001)  ploadbar=  1.01122716016272E+05
 cg2d: Sum(rhs),rhsMax =  -4.78930482231551E+01  1.64403524033706E+00
(PID.TID 0000.0001)  ploadbar=  1.01123152961125E+05
 cg2d: Sum(rhs),rhsMax =  -4.74938322482897E+01  1.65816160260474E+00
(PID.TID 0000.0001)  ploadbar=  1.01123125084198E+05
 cg2d: Sum(rhs),rhsMax =  -4.71407966778957E+01  1.67092017802066E+00
(PID.TID 0000.0001)  ploadbar=  1.01123097207271E+05
 cg2d: Sum(rhs),rhsMax =  -4.68266825414696E+01  1.68250194097471E+00
(PID.TID 0000.0001)  ploadbar=  1.01123069330344E+05
 cg2d: Sum(rhs),rhsMax =  -4.65508655158008E+01  1.69288049614010E+00
(PID.TID 0000.0001)  ploadbar=  1.01123041453417E+05
 cg2d: Sum(rhs),rhsMax =  -4.63073559344478E+01  1.70223390614166E+00
(PID.TID 0000.0001)  ploadbar=  1.01123013576490E+05
 cg2d: Sum(rhs),rhsMax =  -4.60862513813179E+01  1.71089437239741E+00
(PID.TID 0000.0001)  ploadbar=  1.01122985699563E+05
 cg2d: Sum(rhs),rhsMax =  -4.58739371730180E+01  1.71926000147355E+00
(PID.TID 0000.0001)  ploadbar=  1.01123429544169E+05
 cg2d: Sum(rhs),rhsMax =  -4.56856740407315E+01  1.72673553641323E+00
(PID.TID 0000.0001)  ploadbar=  1.01123873388774E+05
 cg2d: Sum(rhs),rhsMax =  -4.55232111379329E+01  1.73323231496831E+00
(PID.TID 0000.0001)  ploadbar=  1.01124317233380E+05
 cg2d: Sum(rhs),rhsMax =  -4.54137335286687E+01  1.73769040674274E+00
(PID.TID 0000.0001)  ploadbar=  1.01124761077985E+05
 cg2d: Sum(rhs),rhsMax =  -4.53696248718069E+01  1.73961169881396E+00
(PID.TID 0000.0001)  ploadbar=  1.01125204922591E+05
 cg2d: Sum(rhs),rhsMax =  -4.53828069434678E+01  1.73929580709440E+00
(PID.TID 0000.0001)  ploadbar=  1.01125648767196E+05
 cg2d: Sum(rhs),rhsMax =  -4.54294418083519E+01  1.73776560627976E+00
(PID.TID 0000.0001)  ploadbar=  1.01126114728581E+05
 cg2d: Sum(rhs),rhsMax =  -4.54952380999147E+01  1.73556708537483E+00
(PID.TID 0000.0001)  ploadbar=  1.01126580689967E+05
 cg2d: Sum(rhs),rhsMax =  -4.55704299128728E+01  1.73307741319403E+00
(PID.TID 0000.0001)  ploadbar=  1.01127046651352E+05
 cg2d: Sum(rhs),rhsMax =  -4.56526227411555E+01  1.73039069271617E+00
(PID.TID 0000.0001)  ploadbar=  1.01127512612738E+05
 cg2d: Sum(rhs),rhsMax =  -4.57433353416295E+01  1.72745228411026E+00
(PID.TID 0000.0001)  ploadbar=  1.01127978574123E+05
 cg2d: Sum(rhs),rhsMax =  -4.58385806159952E+01  1.72441342923374E+00
(PID.TID 0000.0001)  ploadbar=  1.01128444535509E+05
 cg2d: Sum(rhs),rhsMax =  -4.59236311309661E+01  1.72175258423781E+00
(PID.TID 0000.0001)  ploadbar=  1.01127869212134E+05
 cg2d: Sum(rhs),rhsMax =  -4.60046850756990E+01  1.71923707612944E+00
(PID.TID 0000.0001)  ploadbar=  1.01127293888759E+05
 cg2d: Sum(rhs),rhsMax =  -4.60790683727806E+01  1.71697349246626E+00
(PID.TID 0000.0001)  ploadbar=  1.01126718565384E+05
 cg2d: Sum(rhs),rhsMax =  -4.61475550480652E+01  1.71493494004595E+00
(PID.TID 0000.0001)  ploadbar=  1.01126143242010E+05
 cg2d: Sum(rhs),rhsMax =  -4.62096489484906E+01  1.71314115692831E+00
(PID.TID 0000.0001)  ploadbar=  1.01125567918635E+05
 cg2d: Sum(rhs),rhsMax =  -4.62639447701986E+01  1.71164493629665E+00
(PID.TID 0000.0001)  ploadbar=  1.01124992595260E+05
 cg2d: Sum(rhs),rhsMax =  -4.62887205703940E+01  1.71131298373362E+00
(PID.TID 0000.0001)  ploadbar=  1.01123889703643E+05
 cg2d: Sum(rhs),rhsMax =  -4.63007167658573E+01  1.71151821992501E+00
(PID.TID 0000.0001)  ploadbar=  1.01122786812026E+05
 cg2d: Sum(rhs),rhsMax =  -4.62946665717974E+01  1.71246252966481E+00
(PID.TID 0000.0001)  ploadbar=  1.01121683920409E+05
 cg2d: Sum(rhs),rhsMax =  -4.62686811725952E+01  1.71421895659588E+00
(PID.TID 0000.0001)  ploadbar=  1.01120581028792E+05
 cg2d: Sum(rhs),rhsMax =  -4.62227345701276E+01  1.71678812289679E+00
(PID.TID 0000.0001)  ploadbar=  1.01119478137175E+05
 cg2d: Sum(rhs),rhsMax =  -4.55161978630974E+01  1.74438976578509E+00
(PID.TID 0000.0001)  ploadbar=  1.01118375245558E+05
 cg2d: Sum(rhs),rhsMax =  -4.43689689339110E+01  1.79039151289152E+00
(PID.TID 0000.0001)  ploadbar=  1.01117530520058E+05
 cg2d: Sum(rhs),rhsMax =  -4.31417054599053E+01  1.84215635699239E+00
(PID.TID 0000.0001)  ploadbar=  1.01116685794558E+05
 cg2d: Sum(rhs),rhsMax =  -4.19917360325569E+01  1.89337113641272E+00
(PID.TID 0000.0001)  ploadbar=  1.01115841069058E+05
 cg2d: Sum(rhs),rhsMax =  -4.09512730988878E+01  1.94217273511977E+00
(PID.TID 0000.0001)  ploadbar=  1.01114996343558E+05
 cg2d: Sum(rhs),rhsMax =  -3.99989695455190E+01  1.98903817376874E+00
(PID.TID 0000.0001)  ploadbar=  1.01114151618058E+05
 cg2d: Sum(rhs),rhsMax =  -3.91241117022124E+01  2.03406935058964E+00
(PID.TID 0000.0001)  ploadbar=  1.01113306892558E+05
 cg2d: Sum(rhs),rhsMax =  -3.83277840617901E+01  2.07701002152891E+00
(PID.TID 0000.0001)  ploadbar=  1.01113344777367E+05
 cg2d: Sum(rhs),rhsMax =  -3.75981810691671E+01  2.11811638717746E+00
(PID.TID 0000.0001)  ploadbar=  1.01113382662175E+05
 cg2d: Sum(rhs),rhsMax =  -3.68506175875124E+01  2.16201165449159E+00
(PID.TID 0000.0001)  ploadbar=  1.01113420546984E+05
 cg2d: Sum(rhs),rhsMax =  -3.60512761226910E+01  2.21100622828641E+00
(PID.TID 0000.0001)  ploadbar=  1.01113458431793E+05
 cg2d: Sum(rhs),rhsMax =  -3.52403037550035E+01  2.26307977366563E+00
(PID.TID 0000.0001)  ploadbar=  1.01113496316602E+05
 cg2d: Sum(rhs),rhsMax =  -3.44464177351993E+01  2.31657572567194E+00
(PID.TID 0000.0001)  ploadbar=  1.01113534201411E+05
 cg2d: Sum(rhs),rhsMax =  -3.32978761533936E+01  2.39778830400249E+00
(PID.TID 0000.0001)  ploadbar=  1.01114002183040E+05
 cg2d: Sum(rhs),rhsMax =  -3.17985859796172E+01  2.51213847887921E+00
(PID.TID 0000.0001)  ploadbar=  1.01114470164668E+05
 cg2d: Sum(rhs),rhsMax =  -3.02044198830632E+01  2.64602748424634E+00
(PID.TID 0000.0001)  ploadbar=  1.01114938146297E+05
 cg2d: Sum(rhs),rhsMax =  -2.86267191462739E+01  2.79317244910789E+00
(PID.TID 0000.0001)  ploadbar=  1.01115406127926E+05
 cg2d: Sum(rhs),rhsMax =  -2.71828886711657E+01  2.94286826867015E+00
(PID.TID 0000.0001)  ploadbar=  1.01115874109554E+05
 cg2d: Sum(rhs),rhsMax =  -2.59478730742941E+01  3.08428518225521E+00
(PID.TID 0000.0001)  ploadbar=  1.01116342091183E+05
 cg2d: Sum(rhs),rhsMax =  -2.48393771223737E+01  3.22335894653218E+00
(PID.TID 0000.0001)  ploadbar=  1.01116283101739E+05
 cg2d: Sum(rhs),rhsMax =  -2.37888313129501E+01  3.36722018915763E+00
(PID.TID 0000.0001)  ploadbar=  1.01116224112295E+05
 cg2d: Sum(rhs),rhsMax =  -2.28564172782993E+01  3.50619334726689E+00
(PID.TID 0000.0001)  ploadbar=  1.01116165122852E+05
 cg2d: Sum(rhs),rhsMax =  -2.20283309041320E+01  3.63971996492072E+00
(PID.TID 0000.0001)  ploadbar=  1.01116106133408E+05
 cg2d: Sum(rhs),rhsMax =  -2.12888192106593E+01  3.76800160066344E+00
(PID.TID 0000.0001)  ploadbar=  1.01116047143965E+05
 cg2d: Sum(rhs),rhsMax =  -2.06219683254319E+01  3.89182865281597E+00
(PID.TID 0000.0001)  ploadbar=  1.01115988154521E+05
 cg2d: Sum(rhs),rhsMax =  -1.99699156234850E+01  4.02069364168867E+00
(PID.TID 0000.0001)  ploadbar=  1.01116445435245E+05
 cg2d: Sum(rhs),rhsMax =  -1.93386801712386E+01  4.15349644716376E+00
(PID.TID 0000.0001)  ploadbar=  1.01116902715969E+05
 cg2d: Sum(rhs),rhsMax =  -1.87537908336336E+01  4.28436280434542E+00
(PID.TID 0000.0001)  ploadbar=  1.01117359996694E+05
 cg2d: Sum(rhs),rhsMax =  -1.88005084005870E+01  4.27477735971341E+00
(PID.TID 0000.0001)  ploadbar=  1.01117817277418E+05
 cg2d: Sum(rhs),rhsMax =  -1.90933577437236E+01  4.21000148824039E+00
(PID.TID 0000.0001)  ploadbar=  1.01118274558142E+05
 cg2d: Sum(rhs),rhsMax =  -1.95078397200361E+01  4.12108456638004E+00
(PID.TID 0000.0001)  ploadbar=  1.01118731838866E+05
 cg2d: Sum(rhs),rhsMax =  -1.99538697314795E+01  4.02973781288130E+00
(PID.TID 0000.0001)  ploadbar=  1.01118599986065E+05
 cg2d: Sum(rhs),rhsMax =  -2.04003820999559E+01  3.94253842566316E+00
(PID.TID 0000.0001)  ploadbar=  1.01118468133263E+05
 cg2d: Sum(rhs),rhsMax =  -2.08161109696528E+01  3.86502670668938E+00
(PID.TID 0000.0001)  ploadbar=  1.01118336280462E+05
 cg2d: Sum(rhs),rhsMax =  -2.12142223186683E+01  3.79394293751374E+00
(PID.TID 0000.0001)  ploadbar=  1.01118204427660E+05
 cg2d: Sum(rhs),rhsMax =  -2.15630939195444E+01  3.73423785217080E+00
(PID.TID 0000.0001)  ploadbar=  1.01118072574858E+05
 cg2d: Sum(rhs),rhsMax =  -2.18530110266923E+01  3.68661477526742E+00
(PID.TID 0000.0001)  ploadbar=  1.01117940722057E+05
 cg2d: Sum(rhs),rhsMax =  -2.20697890833329E+01  3.65218539089210E+00
(PID.TID 0000.0001)  ploadbar=  1.01118639590080E+05
 cg2d: Sum(rhs),rhsMax =  -2.22536447258240E+01  3.62367344157420E+00
(PID.TID 0000.0001)  ploadbar=  1.01119338458104E+05
 cg2d: Sum(rhs),rhsMax =  -2.24182302151892E+01  3.59863823196354E+00
(PID.TID 0000.0001)  ploadbar=  1.01120037326127E+05
 cg2d: Sum(rhs),rhsMax =  -2.25688828870647E+01  3.57610172954318E+00
(PID.TID 0000.0001)  ploadbar=  1.01120736194151E+05
 cg2d: Sum(rhs),rhsMax =  -2.27133348245960E+01  3.55476877469720E+00
(PID.TID 0000.0001)  ploadbar=  1.01121435062174E+05
 cg2d: Sum(rhs),rhsMax =  -2.28568496634056E+01  3.53379047653790E+00
(PID.TID 0000.0001)  ploadbar=  1.01122133930198E+05
 cg2d: Sum(rhs),rhsMax =  -2.30009151489087E+01  3.51300547720708E+00
(PID.TID 0000.0001)  ploadbar=  1.01123269075583E+05
 cg2d: Sum(rhs),rhsMax =  -2.31482679376964E+01  3.49198814571073E+00
(PID.TID 0000.0001)  ploadbar=  1.01124404220968E+05
 cg2d: Sum(rhs),rhsMax =  -2.32975791081956E+01  3.47095528245588E+00
(PID.TID 0000.0001)  ploadbar=  1.01125539366354E+05
 cg2d: Sum(rhs),rhsMax =  -2.34465465264980E+01  3.45026308189179E+00
(PID.TID 0000.0001)  ploadbar=  1.01126674511739E+05
 cg2d: Sum(rhs),rhsMax =  -2.35919998538941E+01  3.43037762139680E+00
(PID.TID 0000.0001)  ploadbar=  1.01127809657124E+05
 cg2d: Sum(rhs),rhsMax =  -2.37333392582080E+01  3.41136763515568E+00
(PID.TID 0000.0001)  ploadbar=  1.01128944802510E+05
 cg2d: Sum(rhs),rhsMax =  -2.38729518945028E+01  3.39260600152316E+00
(PID.TID 0000.0001)  ploadbar=  1.01129292402712E+05
 cg2d: Sum(rhs),rhsMax =  -2.40083479813642E+01  3.37442644257252E+00
(PID.TID 0000.0001)  ploadbar=  1.01129640002914E+05
 cg2d: Sum(rhs),rhsMax =  -2.41400592491577E+01  3.35674508532651E+00
(PID.TID 0000.0001)  ploadbar=  1.01129987603116E+05
 cg2d: Sum(rhs),rhsMax =  -2.42694445439429E+01  3.33937082410050E+00
(PID.TID 0000.0001)  ploadbar=  1.01130335203318E+05
 cg2d: Sum(rhs),rhsMax =  -2.43976253962510E+01  3.32216455543308E+00
(PID.TID 0000.0001)  ploadbar=  1.01130682803520E+05
 cg2d: Sum(rhs),rhsMax =  -2.45248967446890E+01  3.30508012680077E+00
(PID.TID 0000.0001)  ploadbar=  1.01131030403723E+05
 cg2d: Sum(rhs),rhsMax =  -2.46525202738358E+01  3.28822735290657E+00
(PID.TID 0000.0001)  ploadbar=  1.01131474366870E+05
 cg2d: Sum(rhs),rhsMax =  -2.47789145354415E+01  3.27180630363212E+00
(PID.TID 0000.0001)  ploadbar=  1.01131918330018E+05
 cg2d: Sum(rhs),rhsMax =  -2.49023779166563E+01  3.25603397530435E+00
(PID.TID 0000.0001)  ploadbar=  1.01132362293166E+05
 cg2d: Sum(rhs),rhsMax =  -2.50232182444439E+01  3.24085519986505E+00
(PID.TID 0000.0001)  ploadbar=  1.01132806256313E+05
 cg2d: Sum(rhs),rhsMax =  -2.51419094537797E+01  3.22620440481092E+00
(PID.TID 0000.0001)  ploadbar=  1.01133250219461E+05
 cg2d: Sum(rhs),rhsMax =  -2.52590614324604E+01  3.21199769084810E+00
(PID.TID 0000.0001)  ploadbar=  1.01133694182609E+05
 cg2d: Sum(rhs),rhsMax =  -2.53741015717938E+01  3.19811668214491E+00
(PID.TID 0000.0001)  ploadbar=  1.01133512208237E+05
 cg2d: Sum(rhs),rhsMax =  -2.54905899290426E+01  3.18411084164765E+00
(PID.TID 0000.0001)  ploadbar=  1.01133330233865E+05
 cg2d: Sum(rhs),rhsMax =  -2.56120557980401E+01  3.16956341753116E+00
(PID.TID 0000.0001)  ploadbar=  1.01133148259492E+05
 cg2d: Sum(rhs),rhsMax =  -2.57401821469134E+01  3.15429896139813E+00
(PID.TID 0000.0001)  ploadbar=  1.01132966285120E+05
 cg2d: Sum(rhs),rhsMax =  -2.58768411218612E+01  3.13812211065624E+00
(PID.TID 0000.0001)  ploadbar=  1.01132784310748E+05
 cg2d: Sum(rhs),rhsMax =  -2.60240577615650E+01  3.12083514078732E+00
(PID.TID 0000.0001)  ploadbar=  1.01132602336376E+05
 cg2d: Sum(rhs),rhsMax =  -2.61837167287040E+01  3.10233953801612E+00
(PID.TID 0000.0001)  ploadbar=  1.01131281307556E+05
 cg2d: Sum(rhs),rhsMax =  -2.63554545467657E+01  3.08271303463534E+00
(PID.TID 0000.0001)  ploadbar=  1.01129960278736E+05
 cg2d: Sum(rhs),rhsMax =  -2.65419005044296E+01  3.06170180782606E+00
(PID.TID 0000.0001)  ploadbar=  1.01128639249916E+05
 cg2d: Sum(rhs),rhsMax =  -2.67444472288727E+01  3.03920958837344E+00
(PID.TID 0000.0001)  ploadbar=  1.01127318221096E+05
 cg2d: Sum(rhs),rhsMax =  -2.69644481981937E+01  3.01516433746316E+00
(PID.TID 0000.0001)  ploadbar=  1.01125997192276E+05
 cg2d: Sum(rhs),rhsMax =  -2.72041804165590E+01  2.98940258768698E+00
(PID.TID 0000.0001)  ploadbar=  1.01124676163456E+05
 cg2d: Sum(rhs),rhsMax =  -2.74653389868609E+01  2.96165054324656E+00
(PID.TID 0000.0001)  ploadbar=  1.01123539818722E+05
 cg2d: Sum(rhs),rhsMax =  -2.77469041306833E+01  2.93212527658664E+00
(PID.TID 0000.0001)  ploadbar=  1.01122403473989E+05
 cg2d: Sum(rhs),rhsMax =  -2.80463711792873E+01  2.90120765711252E+00
(PID.TID 0000.0001)  ploadbar=  1.01121267129255E+05
 cg2d: Sum(rhs),rhsMax =  -2.83578838651879E+01  2.86960194382374E+00
(PID.TID 0000.0001)  ploadbar=  1.01120130784522E+05
 cg2d: Sum(rhs),rhsMax =  -2.86719217226318E+01  2.83832232172426E+00
(PID.TID 0000.0001)  ploadbar=  1.01118994439788E+05
 cg2d: Sum(rhs),rhsMax =  -2.89808425985642E+01  2.80810779838512E+00
(PID.TID 0000.0001)  ploadbar=  1.01117858095055E+05
 cg2d: Sum(rhs),rhsMax =  -2.92827142060084E+01  2.77927223617180E+00
(PID.TID 0000.0001)  ploadbar=  1.01116993746516E+05
 cg2d: Sum(rhs),rhsMax =  -2.95869029908222E+01  2.75088103504943E+00
(PID.TID 0000.0001)  ploadbar=  1.01116129397977E+05
 cg2d: Sum(rhs),rhsMax =  -2.98926172340361E+01  2.72299510836773E+00
(PID.TID 0000.0001)  ploadbar=  1.01115265049438E+05
 cg2d: Sum(rhs),rhsMax =  -3.02018858285485E+01  2.69542217274236E+00
(PID.TID 0000.0001)  ploadbar=  1.01114400700899E+05
 cg2d: Sum(rhs),rhsMax =  -3.05206992740581E+01  2.66764111751587E+00
(PID.TID 0000.0001)  ploadbar=  1.01113536352360E+05
 cg2d: Sum(rhs),rhsMax =  -3.08554093143619E+01  2.63914111353887E+00
(PID.TID 0000.0001)  ploadbar=  1.01112672003821E+05
 cg2d: Sum(rhs),rhsMax =  -3.11994136931867E+01  2.61044816952645E+00
(PID.TID 0000.0001)  ploadbar=  1.01111492015899E+05
 cg2d: Sum(rhs),rhsMax =  -3.15549257312115E+01  2.58141260302901E+00
(PID.TID 0000.0001)  ploadbar=  1.01110312027978E+05
 cg2d: Sum(rhs),rhsMax =  -3.19183434027786E+01  2.55236918355621E+00
(PID.TID 0000.0001)  ploadbar=  1.01109132040057E+05
 cg2d: Sum(rhs),rhsMax =  -3.22873421951185E+01  2.52353098902512E+00
(PID.TID 0000.0001)  ploadbar=  1.01107952052135E+05
 cg2d: Sum(rhs),rhsMax =  -3.26602652974763E+01  2.49503869024822E+00
(PID.TID 0000.0001)  ploadbar=  1.01106772064214E+05
 cg2d: Sum(rhs),rhsMax =  -3.30331474069747E+01  2.46719022717577E+00
(PID.TID 0000.0001)  ploadbar=  1.01105592076292E+05
 cg2d: Sum(rhs),rhsMax =  -3.34015592755747E+01  2.44038009941452E+00
(PID.TID 0000.0001)  ploadbar=  1.01104364193072E+05
 cg2d: Sum(rhs),rhsMax =  -3.37738306815698E+01  2.41395896004891E+00
(PID.TID 0000.0001)  ploadbar=  1.01103136309852E+05
 cg2d: Sum(rhs),rhsMax =  -3.34652073927747E+01  2.43678877514732E+00
(PID.TID 0000.0001)  ploadbar=  1.01101908426631E+05
 cg2d: Sum(rhs),rhsMax =  -3.28285384823906E+01  2.48472216940533E+00
(PID.TID 0000.0001)  ploadbar=  1.01100680543411E+05
 cg2d: Sum(rhs),rhsMax =  -3.22530632797492E+01  2.52984689083029E+00
(PID.TID 0000.0001)  ploadbar=  1.01099452660190E+05
 cg2d: Sum(rhs),rhsMax =  -3.17300524812966E+01  2.57245891492941E+00
(PID.TID 0000.0001)  ploadbar=  1.01098224776970E+05
 cg2d: Sum(rhs),rhsMax =  -3.12546050302276E+01  2.61246850258935E+00
(PID.TID 0000.0001)  ploadbar=  1.01096716500334E+05
 cg2d: Sum(rhs),rhsMax =  -3.08110633887276E+01  2.65089993549749E+00
(PID.TID 0000.0001)  ploadbar=  1.01095208223698E+05
 cg2d: Sum(rhs),rhsMax =  -3.04237425667161E+01  2.68541940153009E+00
(PID.TID 0000.0001)  ploadbar=  1.01093699947062E+05
 cg2d: Sum(rhs),rhsMax =  -3.01121913168890E+01  2.71391992366015E+00
(PID.TID 0000.0001)  ploadbar=  1.01092191670426E+05
 cg2d: Sum(rhs),rhsMax =  -2.98798343470506E+01  2.73569946134860E+00
(PID.TID 0000.0001)  ploadbar=  1.01090683393790E+05
 cg2d: Sum(rhs),rhsMax =  -2.97228662256144E+01  2.75078545185924E+00
(PID.TID 0000.0001)  ploadbar=  1.01089175117154E+05
 cg2d: Sum(rhs),rhsMax =  -2.96082919333359E+01  2.76221577736048E+00
(PID.TID 0000.0001)  ploadbar=  1.01088780239866E+05
 cg2d: Sum(rhs),rhsMax =  -2.96193852090703E+01  2.76209953376353E+00
(PID.TID 0000.0001)  ploadbar=  1.01088385362577E+05
 cg2d: Sum(rhs),rhsMax =  -2.97903872304225E+01  2.74729056929727E+00
(PID.TID 0000.0001)  ploadbar=  1.01087990485288E+05
 cg2d: Sum(rhs),rhsMax =  -3.00537921824390E+01  2.72438011109613E+00
(PID.TID 0000.0001)  ploadbar=  1.01087595607999E+05
 cg2d: Sum(rhs),rhsMax =  -3.04837942091551E+01  2.68723514464659E+00
(PID.TID 0000.0001)  ploadbar=  1.01087200730710E+05
 cg2d: Sum(rhs),rhsMax =  -3.11419027495090E+01  2.63183572691927E+00
(PID.TID 0000.0001)  ploadbar=  1.01086805853422E+05
 cg2d: Sum(rhs),rhsMax =  -3.18763783115223E+01  2.57246990445030E+00
(PID.TID 0000.0001)  ploadbar=  1.01085710255702E+05
 cg2d: Sum(rhs),rhsMax =  -3.26976711492751E+01  2.50902358572326E+00
(PID.TID 0000.0001)  ploadbar=  1.01084614657983E+05
 cg2d: Sum(rhs),rhsMax =  -3.35642401563277E+01  2.44531957474180E+00
(PID.TID 0000.0001)  ploadbar=  1.01083519060263E+05
 cg2d: Sum(rhs),rhsMax =  -3.44265624084846E+01  2.38505923223115E+00
(PID.TID 0000.0001)  ploadbar=  1.01082423462544E+05
 cg2d: Sum(rhs),rhsMax =  -3.52737614524213E+01  2.32869646095044E+00
(PID.TID 0000.0001)  ploadbar=  1.01081327864824E+05
 cg2d: Sum(rhs),rhsMax =  -3.60974217496580E+01  2.27641290976770E+00
(PID.TID 0000.0001)  ploadbar=  1.01080232267105E+05
 cg2d: Sum(rhs),rhsMax =  -3.69407344678236E+01  2.22530504780397E+00
(PID.TID 0000.0001)  ploadbar=  1.01079555452000E+05
 cg2d: Sum(rhs),rhsMax =  -3.71190231328988E+01  2.21548657235818E+00
(PID.TID 0000.0001)  ploadbar=  1.01078878636896E+05
 cg2d: Sum(rhs),rhsMax =  -3.71159856160683E+01  2.21655541412793E+00
(PID.TID 0000.0001)  ploadbar=  1.01078201821791E+05
 cg2d: Sum(rhs),rhsMax =  -3.71404271927254E+01  2.21600091747610E+00
(PID.TID 0000.0001)  ploadbar=  1.01077525006687E+05
 cg2d: Sum(rhs),rhsMax =  -3.71894444357164E+01  2.21400179477844E+00
(PID.TID 0000.0001)  ploadbar=  1.01076848191582E+05
 cg2d: Sum(rhs),rhsMax =  -3.72605429918188E+01  2.21072137791559E+00
(PID.TID 0000.0001)  ploadbar=  1.01076171376478E+05
 cg2d: Sum(rhs),rhsMax =  -3.73784768653445E+01  2.20458665194350E+00
(PID.TID 0000.0001)  ploadbar=  1.01075932462180E+05
 cg2d: Sum(rhs),rhsMax =  -3.75397395364222E+01  2.19584352657252E+00
(PID.TID 0000.0001)  ploadbar=  1.01075693547882E+05
 cg2d: Sum(rhs),rhsMax =  -3.77433137570839E+01  2.18461298892112E+00
(PID.TID 0000.0001)  ploadbar=  1.01075454633584E+05
 cg2d: Sum(rhs),rhsMax =  -3.79898089568222E+01  2.17094261763429E+00
(PID.TID 0000.0001)  ploadbar=  1.01075215719286E+05
 cg2d: Sum(rhs),rhsMax =  -3.82795777836367E+01  2.15491456154294E+00
(PID.TID 0000.0001)  ploadbar=  1.01074976804988E+05
 cg2d: Sum(rhs),rhsMax =  -3.86121563285287E+01  2.13667085505908E+00
(PID.TID 0000.0001)  ploadbar=  1.01074737890690E+05
 cg2d: Sum(rhs),rhsMax =  -3.89693170423585E+01  2.11748539190115E+00
(PID.TID 0000.0001)  ploadbar=  1.01073456500818E+05
 cg2d: Sum(rhs),rhsMax =  -3.93724301392213E+01  2.09627235340198E+00
(PID.TID 0000.0001)  ploadbar=  1.01072175110946E+05
 cg2d: Sum(rhs),rhsMax =  -3.98462714041580E+01  2.07188167947961E+00
(PID.TID 0000.0001)  ploadbar=  1.01070893721074E+05
 cg2d: Sum(rhs),rhsMax =  -4.03819510407979E+01  2.04500880554371E+00
(PID.TID 0000.0001)  ploadbar=  1.01069612331203E+05
 cg2d: Sum(rhs),rhsMax =  -4.09762555537642E+01  2.01603456850304E+00
(PID.TID 0000.0001)  ploadbar=  1.01068330941331E+05
 cg2d: Sum(rhs),rhsMax =  -4.16294144387758E+01  1.98516529832615E+00
(PID.TID 0000.0001)  ploadbar=  1.01067049551459E+05
 cg2d: Sum(rhs),rhsMax =  -4.23326177398950E+01  1.95287227835744E+00
(PID.TID 0000.0001)  ploadbar=  1.01067179073403E+05
 cg2d: Sum(rhs),rhsMax =  -4.30867451728975E+01  1.91929802992212E+00
(PID.TID 0000.0001)  ploadbar=  1.01067308595347E+05
 cg2d: Sum(rhs),rhsMax =  -4.38866832362843E+01  1.88484968926158E+00
(PID.TID 0000.0001)  ploadbar=  1.01067438117291E+05
 cg2d: Sum(rhs),rhsMax =  -4.42035855835304E+01  1.87181472613651E+00
(PID.TID 0000.0001)  ploadbar=  1.01067567639235E+05
 cg2d: Sum(rhs),rhsMax =  -4.39610143640467E+01  1.88257603330065E+00
(PID.TID 0000.0001)  ploadbar=  1.01067697161179E+05
 cg2d: Sum(rhs),rhsMax =  -4.37139085626682E+01  1.89360885779171E+00
(PID.TID 0000.0001)  ploadbar=  1.01067826683123E+05
 cg2d: Sum(rhs),rhsMax =  -4.34802204030960E+01  1.90425480858325E+00
(PID.TID 0000.0001)  ploadbar=  1.01069447931434E+05
 cg2d: Sum(rhs),rhsMax =  -4.33268271973831E+01  1.91153517271019E+00
(PID.TID 0000.0001)  ploadbar=  1.01071069179745E+05
 cg2d: Sum(rhs),rhsMax =  -4.32563975749188E+01  1.91526203107033E+00
(PID.TID 0000.0001)  ploadbar=  1.01072690428055E+05
 cg2d: Sum(rhs),rhsMax =  -4.32523960905439E+01  1.91613152645427E+00
(PID.TID 0000.0001)  ploadbar=  1.01074311676366E+05
 cg2d: Sum(rhs),rhsMax =  -4.33047320714294E+01  1.91459082853251E+00
(PID.TID 0000.0001)  ploadbar=  1.01075932924677E+05
 cg2d: Sum(rhs),rhsMax =  -4.34112192583623E+01  1.91075557554217E+00
(PID.TID 0000.0001)  ploadbar=  1.01077554172988E+05
 cg2d: Sum(rhs),rhsMax =  -4.36226169516299E+01  1.90223790733970E+00
(PID.TID 0000.0001)  ploadbar=  1.01079207543851E+05
 cg2d: Sum(rhs),rhsMax =  -4.38639896327712E+01  1.89239379483447E+00
(PID.TID 0000.0001)  ploadbar=  1.01080860914714E+05
 cg2d: Sum(rhs),rhsMax =  -4.41340730548044E+01  1.88132247415694E+00
(PID.TID 0000.0001)  ploadbar=  1.01082514285576E+05
 cg2d: Sum(rhs),rhsMax =  -4.44302106483242E+01  1.86918543772540E+00
(PID.TID 0000.0001)  ploadbar=  1.01084167656439E+05
 cg2d: Sum(rhs),rhsMax =  -4.47689904141788E+01  1.85534408100716E+00
(PID.TID 0000.0001)  ploadbar=  1.01085821027302E+05
 cg2d: Sum(rhs),rhsMax =  -4.51834393877417E+01  1.83853487860802E+00
(PID.TID 0000.0001)  ploadbar=  1.01087474398165E+05
 cg2d: Sum(rhs),rhsMax =  -4.56472059203015E+01  1.82009135181141E+00
(PID.TID 0000.0001)  ploadbar=  1.01088536244371E+05
 cg2d: Sum(rhs),rhsMax =  -4.60760392670861E+01  1.80341262519654E+00
(PID.TID 0000.0001)  ploadbar=  1.01089598090578E+05
 cg2d: Sum(rhs),rhsMax =  -4.64068248339850E+01  1.79084710697725E+00
(PID.TID 0000.0001)  ploadbar=  1.01090659936785E+05
 cg2d: Sum(rhs),rhsMax =  -4.66144506714749E+01  1.78318901670929E+00
(PID.TID 0000.0001)  ploadbar=  1.01091721782991E+05
 cg2d: Sum(rhs),rhsMax =  -4.66797652364633E+01  1.78105024075206E+00
(PID.TID 0000.0001)  ploadbar=  1.01092783629198E+05
 cg2d: Sum(rhs),rhsMax =  -4.66109542190722E+01  1.78407715867647E+00
(PID.TID 0000.0001)  ploadbar=  1.01093845475405E+05
 cg2d: Sum(rhs),rhsMax =  -4.63743319562913E+01  1.79358158665752E+00
(PID.TID 0000.0001)  ploadbar=  1.01095812883927E+05
 cg2d: Sum(rhs),rhsMax =  -4.61095766935309E+01  1.80428592317300E+00
(PID.TID 0000.0001)  ploadbar=  1.01097780292449E+05
 cg2d: Sum(rhs),rhsMax =  -4.58392960689534E+01  1.81534057545903E+00
(PID.TID 0000.0001)  ploadbar=  1.01099747700971E+05
 cg2d: Sum(rhs),rhsMax =  -4.55829840519030E+01  1.82597908538883E+00
(PID.TID 0000.0001)  ploadbar=  1.01101715109494E+05
 cg2d: Sum(rhs),rhsMax =  -4.53554485974839E+01  1.83558832326521E+00
(PID.TID 0000.0001)  ploadbar=  1.01103682518016E+05
 cg2d: Sum(rhs),rhsMax =  -4.51654898593921E+01  1.84377888974086E+00
(PID.TID 0000.0001)  ploadbar=  1.01105649926538E+05
 cg2d: Sum(rhs),rhsMax =  -4.50155887953444E+01  1.85048203157116E+00
(PID.TID 0000.0001)  ploadbar=  1.01107899705279E+05
 cg2d: Sum(rhs),rhsMax =  -4.49229591794858E+01  1.85495105639446E+00
(PID.TID 0000.0001)  ploadbar=  1.01110149484020E+05
 cg2d: Sum(rhs),rhsMax =  -4.49505473413430E+01  1.85456466974843E+00
(PID.TID 0000.0001)  ploadbar=  1.01112399262761E+05
 cg2d: Sum(rhs),rhsMax =  -4.50929500138230E+01  1.84955909104991E+00
(PID.TID 0000.0001)  ploadbar=  1.01114649041502E+05
 cg2d: Sum(rhs),rhsMax =  -4.53384211980184E+01  1.84049739523109E+00
(PID.TID 0000.0001)  ploadbar=  1.01116898820243E+05
 cg2d: Sum(rhs),rhsMax =  -4.56752137940537E+01  1.82797248228285E+00
(PID.TID 0000.0001)  ploadbar=  1.01119148598985E+05
 cg2d: Sum(rhs),rhsMax =  -4.62085171473092E+01  1.80781164077002E+00
(PID.TID 0000.0001)  ploadbar=  1.01120885302175E+05
 cg2d: Sum(rhs),rhsMax =  -4.68916028214413E+01  1.78229971991690E+00
(PID.TID 0000.0001)  ploadbar=  1.01122622005365E+05
 cg2d: Sum(rhs),rhsMax =  -4.66528779685786E+01  1.79214802024805E+00
(PID.TID 0000.0001)  ploadbar=  1.01124358708556E+05
 cg2d: Sum(rhs),rhsMax =  -4.71808886024199E+01  1.77271723460893E+00
(PID.TID 0000.0001)  ploadbar=  1.01126095411746E+05
 cg2d: Sum(rhs),rhsMax =  -4.78847251255565E+01  1.74718933573857E+00
(PID.TID 0000.0001)  ploadbar=  1.01127832114936E+05
 cg2d: Sum(rhs),rhsMax =  -4.87184359562406E+01  1.71772386944361E+00
(PID.TID 0000.0001)  ploadbar=  1.01129568818126E+05
 cg2d: Sum(rhs),rhsMax =  -4.97033128820998E+01  1.68415556207376E+00
(PID.TID 0000.0001)  ploadbar=  1.01130105117164E+05
 cg2d: Sum(rhs),rhsMax =  -5.08779128307518E+01  1.64577220093452E+00
(PID.TID 0000.0001)  ploadbar=  1.01130641416202E+05
 cg2d: Sum(rhs),rhsMax =  -5.22027080526459E+01  1.60453189941180E+00
(PID.TID 0000.0001)  ploadbar=  1.01131177715239E+05
 cg2d: Sum(rhs),rhsMax =  -5.25243179150324E+01  1.59526538109493E+00
(PID.TID 0000.0001)  ploadbar=  1.01131714014277E+05
 cg2d: Sum(rhs),rhsMax =  -5.08248045894985E+01  1.64921416826590E+00
(PID.TID 0000.0001)  ploadbar=  1.01132250313315E+05
 cg2d: Sum(rhs),rhsMax =  -4.74126509347865E+01  1.76857388110043E+00
(PID.TID 0000.0001)  ploadbar=  1.01132786612352E+05
 cg2d: Sum(rhs),rhsMax =  -4.47048686156803E+01  1.87635998228606E+00
(PID.TID 0000.0001)  ploadbar=  1.01133755086817E+05
 cg2d: Sum(rhs),rhsMax =  -4.30411027066256E+01  1.94952818337233E+00
(PID.TID 0000.0001)  ploadbar=  1.01134723561282E+05
 cg2d: Sum(rhs),rhsMax =  -4.16923336863892E+01  2.01320771513054E+00
(PID.TID 0000.0001)  ploadbar=  1.01135692035747E+05
 cg2d: Sum(rhs),rhsMax =  -4.06158898023841E+01  2.06714385390776E+00
(PID.TID 0000.0001)  ploadbar=  1.01136660510212E+05
 cg2d: Sum(rhs),rhsMax =  -3.97915334259481E+01  2.11051224480798E+00
(PID.TID 0000.0001)  ploadbar=  1.01137628984676E+05
 cg2d: Sum(rhs),rhsMax =  -3.92129272744422E+01  2.14215498256144E+00
(PID.TID 0000.0001)  ploadbar=  1.01138597459141E+05
 cg2d: Sum(rhs),rhsMax =  -3.89161027506648E+01  2.15907194082653E+00
(PID.TID 0000.0001)  ploadbar=  1.01139760065705E+05
 cg2d: Sum(rhs),rhsMax =  -3.89404570272567E+01  2.15836835604719E+00
(PID.TID 0000.0001)  ploadbar=  1.01140922672269E+05
 cg2d: Sum(rhs),rhsMax =  -3.90552331230015E+01  2.15273735083201E+00
(PID.TID 0000.0001)  ploadbar=  1.01142085278833E+05
 cg2d: Sum(rhs),rhsMax =  -3.89643652643128E+01  2.15854662521229E+00
(PID.TID 0000.0001)  ploadbar=  1.01143247885397E+05
 cg2d: Sum(rhs),rhsMax =  -3.87062324204619E+01  2.17381155521612E+00
(PID.TID 0000.0001)  ploadbar=  1.01144410491961E+05
 cg2d: Sum(rhs),rhsMax =  -3.87980369753691E+01  2.16961342619971E+00
(PID.TID 0000.0001)  ploadbar=  1.01145573098525E+05
 cg2d: Sum(rhs),rhsMax =  -3.90458190841767E+01  2.15671903384822E+00
(PID.TID 0000.0001)  ploadbar=  1.01146941831443E+05
 cg2d: Sum(rhs),rhsMax =  -3.93397693515731E+01  2.14139972470810E+00
(PID.TID 0000.0001)  ploadbar=  1.01148310564361E+05
 cg2d: Sum(rhs),rhsMax =  -3.95874821796033E+01  2.12872419734350E+00
(PID.TID 0000.0001)  ploadbar=  1.01149679297279E+05
 cg2d: Sum(rhs),rhsMax =  -3.97748834065551E+01  2.11935341510714E+00
(PID.TID 0000.0001)  ploadbar=  1.01151048030197E+05
 cg2d: Sum(rhs),rhsMax =  -3.99916201697623E+01  2.10846448933310E+00
(PID.TID 0000.0001)  ploadbar=  1.01152416763115E+05
 cg2d: Sum(rhs),rhsMax =  -4.01562469440862E+01  2.10035186953017E+00
(PID.TID 0000.0001)  ploadbar=  1.01153785496033E+05
 cg2d: Sum(rhs),rhsMax =  -4.03064921004330E+01  2.09314728979404E+00
(PID.TID 0000.0001)  ploadbar=  1.01154108005937E+05
 cg2d: Sum(rhs),rhsMax =  -4.04799619998640E+01  2.08489524096124E+00
(PID.TID 0000.0001)  ploadbar=  1.01154430515842E+05
 cg2d: Sum(rhs),rhsMax =  -4.07069829612579E+01  2.07407813554409E+00
(PID.TID 0000.0001)  ploadbar=  1.01154753025747E+05
 cg2d: Sum(rhs),rhsMax =  -4.09939715334147E+01  2.06046030880146E+00
(PID.TID 0000.0001)  ploadbar=  1.01155075535652E+05
 cg2d: Sum(rhs),rhsMax =  -4.13239560574030E+01  2.04500106076947E+00
(PID.TID 0000.0001)  ploadbar=  1.01155398045557E+05
 cg2d: Sum(rhs),rhsMax =  -4.16615635776367E+01  2.02951680014471E+00
(PID.TID 0000.0001)  ploadbar=  1.01155720555462E+05
 cg2d: Sum(rhs),rhsMax =  -4.17007036143804E+01  2.02863649731545E+00
(PID.TID 0000.0001)  ploadbar=  1.01155021205440E+05
 cg2d: Sum(rhs),rhsMax =  -4.14427450081629E+01  2.04223053688322E+00
(PID.TID 0000.0001)  ploadbar=  1.01154321855418E+05
 cg2d: Sum(rhs),rhsMax =  -4.08938952168529E+01  2.07056538222208E+00
(PID.TID 0000.0001)  ploadbar=  1.01153622505397E+05
 cg2d: Sum(rhs),rhsMax =  -4.07648140201833E+01  2.07799856077770E+00
(PID.TID 0000.0001)  ploadbar=  1.01152923155375E+05
 cg2d: Sum(rhs),rhsMax =  -4.14482006599471E+01  2.04455749786351E+00
(PID.TID 0000.0001)  ploadbar=  1.01152223805354E+05
 cg2d: Sum(rhs),rhsMax =  -4.19291680280348E+01  2.02187711624091E+00
(PID.TID 0000.0001)  ploadbar=  1.01151524455332E+05
 cg2d: Sum(rhs),rhsMax =  -4.22918686841940E+01  2.00533869173312E+00
(PID.TID 0000.0001)  ploadbar=  1.01151413204330E+05
 cg2d: Sum(rhs),rhsMax =  -4.26960205938785E+01  1.98718690049844E+00
(PID.TID 0000.0001)  ploadbar=  1.01151301953328E+05
 cg2d: Sum(rhs),rhsMax =  -4.30713242946061E+01  1.97073883827151E+00
(PID.TID 0000.0001)  ploadbar=  1.01151190702325E+05
 cg2d: Sum(rhs),rhsMax =  -4.34011152338749E+01  1.95667580485093E+00
(PID.TID 0000.0001)  ploadbar=  1.01151079451323E+05
 cg2d: Sum(rhs),rhsMax =  -4.36827600820258E+01  1.94501814221142E+00
(PID.TID 0000.0001)  ploadbar=  1.01150968200321E+05
 cg2d: Sum(rhs),rhsMax =  -4.39168131694284E+01  1.93565947407825E+00
(PID.TID 0000.0001)  ploadbar=  1.01150856949319E+05
 cg2d: Sum(rhs),rhsMax =  -4.40110446646564E+01  1.93239115371469E+00
(PID.TID 0000.0001)  ploadbar=  1.01150933448049E+05
 cg2d: Sum(rhs),rhsMax =  -4.41129282448199E+01  1.92867122082190E+00
(PID.TID 0000.0001)  ploadbar=  1.01151009946780E+05
 cg2d: Sum(rhs),rhsMax =  -4.42212220211600E+01  1.92456206465886E+00
(PID.TID 0000.0001)  ploadbar=  1.01151086445511E+05
 cg2d: Sum(rhs),rhsMax =  -4.43220862629528E+01  1.92067238469924E+00
(PID.TID 0000.0001)  ploadbar=  1.01151162944242E+05
 cg2d: Sum(rhs),rhsMax =  -4.44136263065289E+01  1.91708779292126E+00
(PID.TID 0000.0001)  ploadbar=  1.01151239442973E+05
 cg2d: Sum(rhs),rhsMax =  -4.44650759475466E+01  1.91513441182372E+00
(PID.TID 0000.0001)  ploadbar=  1.01151315941703E+05
 cg2d: Sum(rhs),rhsMax =  -4.45231457148794E+01  1.91296324694480E+00
(PID.TID 0000.0001)  ploadbar=  1.01151207335566E+05
 cg2d: Sum(rhs),rhsMax =  -4.45486301681593E+01  1.91225613864460E+00
(PID.TID 0000.0001)  ploadbar=  1.01151098729429E+05
 cg2d: Sum(rhs),rhsMax =  -4.45549829306842E+01  1.91243386531097E+00
(PID.TID 0000.0001)  ploadbar=  1.01150990123292E+05
 cg2d: Sum(rhs),rhsMax =  -4.45239352908588E+01  1.91428463232431E+00
(PID.TID 0000.0001)  ploadbar=  1.01150881517155E+05
 cg2d: Sum(rhs),rhsMax =  -4.44849211414913E+01  1.91654615953995E+00
(PID.TID 0000.0001)  ploadbar=  1.01150772911017E+05
 cg2d: Sum(rhs),rhsMax =  -4.44940390776956E+01  1.91679898326301E+00
(PID.TID 0000.0001)  ploadbar=  1.01150664304880E+05
 cg2d: Sum(rhs),rhsMax =  -4.45234039495453E+01  1.91617557544633E+00
(PID.TID 0000.0001)  ploadbar=  1.01150728476681E+05
 cg2d: Sum(rhs),rhsMax =  -4.46064109386298E+01  1.91324680912531E+00
(PID.TID 0000.0001)  ploadbar=  1.01150792648481E+05
 cg2d: Sum(rhs),rhsMax =  -4.47494876102598E+01  1.90777044805022E+00
(PID.TID 0000.0001)  ploadbar=  1.01150856820282E+05
 cg2d: Sum(rhs),rhsMax =  -4.47896908255267E+01  1.90670974411028E+00
(PID.TID 0000.0001)  ploadbar=  1.01150920992082E+05
 cg2d: Sum(rhs),rhsMax =  -4.49207300476588E+01  1.90181679503171E+00
(PID.TID 0000.0001)  ploadbar=  1.01150985163883E+05
 cg2d: Sum(rhs),rhsMax =  -4.51412643181111E+01  1.89320881644751E+00
(PID.TID 0000.0001)  ploadbar=  1.01151049335684E+05
 cg2d: Sum(rhs),rhsMax =  -4.52672157852445E+01  1.88867404357487E+00
(PID.TID 0000.0001)  ploadbar=  1.01151559616822E+05
 cg2d: Sum(rhs),rhsMax =  -4.53321706026644E+01  1.88674767710038E+00
(PID.TID 0000.0001)  ploadbar=  1.01152069897960E+05
 cg2d: Sum(rhs),rhsMax =  -4.55018710528201E+01  1.88053863616585E+00
(PID.TID 0000.0001)  ploadbar=  1.01152580179098E+05
 cg2d: Sum(rhs),rhsMax =  -4.58692995862951E+01  1.86634817670092E+00
(PID.TID 0000.0001)  ploadbar=  1.01153090460236E+05
 cg2d: Sum(rhs),rhsMax =  -4.64046164252450E+01  1.84573514272295E+00
(PID.TID 0000.0001)  ploadbar=  1.01153600741374E+05
 cg2d: Sum(rhs),rhsMax =  -4.71005113540938E+01  1.81942078556855E+00
(PID.TID 0000.0001)  ploadbar=  1.01154111022512E+05
 cg2d: Sum(rhs),rhsMax =  -4.79723735050129E+01  1.78719865823906E+00
(PID.TID 0000.0001)  ploadbar=  1.01153903974593E+05
 cg2d: Sum(rhs),rhsMax =  -4.90152126268451E+01  1.74990896830857E+00
(PID.TID 0000.0001)  ploadbar=  1.01153696926673E+05
 cg2d: Sum(rhs),rhsMax =  -4.98888733102461E+01  1.71989800057082E+00
(PID.TID 0000.0001)  ploadbar=  1.01153489878753E+05
 cg2d: Sum(rhs),rhsMax =  -5.07747137761232E+01  1.69043225344532E+00
(PID.TID 0000.0001)  ploadbar=  1.01153282830834E+05
 cg2d: Sum(rhs),rhsMax =  -5.17228245071246E+01  1.65989454151246E+00
(PID.TID 0000.0001)  ploadbar=  1.01153075782914E+05
 cg2d: Sum(rhs),rhsMax =  -5.23917317793475E+01  1.63906504551806E+00
(PID.TID 0000.0001)  ploadbar=  1.01152868734994E+05
 cg2d: Sum(rhs),rhsMax =  -5.29481564127963E+01  1.62224860055142E+00
(PID.TID 0000.0001)  ploadbar=  1.01152248052039E+05
 cg2d: Sum(rhs),rhsMax =  -5.35675056413724E+01  1.60394618621006E+00
(PID.TID 0000.0001)  ploadbar=  1.01151627369084E+05
 cg2d: Sum(rhs),rhsMax =  -5.42597925267409E+01  1.58398231880332E+00
(PID.TID 0000.0001)  ploadbar=  1.01151006686129E+05
 cg2d: Sum(rhs),rhsMax =  -5.50106798382047E+01  1.56290722525815E+00
(PID.TID 0000.0001)  ploadbar=  1.01150386003174E+05
 cg2d: Sum(rhs),rhsMax =  -5.53143603113034E+01  1.55492241991044E+00
(PID.TID 0000.0001)  ploadbar=  1.01149765320219E+05
 cg2d: Sum(rhs),rhsMax =  -5.48769896049046E+01  1.56797147877665E+00
(PID.TID 0000.0001)  ploadbar=  1.01149144637264E+05
 cg2d: Sum(rhs),rhsMax =  -5.44516471064308E+01  1.58085103963748E+00
(PID.TID 0000.0001)  ploadbar=  1.01149041557133E+05
 cg2d: Sum(rhs),rhsMax =  -5.40566995172714E+01  1.59300710648596E+00
(PID.TID 0000.0001)  ploadbar=  1.01148938477002E+05
 cg2d: Sum(rhs),rhsMax =  -5.36920100676569E+01  1.60441254011121E+00
(PID.TID 0000.0001)  ploadbar=  1.01148835396871E+05
 cg2d: Sum(rhs),rhsMax =  -5.33775402690135E+01  1.61443135866783E+00
(PID.TID 0000.0001)  ploadbar=  1.01148732316740E+05
 cg2d: Sum(rhs),rhsMax =  -5.31455884071031E+01  1.62202572141491E+00
(PID.TID 0000.0001)  ploadbar=  1.01148629236609E+05
 cg2d: Sum(rhs),rhsMax =  -5.30182120498122E+01  1.62645495125944E+00
(PID.TID 0000.0001)  ploadbar=  1.01148526156478E+05
 cg2d: Sum(rhs),rhsMax =  -5.30085952597766E+01  1.62731028961574E+00
(PID.TID 0000.0001)  ploadbar=  1.01148926324936E+05
 cg2d: Sum(rhs),rhsMax =  -5.31066483321252E+01  1.62489263055203E+00
(PID.TID 0000.0001)  ploadbar=  1.01149326493394E+05
 cg2d: Sum(rhs),rhsMax =  -5.32962216213338E+01  1.61972767476914E+00
(PID.TID 0000.0001)  ploadbar=  1.01149726661853E+05
 cg2d: Sum(rhs),rhsMax =  -5.35478998692608E+01  1.61276043782442E+00
(PID.TID 0000.0001)  ploadbar=  1.01150126830311E+05
 cg2d: Sum(rhs),rhsMax =  -5.38496228743247E+01  1.60440568367544E+00
(PID.TID 0000.0001)  ploadbar=  1.01150526998770E+05
 cg2d: Sum(rhs),rhsMax =  -5.41900097114806E+01  1.59504284568617E+00
(PID.TID 0000.0001)  ploadbar=  1.01150927167228E+05
 cg2d: Sum(rhs),rhsMax =  -5.45573364006387E+01  1.58493841185418E+00
(PID.TID 0000.0001)  ploadbar=  1.01150738982613E+05
 cg2d: Sum(rhs),rhsMax =  -5.49756483028472E+01  1.57343342207072E+00
(PID.TID 0000.0001)  ploadbar=  1.01150550797997E+05
 cg2d: Sum(rhs),rhsMax =  -5.54122184101890E+01  1.56151376294094E+00
(PID.TID 0000.0001)  ploadbar=  1.01150362613382E+05
 cg2d: Sum(rhs),rhsMax =  -5.57005211646656E+01  1.55383186485162E+00
(PID.TID 0000.0001)  ploadbar=  1.01150174428767E+05
 cg2d: Sum(rhs),rhsMax =  -5.60870517230548E+01  1.54345004995789E+00
(PID.TID 0000.0001)  ploadbar=  1.01149986244151E+05
 cg2d: Sum(rhs),rhsMax =  -5.64928768185435E+01  1.53261855073994E+00
(PID.TID 0000.0001)  ploadbar=  1.01149798059536E+05
 cg2d: Sum(rhs),rhsMax =  -5.69069419761739E+01  1.52176377399355E+00
(PID.TID 0000.0001)  ploadbar=  1.01149177593360E+05
 cg2d: Sum(rhs),rhsMax =  -5.73433729345153E+01  1.51051784714859E+00
(PID.TID 0000.0001)  ploadbar=  1.01148557127184E+05
 cg2d: Sum(rhs),rhsMax =  -5.78382052238629E+01  1.49797020928184E+00
(PID.TID 0000.0001)  ploadbar=  1.01147936661008E+05
 cg2d: Sum(rhs),rhsMax =  -5.83432844258203E+01  1.48541899122302E+00
(PID.TID 0000.0001)  ploadbar=  1.01147316194833E+05
 cg2d: Sum(rhs),rhsMax =  -5.88604044854458E+01  1.47282846633743E+00
(PID.TID 0000.0001)  ploadbar=  1.01146695728657E+05
 cg2d: Sum(rhs),rhsMax =  -5.93929970889034E+01  1.46012092219674E+00
(PID.TID 0000.0001)  ploadbar=  1.01146075262481E+05
 cg2d: Sum(rhs),rhsMax =  -5.99182747526248E+01  1.44780309393078E+00
(PID.TID 0000.0001)  ploadbar=  1.01146305662406E+05
 cg2d: Sum(rhs),rhsMax =  -6.04503477361716E+01  1.43552264973439E+00
(PID.TID 0000.0001)  ploadbar=  1.01146536062331E+05
 cg2d: Sum(rhs),rhsMax =  -6.09913328332107E+01  1.42323523786017E+00
(PID.TID 0000.0001)  ploadbar=  1.01146766462256E+05
 cg2d: Sum(rhs),rhsMax =  -6.15421271815758E+01  1.41093031273476E+00
(PID.TID 0000.0001)  ploadbar=  1.01146996862181E+05
 cg2d: Sum(rhs),rhsMax =  -6.21022540380913E+01  1.39862996118165E+00
(PID.TID 0000.0001)  ploadbar=  1.01147227262106E+05
 cg2d: Sum(rhs),rhsMax =  -6.26684515613648E+01  1.38641779387742E+00
(PID.TID 0000.0001)  ploadbar=  1.01147457662031E+05
 cg2d: Sum(rhs),rhsMax =  -6.32894204744179E+01  1.37327466880560E+00
(PID.TID 0000.0001)  ploadbar=  1.01148334107387E+05
 cg2d: Sum(rhs),rhsMax =  -6.39429694015783E+01  1.35973210651749E+00
(PID.TID 0000.0001)  ploadbar=  1.01149210552743E+05
 cg2d: Sum(rhs),rhsMax =  -6.44780467027231E+01  1.34897587347923E+00
(PID.TID 0000.0001)  ploadbar=  1.01150086998099E+05
 cg2d: Sum(rhs),rhsMax =  -6.40044914398193E+01  1.35952574350069E+00
(PID.TID 0000.0001)  ploadbar=  1.01150963443455E+05
 cg2d: Sum(rhs),rhsMax =  -6.35212254781115E+01  1.37047983910437E+00
(PID.TID 0000.0001)  ploadbar=  1.01151839888811E+05
 cg2d: Sum(rhs),rhsMax =  -6.30501286630963E+01  1.38137191475822E+00
(PID.TID 0000.0001)  ploadbar=  1.01152716334167E+05
 cg2d: Sum(rhs),rhsMax =  -6.26225020275662E+01  1.39138814020743E+00
(PID.TID 0000.0001)  ploadbar=  1.01153021863281E+05
 cg2d: Sum(rhs),rhsMax =  -6.22320649749710E+01  1.40063150106550E+00
(PID.TID 0000.0001)  ploadbar=  1.01153327392395E+05
 cg2d: Sum(rhs),rhsMax =  -6.18824730293931E+01  1.40898821184895E+00
(PID.TID 0000.0001)  ploadbar=  1.01153632921510E+05
 cg2d: Sum(rhs),rhsMax =  -6.15672402775128E+01  1.41657603486742E+00
(PID.TID 0000.0001)  ploadbar=  1.01153938450624E+05
 cg2d: Sum(rhs),rhsMax =  -6.12687513435512E+01  1.42377962736500E+00
(PID.TID 0000.0001)  ploadbar=  1.01154243979738E+05
 cg2d: Sum(rhs),rhsMax =  -6.09631285886171E+01  1.43115042959785E+00
(PID.TID 0000.0001)  ploadbar=  1.01154549508852E+05
 cg2d: Sum(rhs),rhsMax =  -6.06355354957374E+01  1.43917062103529E+00
(PID.TID 0000.0001)  ploadbar=  1.01155051458018E+05
 cg2d: Sum(rhs),rhsMax =  -6.02931435514230E+01  1.44768834629989E+00
(PID.TID 0000.0001)  ploadbar=  1.01155553407184E+05
 cg2d: Sum(rhs),rhsMax =  -5.99369154817326E+01  1.45669491438102E+00
(PID.TID 0000.0001)  ploadbar=  1.01156055356350E+05
 cg2d: Sum(rhs),rhsMax =  -5.95748573956869E+01  1.46600968072463E+00
(PID.TID 0000.0001)  ploadbar=  1.01156557305516E+05
 cg2d: Sum(rhs),rhsMax =  -5.92205071980846E+01  1.47530245062537E+00
(PID.TID 0000.0001)  ploadbar=  1.01157059254681E+05
 cg2d: Sum(rhs),rhsMax =  -5.88910661282135E+01  1.48413425579322E+00
(PID.TID 0000.0001)  ploadbar=  1.01157561203847E+05
 cg2d: Sum(rhs),rhsMax =  -5.86029852947226E+01  1.49200609915528E+00
(PID.TID 0000.0001)  ploadbar=  1.01156788780250E+05
 cg2d: Sum(rhs),rhsMax =  -5.83766857514556E+01  1.49836181772666E+00
(PID.TID 0000.0001)  ploadbar=  1.01156016356653E+05
 cg2d: Sum(rhs),rhsMax =  -5.82090734065465E+01  1.50324983361213E+00
(PID.TID 0000.0001)  ploadbar=  1.01155243933056E+05
 cg2d: Sum(rhs),rhsMax =  -5.80821025960443E+01  1.50711780639909E+00
(PID.TID 0000.0001)  ploadbar=  1.01154471509459E+05
 cg2d: Sum(rhs),rhsMax =  -5.79708572472481E+01  1.51060719937062E+00
(PID.TID 0000.0001)  ploadbar=  1.01153699085862E+05
 cg2d: Sum(rhs),rhsMax =  -5.78527526529089E+01  1.51430490165360E+00
(PID.TID 0000.0001)  ploadbar=  1.01152926662265E+05
 cg2d: Sum(rhs),rhsMax =  -5.76966422977331E+01  1.51903985652331E+00
(PID.TID 0000.0001)  ploadbar=  1.01153450138075E+05
 cg2d: Sum(rhs),rhsMax =  -5.75109686709355E+01  1.52460770860669E+00
(PID.TID 0000.0001)  ploadbar=  1.01153973613885E+05
 cg2d: Sum(rhs),rhsMax =  -5.73002260033621E+01  1.53090315788032E+00
(PID.TID 0000.0001)  ploadbar=  1.01154497089695E+05
 cg2d: Sum(rhs),rhsMax =  -5.70766812799367E+01  1.53761360832563E+00
(PID.TID 0000.0001)  ploadbar=  1.01155020565505E+05
 cg2d: Sum(rhs),rhsMax =  -5.68568222185970E+01  1.54430545882682E+00
(PID.TID 0000.0001)  ploadbar=  1.01155544041316E+05
 cg2d: Sum(rhs),rhsMax =  -5.66566897581001E+01  1.55053643145212E+00
(PID.TID 0000.0001)  ploadbar=  1.01156067517126E+05
 cg2d: Sum(rhs),rhsMax =  -5.65018868959965E+01  1.55548373834958E+00
(PID.TID 0000.0001)  ploadbar=  1.01156011617603E+05
 cg2d: Sum(rhs),rhsMax =  -5.63902587466605E+01  1.55918570060100E+00
(PID.TID 0000.0001)  ploadbar=  1.01155955718080E+05
 cg2d: Sum(rhs),rhsMax =  -5.63224613135223E+01  1.56161142231562E+00
(PID.TID 0000.0001)  ploadbar=  1.01155899818557E+05
 cg2d: Sum(rhs),rhsMax =  -5.62903611956126E+01  1.56297944821979E+00
(PID.TID 0000.0001)  ploadbar=  1.01155843919034E+05
 cg2d: Sum(rhs),rhsMax =  -5.62788743175235E+01  1.56371030948954E+00
(PID.TID 0000.0001)  ploadbar=  1.01155788019511E+05
 cg2d: Sum(rhs),rhsMax =  -5.62688442579586E+01  1.56433554039536E+00
(PID.TID 0000.0001)  ploadbar=  1.01155732119988E+05
 cg2d: Sum(rhs),rhsMax =  -5.62657464809144E+01  1.56484938338571E+00
(PID.TID 0000.0001)  ploadbar=  1.01154206823760E+05
 cg2d: Sum(rhs),rhsMax =  -5.62727331941199E+01  1.56516319799963E+00
(PID.TID 0000.0001)  ploadbar=  1.01152681527531E+05
 cg2d: Sum(rhs),rhsMax =  -5.62818685119154E+01  1.56549893673867E+00
(PID.TID 0000.0001)  ploadbar=  1.01151156231302E+05
 cg2d: Sum(rhs),rhsMax =  -5.63026271104652E+01  1.56559457550218E+00
(PID.TID 0000.0001)  ploadbar=  1.01149630935073E+05
 cg2d: Sum(rhs),rhsMax =  -5.63868158553128E+01  1.56401130390934E+00
(PID.TID 0000.0001)  ploadbar=  1.01148105638844E+05
 cg2d: Sum(rhs),rhsMax =  -5.64821713536198E+01  1.56220589982501E+00
(PID.TID 0000.0001)  ploadbar=  1.01146580342616E+05
 cg2d: Sum(rhs),rhsMax =  -5.65728454595889E+01  1.56050713916844E+00
(PID.TID 0000.0001)  ploadbar=  1.01146322106598E+05
 cg2d: Sum(rhs),rhsMax =  -5.67075523727494E+01  1.55757511154804E+00
(PID.TID 0000.0001)  ploadbar=  1.01146063870579E+05
 cg2d: Sum(rhs),rhsMax =  -5.68940497888025E+01  1.55322153249896E+00
(PID.TID 0000.0001)  ploadbar=  1.01145805634561E+05
 cg2d: Sum(rhs),rhsMax =  -5.71200907922109E+01  1.54780852309192E+00
(PID.TID 0000.0001)  ploadbar=  1.01145547398543E+05
 cg2d: Sum(rhs),rhsMax =  -5.73690857774568E+01  1.54180304684000E+00
(PID.TID 0000.0001)  ploadbar=  1.01145289162525E+05
 cg2d: Sum(rhs),rhsMax =  -5.76345469954141E+01  1.53539114226468E+00
(PID.TID 0000.0001)  ploadbar=  1.01145030926507E+05
 cg2d: Sum(rhs),rhsMax =  -5.77536526965570E+01  1.53297728330235E+00
(PID.TID 0000.0001)  ploadbar=  1.01145354874309E+05
 cg2d: Sum(rhs),rhsMax =  -5.75557460029688E+01  1.53906919544386E+00
(PID.TID 0000.0001)  ploadbar=  1.01145678822110E+05
 cg2d: Sum(rhs),rhsMax =  -5.73284630467411E+01  1.54605940838432E+00
(PID.TID 0000.0001)  ploadbar=  1.01146002769912E+05
 cg2d: Sum(rhs),rhsMax =  -5.70878348826145E+01  1.55353203503879E+00
(PID.TID 0000.0001)  ploadbar=  1.01146326717713E+05
 cg2d: Sum(rhs),rhsMax =  -5.68532687985128E+01  1.56096748954363E+00
(PID.TID 0000.0001)  ploadbar=  1.01146650665515E+05
 cg2d: Sum(rhs),rhsMax =  -5.66410735242768E+01  1.56790903373402E+00
(PID.TID 0000.0001)  ploadbar=  1.01146974613316E+05
 cg2d: Sum(rhs),rhsMax =  -5.64578707935947E+01  1.57402115691117E+00
(PID.TID 0000.0001)  ploadbar=  1.01147345711542E+05
 cg2d: Sum(rhs),rhsMax =  -5.63129149031323E+01  1.57902622468591E+00
(PID.TID 0000.0001)  ploadbar=  1.01147716809768E+05
 cg2d: Sum(rhs),rhsMax =  -5.61987329598100E+01  1.58311755076297E+00
(PID.TID 0000.0001)  ploadbar=  1.01148087907994E+05
 cg2d: Sum(rhs),rhsMax =  -5.61065373484778E+01  1.58653370824665E+00
(PID.TID 0000.0001)  ploadbar=  1.01148459006220E+05
 cg2d: Sum(rhs),rhsMax =  -5.60266638229492E+01  1.58954508504914E+00
(PID.TID 0000.0001)  ploadbar=  1.01148830104446E+05
 cg2d: Sum(rhs),rhsMax =  -5.59521747163747E+01  1.59234823999339E+00
(PID.TID 0000.0001)  ploadbar=  1.01149201202671E+05
 cg2d: Sum(rhs),rhsMax =  -5.59012539324719E+01  1.59455392739529E+00
(PID.TID 0000.0001)  ploadbar=  1.01150089288684E+05
 cg2d: Sum(rhs),rhsMax =  -5.58721870031251E+01  1.59620879674991E+00
(PID.TID 0000.0001)  ploadbar=  1.01150977374696E+05
 cg2d: Sum(rhs),rhsMax =  -5.58635964552031E+01  1.59735057117351E+00
(PID.TID 0000.0001)  ploadbar=  1.01151865460709E+05
 cg2d: Sum(rhs),rhsMax =  -5.58495544086640E+01  1.59872099651534E+00
(PID.TID 0000.0001)  ploadbar=  1.01152753546721E+05
 cg2d: Sum(rhs),rhsMax =  -5.55326766828378E+01  1.60888899080270E+00
(PID.TID 0000.0001)  ploadbar=  1.01153641632734E+05
 cg2d: Sum(rhs),rhsMax =  -5.52790466089056E+01  1.61738806193984E+00
(PID.TID 0000.0001)  ploadbar=  1.01154529718746E+05
 cg2d: Sum(rhs),rhsMax =  -5.50999068330205E+01  1.62377278383570E+00
(PID.TID 0000.0001)  ploadbar=  1.01155681263170E+05
 cg2d: Sum(rhs),rhsMax =  -5.49864002110351E+01  1.62826426672633E+00
(PID.TID 0000.0001)  ploadbar=  1.01156832807593E+05
 cg2d: Sum(rhs),rhsMax =  -5.49235934793042E+01  1.63128413782420E+00
(PID.TID 0000.0001)  ploadbar=  1.01157984352016E+05
 cg2d: Sum(rhs),rhsMax =  -5.49487049865653E+01  1.63172192970044E+00
(PID.TID 0000.0001)  ploadbar=  1.01159135896440E+05
 cg2d: Sum(rhs),rhsMax =  -5.50255451950452E+01  1.63065004988389E+00
(PID.TID 0000.0001)  ploadbar=  1.01160287440863E+05
 cg2d: Sum(rhs),rhsMax =  -5.50942124150849E+01  1.62984515603441E+00
(PID.TID 0000.0001)  ploadbar=  1.01161438985287E+05
 cg2d: Sum(rhs),rhsMax =  -5.51385779626125E+01  1.62980800964742E+00
(PID.TID 0000.0001)  ploadbar=  1.01161319897862E+05
 cg2d: Sum(rhs),rhsMax =  -5.51577534890672E+01  1.63056315132367E+00
(PID.TID 0000.0001)  ploadbar=  1.01161200810437E+05
 cg2d: Sum(rhs),rhsMax =  -5.51560167750357E+01  1.63198736780887E+00
(PID.TID 0000.0001)  ploadbar=  1.01161081723012E+05
 cg2d: Sum(rhs),rhsMax =  -5.51421525665457E+01  1.63382440675616E+00
(PID.TID 0000.0001)  ploadbar=  1.01160962635587E+05
 cg2d: Sum(rhs),rhsMax =  -5.50250747952188E+01  1.63878412977291E+00
(PID.TID 0000.0001)  ploadbar=  1.01160843548162E+05
 cg2d: Sum(rhs),rhsMax =  -5.48637232938487E+01  1.64514491022032E+00
(PID.TID 0000.0001)  ploadbar=  1.01160724460737E+05
 cg2d: Sum(rhs),rhsMax =  -5.47436681254216E+01  1.65023097936738E+00
(PID.TID 0000.0001)  ploadbar=  1.01161073051044E+05
 cg2d: Sum(rhs),rhsMax =  -5.46749944438763E+01  1.65371590704657E+00
(PID.TID 0000.0001)  ploadbar=  1.01161421641352E+05
 cg2d: Sum(rhs),rhsMax =  -5.46593512091462E+01  1.65553572089608E+00
(PID.TID 0000.0001)  ploadbar=  1.01161770231659E+05
 cg2d: Sum(rhs),rhsMax =  -5.46923131123310E+01  1.65581975224736E+00
(PID.TID 0000.0001)  ploadbar=  1.01162118821966E+05
 cg2d: Sum(rhs),rhsMax =  -5.47697867601094E+01  1.65469915632708E+00
(PID.TID 0000.0001)  ploadbar=  1.01162467412273E+05
 cg2d: Sum(rhs),rhsMax =  -5.48889287098837E+01  1.65226935006675E+00
(PID.TID 0000.0001)  ploadbar=  1.01162816002581E+05
 cg2d: Sum(rhs),rhsMax =  -5.50335875694957E+01  1.64912187924637E+00
(PID.TID 0000.0001)  ploadbar=  1.01163528220219E+05
 cg2d: Sum(rhs),rhsMax =  -5.51820090395081E+01  1.64591678466428E+00
(PID.TID 0000.0001)  ploadbar=  1.01164240437858E+05
 cg2d: Sum(rhs),rhsMax =  -5.53140336728154E+01  1.64325483724329E+00
(PID.TID 0000.0001)  ploadbar=  1.01164952655496E+05
 cg2d: Sum(rhs),rhsMax =  -5.53344330477037E+01  1.64395592746632E+00
(PID.TID 0000.0001)  ploadbar=  1.01165664873135E+05
 cg2d: Sum(rhs),rhsMax =  -5.53331452868058E+01  1.64534324180916E+00
(PID.TID 0000.0001)  ploadbar=  1.01166377090774E+05
 cg2d: Sum(rhs),rhsMax =  -5.53365791424902E+01  1.64663418155487E+00
(PID.TID 0000.0001)  ploadbar=  1.01167089308412E+05
 cg2d: Sum(rhs),rhsMax =  -5.52710871303435E+01  1.64992313940023E+00
(PID.TID 0000.0001)  ploadbar=  1.01166832809566E+05
 cg2d: Sum(rhs),rhsMax =  -5.51477769347016E+01  1.65490321043270E+00
(PID.TID 0000.0001)  ploadbar=  1.01166576310719E+05
 cg2d: Sum(rhs),rhsMax =  -5.49762475975239E+01  1.66131774361420E+00
(PID.TID 0000.0001)  ploadbar=  1.01166319811872E+05
 cg2d: Sum(rhs),rhsMax =  -5.47695391213775E+01  1.66880418327673E+00
(PID.TID 0000.0001)  ploadbar=  1.01166063313026E+05
 cg2d: Sum(rhs),rhsMax =  -5.45396167064341E+01  1.67702594519925E+00
(PID.TID 0000.0001)  ploadbar=  1.01165806814179E+05
 cg2d: Sum(rhs),rhsMax =  -5.42957559232693E+01  1.68571493943624E+00
(PID.TID 0000.0001)  ploadbar=  1.01165550315333E+05
 cg2d: Sum(rhs),rhsMax =  -5.40854719779528E+01  1.69349259356205E+00
(PID.TID 0000.0001)  ploadbar=  1.01165170948991E+05
 cg2d: Sum(rhs),rhsMax =  -5.39243601284927E+01  1.69984356623395E+00
(PID.TID 0000.0001)  ploadbar=  1.01164791582648E+05
 cg2d: Sum(rhs),rhsMax =  -5.38117305196955E+01  1.70476168777960E+00
(PID.TID 0000.0001)  ploadbar=  1.01164412216306E+05
 cg2d: Sum(rhs),rhsMax =  -5.37837924473605E+01  1.70707461979514E+00
(PID.TID 0000.0001)  ploadbar=  1.01164032849964E+05
 cg2d: Sum(rhs),rhsMax =  -5.38000061734924E+01  1.70805643644343E+00
(PID.TID 0000.0001)  ploadbar=  1.01163653483622E+05
 cg2d: Sum(rhs),rhsMax =  -5.38260051892863E+01  1.70879990174244E+00
(PID.TID 0000.0001)  ploadbar=  1.01163274117280E+05
 cg2d: Sum(rhs),rhsMax =  -5.37877411016766E+01  1.71150071106242E+00
(PID.TID 0000.0001)  ploadbar=  1.01162915977276E+05
 cg2d: Sum(rhs),rhsMax =  -5.36915959845779E+01  1.71596696548263E+00
(PID.TID 0000.0001)  ploadbar=  1.01162557837273E+05
 cg2d: Sum(rhs),rhsMax =  -5.35421655120247E+01  1.72207510985143E+00
(PID.TID 0000.0001)  ploadbar=  1.01162199697269E+05
 cg2d: Sum(rhs),rhsMax =  -5.33529435050883E+01  1.72942090199063E+00
(PID.TID 0000.0001)  ploadbar=  1.01161841557265E+05
 cg2d: Sum(rhs),rhsMax =  -5.31240632666155E+01  1.73803148316820E+00
(PID.TID 0000.0001)  ploadbar=  1.01161483417261E+05
 cg2d: Sum(rhs),rhsMax =  -5.24305872986169E+01  1.76211092922758E+00
(PID.TID 0000.0001)  ploadbar=  1.01161125277258E+05
 cg2d: Sum(rhs),rhsMax =  -5.18180050382232E+01  1.78407164717878E+00
(PID.TID 0000.0001)  ploadbar=  1.01160517389184E+05
 cg2d: Sum(rhs),rhsMax =  -5.12816727984200E+01  1.80389697471961E+00
(PID.TID 0000.0001)  ploadbar=  1.01159909501111E+05
 cg2d: Sum(rhs),rhsMax =  -5.08225880138144E+01  1.82139461865771E+00
(PID.TID 0000.0001)  ploadbar=  1.01159301613038E+05
 cg2d: Sum(rhs),rhsMax =  -5.04328466283672E+01  1.83670897205721E+00
(PID.TID 0000.0001)  ploadbar=  1.01158693724965E+05
 cg2d: Sum(rhs),rhsMax =  -5.00979394373323E+01  1.85026069088801E+00
(PID.TID 0000.0001)  ploadbar=  1.01158085836892E+05
 cg2d: Sum(rhs),rhsMax =  -4.98023125535100E+01  1.86254959581755E+00
(PID.TID 0000.0001)  ploadbar=  1.01157477948819E+05
 cg2d: Sum(rhs),rhsMax =  -4.95486620816222E+01  1.87336024324230E+00
(PID.TID 0000.0001)  ploadbar=  1.01157134353646E+05
 cg2d: Sum(rhs),rhsMax =  -4.93174822147730E+01  1.88338744223660E+00
(PID.TID 0000.0001)  ploadbar=  1.01156790758474E+05
 cg2d: Sum(rhs),rhsMax =  -4.90964172626750E+01  1.89308092509847E+00
(PID.TID 0000.0001)  ploadbar=  1.01156447163301E+05
 cg2d: Sum(rhs),rhsMax =  -4.88776980987806E+01  1.90273444961835E+00
(PID.TID 0000.0001)  ploadbar=  1.01156103568128E+05
 cg2d: Sum(rhs),rhsMax =  -4.86591628857225E+01  1.91243003768249E+00
(PID.TID 0000.0001)  ploadbar=  1.01155759972955E+05
 cg2d: Sum(rhs),rhsMax =  -4.84432628068146E+01  1.92207005939235E+00
(PID.TID 0000.0001)  ploadbar=  1.01155416377783E+05
 cg2d: Sum(rhs),rhsMax =  -4.82331934273893E+01  1.93157467978554E+00
(PID.TID 0000.0001)  ploadbar=  1.01155505699089E+05
 cg2d: Sum(rhs),rhsMax =  -4.80349071492207E+01  1.94069644235809E+00
(PID.TID 0000.0001)  ploadbar=  1.01155595020395E+05
 cg2d: Sum(rhs),rhsMax =  -4.78516731256049E+01  1.94929159512588E+00
(PID.TID 0000.0001)  ploadbar=  1.01155684341701E+05
 cg2d: Sum(rhs),rhsMax =  -4.76875370740884E+01  1.95717830946209E+00
(PID.TID 0000.0001)  ploadbar=  1.01155773663007E+05
 cg2d: Sum(rhs),rhsMax =  -4.75432312819840E+01  1.96430849104284E+00
(PID.TID 0000.0001)  ploadbar=  1.01155862984314E+05
 cg2d: Sum(rhs),rhsMax =  -4.74151145879012E+01  1.97081523274974E+00
(PID.TID 0000.0001)  ploadbar=  1.01155952305620E+05
 cg2d: Sum(rhs),rhsMax =  -4.72891837510642E+01  1.97718043627295E+00
(PID.TID 0000.0001)  ploadbar=  1.01155493486280E+05
 cg2d: Sum(rhs),rhsMax =  -4.71646907843550E+01  1.98343234213268E+00
(PID.TID 0000.0001)  ploadbar=  1.01155034666940E+05
 cg2d: Sum(rhs),rhsMax =  -4.70934169587117E+01  1.98738086124585E+00
(PID.TID 0000.0001)  ploadbar=  1.01154575847600E+05
 cg2d: Sum(rhs),rhsMax =  -4.70182903963335E+01  1.99141462749820E+00
(PID.TID 0000.0001)  ploadbar=  1.01154117028260E+05
 cg2d: Sum(rhs),rhsMax =  -4.69318426831608E+01  1.99585545848690E+00
(PID.TID 0000.0001)  ploadbar=  1.01153658208920E+05
 cg2d: Sum(rhs),rhsMax =  -4.68356548275816E+01  2.00064567863878E+00
(PID.TID 0000.0001)  ploadbar=  1.01153199389580E+05
 cg2d: Sum(rhs),rhsMax =  -4.67590640758379E+01  2.00469036880769E+00
(PID.TID 0000.0001)  ploadbar=  1.01153067957224E+05
 cg2d: Sum(rhs),rhsMax =  -4.66975809949451E+01  2.00816990260962E+00
(PID.TID 0000.0001)  ploadbar=  1.01152936524867E+05
 cg2d: Sum(rhs),rhsMax =  -4.66561908505968E+01  2.01086622938494E+00
(PID.TID 0000.0001)  ploadbar=  1.01152805092510E+05
 cg2d: Sum(rhs),rhsMax =  -4.66390989983007E+01  2.01259104333020E+00
(PID.TID 0000.0001)  ploadbar=  1.01152673660154E+05
 cg2d: Sum(rhs),rhsMax =  -4.66475228875751E+01  2.01328472718133E+00
(PID.TID 0000.0001)  ploadbar=  1.01152542227797E+05
 cg2d: Sum(rhs),rhsMax =  -4.66798998056565E+01  2.01301256041027E+00
(PID.TID 0000.0001)  ploadbar=  1.01152410795441E+05
 cg2d: Sum(rhs),rhsMax =  -4.67158538145942E+01  2.01257535325501E+00
(PID.TID 0000.0001)  ploadbar=  1.01152206145133E+05
 cg2d: Sum(rhs),rhsMax =  -4.67547210288515E+01  2.01200428759378E+00
(PID.TID 0000.0001)  ploadbar=  1.01152001494825E+05
 cg2d: Sum(rhs),rhsMax =  -4.67882883651292E+01  2.01165526446487E+00
(PID.TID 0000.0001)  ploadbar=  1.01151796844517E+05
 cg2d: Sum(rhs),rhsMax =  -4.68097825950748E+01  2.01181983956583E+00
(PID.TID 0000.0001)  ploadbar=  1.01151592194209E+05
 cg2d: Sum(rhs),rhsMax =  -4.68169535183566E+01  2.01259322344945E+00
(PID.TID 0000.0001)  ploadbar=  1.01151387543901E+05
 cg2d: Sum(rhs),rhsMax =  -4.68111696173399E+01  2.01391388945132E+00
(PID.TID 0000.0001)  ploadbar=  1.01151182893593E+05
 cg2d: Sum(rhs),rhsMax =  -4.67824146124995E+01  2.01626296192575E+00
(PID.TID 0000.0001)  ploadbar=  1.01151623941555E+05
 cg2d: Sum(rhs),rhsMax =  -4.67491513709077E+01  2.01884274190782E+00
(PID.TID 0000.0001)  ploadbar=  1.01152064989518E+05
 cg2d: Sum(rhs),rhsMax =  -4.67176944865236E+01  2.02137889793763E+00
(PID.TID 0000.0001)  ploadbar=  1.01152506037481E+05
 cg2d: Sum(rhs),rhsMax =  -4.66913763816394E+01  2.02372062871626E+00
(PID.TID 0000.0001)  ploadbar=  1.01152947085444E+05
 cg2d: Sum(rhs),rhsMax =  -4.66742972184809E+01  2.02568472327609E+00
(PID.TID 0000.0001)  ploadbar=  1.01153388133406E+05
 cg2d: Sum(rhs),rhsMax =  -4.66679722371144E+01  2.02719494747978E+00
(PID.TID 0000.0001)  ploadbar=  1.01153829181369E+05
 cg2d: Sum(rhs),rhsMax =  -4.66792984268144E+01  2.02788797608051E+00
(PID.TID 0000.0001)  ploadbar=  1.01154224642776E+05
 cg2d: Sum(rhs),rhsMax =  -4.66997800749521E+01  2.02812891272561E+00
(PID.TID 0000.0001)  ploadbar=  1.01154620104183E+05
 cg2d: Sum(rhs),rhsMax =  -4.67259570759983E+01  2.02806740757042E+00
(PID.TID 0000.0001)  ploadbar=  1.01155015565589E+05
 cg2d: Sum(rhs),rhsMax =  -4.67546000531823E+01  2.02784062897019E+00
(PID.TID 0000.0001)  ploadbar=  1.01155411026996E+05
 cg2d: Sum(rhs),rhsMax =  -4.67830302812172E+01  2.02756350218224E+00
(PID.TID 0000.0001)  ploadbar=  1.01155806488403E+05
 cg2d: Sum(rhs),rhsMax =  -4.68104927377702E+01  2.02726638421403E+00
(PID.TID 0000.0001)  ploadbar=  1.01156201949810E+05
 cg2d: Sum(rhs),rhsMax =  -4.68478846094173E+01  2.02667034235490E+00
(PID.TID 0000.0001)  ploadbar=  1.01156525261894E+05
 cg2d: Sum(rhs),rhsMax =  -4.68894458105511E+01  2.02602398115910E+00
(PID.TID 0000.0001)  ploadbar=  1.01156848573978E+05
 cg2d: Sum(rhs),rhsMax =  -4.69348807549585E+01  2.02533770502668E+00
(PID.TID 0000.0001)  ploadbar=  1.01157171886062E+05
 cg2d: Sum(rhs),rhsMax =  -4.69843878265893E+01  2.02460306393082E+00
(PID.TID 0000.0001)  ploadbar=  1.01157495198146E+05
 cg2d: Sum(rhs),rhsMax =  -4.70370478181217E+01  2.02385866075290E+00
(PID.TID 0000.0001)  ploadbar=  1.01157818510230E+05
 cg2d: Sum(rhs),rhsMax =  -4.70914053875109E+01  2.02316278264500E+00
(PID.TID 0000.0001)  ploadbar=  1.01158141822315E+05
 cg2d: Sum(rhs),rhsMax =  -4.71424512090152E+01  2.02259850086037E+00
(PID.TID 0000.0001)  ploadbar=  1.01157684243126E+05
 cg2d: Sum(rhs),rhsMax =  -4.71852179151865E+01  2.02237940715528E+00
(PID.TID 0000.0001)  ploadbar=  1.01157226663938E+05
 cg2d: Sum(rhs),rhsMax =  -4.72158487747808E+01  2.02267298041745E+00
(PID.TID 0000.0001)  ploadbar=  1.01156769084749E+05
 cg2d: Sum(rhs),rhsMax =  -4.72319709611625E+01  2.02357930425335E+00
(PID.TID 0000.0001)  ploadbar=  1.01156311505561E+05
 cg2d: Sum(rhs),rhsMax =  -4.72325223647750E+01  2.02514499135724E+00
(PID.TID 0000.0001)  ploadbar=  1.01155853926372E+05
 cg2d: Sum(rhs),rhsMax =  -4.72179467999193E+01  2.02735176025157E+00
(PID.TID 0000.0001)  ploadbar=  1.01155396347184E+05
 cg2d: Sum(rhs),rhsMax =  -4.71729856727298E+01  2.03087653912894E+00
(PID.TID 0000.0001)  ploadbar=  1.01155025421505E+05
 cg2d: Sum(rhs),rhsMax =  -4.71012806355761E+01  2.03556981789736E+00
(PID.TID 0000.0001)  ploadbar=  1.01154654495827E+05
 cg2d: Sum(rhs),rhsMax =  -4.70046358317723E+01  2.04136713316218E+00
(PID.TID 0000.0001)  ploadbar=  1.01154283570148E+05
 cg2d: Sum(rhs),rhsMax =  -4.68852027891840E+01  2.04819032432193E+00
(PID.TID 0000.0001)  ploadbar=  1.01153912644470E+05
 cg2d: Sum(rhs),rhsMax =  -4.67450493160787E+01  2.05596501980974E+00
(PID.TID 0000.0001)  ploadbar=  1.01153541718791E+05
 cg2d: Sum(rhs),rhsMax =  -4.65855734529690E+01  2.06464720616171E+00
(PID.TID 0000.0001)  ploadbar=  1.01153170793113E+05
 cg2d: Sum(rhs),rhsMax =  -4.64096434444390E+01  2.07403563738503E+00
(PID.TID 0000.0001)  ploadbar=  1.01152644360425E+05
 cg2d: Sum(rhs),rhsMax =  -4.62150537088129E+01  2.08424453738292E+00
(PID.TID 0000.0001)  ploadbar=  1.01152117927737E+05
 cg2d: Sum(rhs),rhsMax =  -4.60053466436559E+01  2.09513537175360E+00
(PID.TID 0000.0001)  ploadbar=  1.01151591495049E+05
 cg2d: Sum(rhs),rhsMax =  -4.57894346564453E+01  2.10631876326807E+00
(PID.TID 0000.0001)  ploadbar=  1.01151065062361E+05
 cg2d: Sum(rhs),rhsMax =  -4.55744195333305E+01  2.11747463806733E+00
(PID.TID 0000.0001)  ploadbar=  1.01150538629673E+05
 cg2d: Sum(rhs),rhsMax =  -4.53617205453618E+01  2.12853382742592E+00
(PID.TID 0000.0001)  ploadbar=  1.01150012196985E+05
 cg2d: Sum(rhs),rhsMax =  -4.51672038045978E+01  2.13890415492108E+00
(PID.TID 0000.0001)  ploadbar=  1.01149367935828E+05
 cg2d: Sum(rhs),rhsMax =  -4.50127409952639E+01  2.14751977956409E+00
(PID.TID 0000.0001)  ploadbar=  1.01148723674672E+05
 cg2d: Sum(rhs),rhsMax =  -4.49063746123196E+01  2.15395387042859E+00
(PID.TID 0000.0001)  ploadbar=  1.01148079413515E+05
 cg2d: Sum(rhs),rhsMax =  -4.48503812709613E+01  2.15806216897694E+00
(PID.TID 0000.0001)  ploadbar=  1.01147435152358E+05
 cg2d: Sum(rhs),rhsMax =  -4.48521153796344E+01  2.15946376148814E+00
(PID.TID 0000.0001)  ploadbar=  1.01146790891202E+05
 cg2d: Sum(rhs),rhsMax =  -4.49117687334329E+01  2.15814386680157E+00
(PID.TID 0000.0001)  ploadbar=  1.01146146630045E+05
 cg2d: Sum(rhs),rhsMax =  -4.50169585416251E+01  2.15461391303246E+00
(PID.TID 0000.0001)  ploadbar=  1.01145156327789E+05
 cg2d: Sum(rhs),rhsMax =  -4.51544922832903E+01  2.14952973008775E+00
(PID.TID 0000.0001)  ploadbar=  1.01144166025532E+05
 cg2d: Sum(rhs),rhsMax =  -4.53246420517608E+01  2.14290492741910E+00
(PID.TID 0000.0001)  ploadbar=  1.01143175723275E+05
 cg2d: Sum(rhs),rhsMax =  -4.55248695951697E+01  2.13489263228659E+00
(PID.TID 0000.0001)  ploadbar=  1.01142185421018E+05
 cg2d: Sum(rhs),rhsMax =  -4.57509000166024E+01  2.12572616502962E+00
(PID.TID 0000.0001)  ploadbar=  1.01141195118762E+05
 cg2d: Sum(rhs),rhsMax =  -4.59970190066591E+01  2.11569709953847E+00
(PID.TID 0000.0001)  ploadbar=  1.01140204816505E+05
 cg2d: Sum(rhs),rhsMax =  -4.62545521625345E+01  2.10524661432860E+00
(PID.TID 0000.0001)  ploadbar=  1.01138781391385E+05
 cg2d: Sum(rhs),rhsMax =  -4.65115199984445E+01  2.09492895644774E+00
(PID.TID 0000.0001)  ploadbar=  1.01137357966265E+05
 cg2d: Sum(rhs),rhsMax =  -4.67504369631550E+01  2.08552565971287E+00
(PID.TID 0000.0001)  ploadbar=  1.01135934541145E+05
 cg2d: Sum(rhs),rhsMax =  -4.69545247484881E+01  2.07775872793207E+00
(PID.TID 0000.0001)  ploadbar=  1.01134511116024E+05
 cg2d: Sum(rhs),rhsMax =  -4.71149045428804E+01  2.07197551361215E+00
(PID.TID 0000.0001)  ploadbar=  1.01133087690904E+05
 cg2d: Sum(rhs),rhsMax =  -4.72411328166095E+01  2.06772144678206E+00
(PID.TID 0000.0001)  ploadbar=  1.01131664265784E+05
 cg2d: Sum(rhs),rhsMax =  -4.73507817368611E+01  2.06412842111526E+00
(PID.TID 0000.0001)  ploadbar=  1.01131563453135E+05
 cg2d: Sum(rhs),rhsMax =  -4.74448261222591E+01  2.06114050028450E+00
(PID.TID 0000.0001)  ploadbar=  1.01131462640486E+05
 cg2d: Sum(rhs),rhsMax =  -4.75279285327648E+01  2.05855282357174E+00
(PID.TID 0000.0001)  ploadbar=  1.01131361827837E+05
 cg2d: Sum(rhs),rhsMax =  -4.76023572939553E+01  2.05626281346920E+00
(PID.TID 0000.0001)  ploadbar=  1.01131261015188E+05
 cg2d: Sum(rhs),rhsMax =  -4.76657505583119E+01  2.05437360174759E+00
(PID.TID 0000.0001)  ploadbar=  1.01131160202539E+05
 cg2d: Sum(rhs),rhsMax =  -4.77127929543470E+01  2.05310459925246E+00
(PID.TID 0000.0001)  ploadbar=  1.01131059389890E+05
 cg2d: Sum(rhs),rhsMax =  -4.77532563066206E+01  2.05217369535453E+00
(PID.TID 0000.0001)  ploadbar=  1.01132372049832E+05
 cg2d: Sum(rhs),rhsMax =  -4.77841879367791E+01  2.05170491674822E+00
(PID.TID 0000.0001)  ploadbar=  1.01133684709774E+05
 cg2d: Sum(rhs),rhsMax =  -4.77995014552624E+01  2.05195927139480E+00
(PID.TID 0000.0001)  ploadbar=  1.01134997369716E+05
 cg2d: Sum(rhs),rhsMax =  -4.77951922807588E+01  2.05310750291010E+00
(PID.TID 0000.0001)  ploadbar=  1.01136310029658E+05
 cg2d: Sum(rhs),rhsMax =  -4.77685783480186E+01  2.05526108235239E+00
(PID.TID 0000.0001)  ploadbar=  1.01137622689599E+05
 cg2d: Sum(rhs),rhsMax =  -4.77236960213342E+01  2.05824295182098E+00
(PID.TID 0000.0001)  ploadbar=  1.01138935349541E+05
 cg2d: Sum(rhs),rhsMax =  -4.76683375955291E+01  2.06168453019805E+00
(PID.TID 0000.0001)  ploadbar=  1.01140649454817E+05
 cg2d: Sum(rhs),rhsMax =  -4.76144952505896E+01  2.06507285865871E+00
(PID.TID 0000.0001)  ploadbar=  1.01142363560092E+05
 cg2d: Sum(rhs),rhsMax =  -4.75678808727815E+01  2.06816217682976E+00
(PID.TID 0000.0001)  ploadbar=  1.01144077665367E+05
 cg2d: Sum(rhs),rhsMax =  -4.75288310265404E+01  2.07093735234976E+00
(PID.TID 0000.0001)  ploadbar=  1.01145791770643E+05
 cg2d: Sum(rhs),rhsMax =  -4.74893941901846E+01  2.07374671704777E+00
(PID.TID 0000.0001)  ploadbar=  1.01147505875918E+05
 cg2d: Sum(rhs),rhsMax =  -4.74340152205437E+01  2.07726441421158E+00
(PID.TID 0000.0001)  ploadbar=  1.01149219981193E+05
 cg2d: Sum(rhs),rhsMax =  -4.73531607517654E+01  2.08191179558826E+00
(PID.TID 0000.0001)  ploadbar=  1.01150577622345E+05
 cg2d: Sum(rhs),rhsMax =  -4.72404778938961E+01  2.08798690864908E+00
(PID.TID 0000.0001)  ploadbar=  1.01151935263497E+05
 cg2d: Sum(rhs),rhsMax =  -4.71044416496757E+01  2.09513427147675E+00
(PID.TID 0000.0001)  ploadbar=  1.01153292904649E+05
 cg2d: Sum(rhs),rhsMax =  -4.69289066546089E+01  2.10408916151039E+00
(PID.TID 0000.0001)  ploadbar=  1.01154650545800E+05
 cg2d: Sum(rhs),rhsMax =  -4.67189847347700E+01  2.11465668438991E+00
(PID.TID 0000.0001)  ploadbar=  1.01156008186952E+05
 cg2d: Sum(rhs),rhsMax =  -4.64866777774337E+01  2.12632961329605E+00
(PID.TID 0000.0001)  ploadbar=  1.01157365828104E+05
 cg2d: Sum(rhs),rhsMax =  -4.62422066736842E+01  2.13863779737679E+00
(PID.TID 0000.0001)  ploadbar=  1.01158150129743E+05
 cg2d: Sum(rhs),rhsMax =  -4.59938469150458E+01  2.15121156233033E+00
(PID.TID 0000.0001)  ploadbar=  1.01158934431382E+05
 cg2d: Sum(rhs),rhsMax =  -4.57480151576978E+01  2.16375388868576E+00
(PID.TID 0000.0001)  ploadbar=  1.01159718733021E+05
 cg2d: Sum(rhs),rhsMax =  -4.55079965430957E+01  2.17610629296616E+00
(PID.TID 0000.0001)  ploadbar=  1.01160503034660E+05
 cg2d: Sum(rhs),rhsMax =  -4.52729533643348E+01  2.18830397727161E+00
(PID.TID 0000.0001)  ploadbar=  1.01161287336299E+05
 cg2d: Sum(rhs),rhsMax =  -4.50382658849503E+01  2.20056329379287E+00
(PID.TID 0000.0001)  ploadbar=  1.01162071637938E+05
 cg2d: Sum(rhs),rhsMax =  -4.48065757322634E+01  2.21285653165060E+00
(PID.TID 0000.0001)  ploadbar=  1.01162962201324E+05
 cg2d: Sum(rhs),rhsMax =  -4.45749303551417E+01  2.22532309264430E+00
(PID.TID 0000.0001)  ploadbar=  1.01163852764709E+05
 cg2d: Sum(rhs),rhsMax =  -4.43423632535430E+01  2.23801899120625E+00
(PID.TID 0000.0001)  ploadbar=  1.01164743328094E+05
 cg2d: Sum(rhs),rhsMax =  -4.41098020674662E+01  2.25090434376055E+00
(PID.TID 0000.0001)  ploadbar=  1.01165633891479E+05
 cg2d: Sum(rhs),rhsMax =  -4.38801938000585E+01  2.26382883159195E+00
(PID.TID 0000.0001)  ploadbar=  1.01166524454865E+05
 cg2d: Sum(rhs),rhsMax =  -4.36571488885502E+01  2.27659148781691E+00
(PID.TID 0000.0001)  ploadbar=  1.01167415018250E+05
 cg2d: Sum(rhs),rhsMax =  -4.34390089424493E+01  2.28914878579185E+00
(PID.TID 0000.0001)  ploadbar=  1.01168559540231E+05
 cg2d: Sum(rhs),rhsMax =  -4.32264377009213E+01  2.30146539816701E+00
(PID.TID 0000.0001)  ploadbar=  1.01169704062213E+05
 cg2d: Sum(rhs),rhsMax =  -4.30210911782332E+01  2.31344059246401E+00
(PID.TID 0000.0001)  ploadbar=  1.01170848584195E+05
 cg2d: Sum(rhs),rhsMax =  -4.28239987216819E+01  2.32500710402416E+00
(PID.TID 0000.0001)  ploadbar=  1.01171993106176E+05
 cg2d: Sum(rhs),rhsMax =  -4.26354177934415E+01  2.33614451393613E+00
(PID.TID 0000.0001)  ploadbar=  1.01173137628158E+05
 cg2d: Sum(rhs),rhsMax =  -4.24554653669588E+01  2.34683970805512E+00
(PID.TID 0000.0001)  ploadbar=  1.01174282150139E+05
 cg2d: Sum(rhs),rhsMax =  -4.22943116434899E+01  2.35656530506920E+00
(PID.TID 0000.0001)  ploadbar=  1.01175562373623E+05
 cg2d: Sum(rhs),rhsMax =  -4.21594233626618E+01  2.36488054931424E+00
(PID.TID 0000.0001)  ploadbar=  1.01176842597107E+05
 cg2d: Sum(rhs),rhsMax =  -4.20557730969097E+01  2.37147927018355E+00
(PID.TID 0000.0001)  ploadbar=  1.01178122820591E+05
 cg2d: Sum(rhs),rhsMax =  -4.19858708288411E+01  2.37619158818628E+00
(PID.TID 0000.0001)  ploadbar=  1.01179403044075E+05
 cg2d: Sum(rhs),rhsMax =  -4.19499429017728E+01  2.37898368684847E+00
(PID.TID 0000.0001)  ploadbar=  1.01180683267559E+05
 cg2d: Sum(rhs),rhsMax =  -4.19470753309896E+01  2.37989955194033E+00
(PID.TID 0000.0001)  ploadbar=  1.01181963491043E+05
 cg2d: Sum(rhs),rhsMax =  -4.19600210545132E+01  2.37984791962465E+00
(PID.TID 0000.0001)  ploadbar=  1.01183880665940E+05
 cg2d: Sum(rhs),rhsMax =  -4.19790115433780E+01  2.37937779832488E+00
(PID.TID 0000.0001)  ploadbar=  1.01185797840837E+05
 cg2d: Sum(rhs),rhsMax =  -4.19962077869179E+01  2.37893413566031E+00
(PID.TID 0000.0001)  ploadbar=  1.01187715015734E+05
 cg2d: Sum(rhs),rhsMax =  -4.20074865748607E+01  2.37875249508984E+00
(PID.TID 0000.0001)  ploadbar=  1.01189632190632E+05
 cg2d: Sum(rhs),rhsMax =  -4.20124389982716E+01  2.37885451787912E+00
(PID.TID 0000.0001)  ploadbar=  1.01191549365529E+05
 cg2d: Sum(rhs),rhsMax =  -4.20150081582394E+01  2.37901601588508E+00
(PID.TID 0000.0001)  ploadbar=  1.01193466540426E+05
 cg2d: Sum(rhs),rhsMax =  -4.20111850412130E+01  2.37959448590248E+00
(PID.TID 0000.0001)  ploadbar=  1.01195279226862E+05
 cg2d: Sum(rhs),rhsMax =  -4.20060747985450E+01  2.38029712698710E+00
(PID.TID 0000.0001)  ploadbar=  1.01197091913298E+05
 cg2d: Sum(rhs),rhsMax =  -4.20073032735622E+01  2.38069488601596E+00
(PID.TID 0000.0001)  ploadbar=  1.01198904599734E+05
 cg2d: Sum(rhs),rhsMax =  -4.20105421106922E+01  2.38102723942437E+00
(PID.TID 0000.0001)  ploadbar=  1.01200717286170E+05
 cg2d: Sum(rhs),rhsMax =  -4.20139999189649E+01  2.38140125986199E+00
(PID.TID 0000.0001)  ploadbar=  1.01202529972606E+05
 cg2d: Sum(rhs),rhsMax =  -4.20120616320547E+01  2.38213378747893E+00
(PID.TID 0000.0001)  ploadbar=  1.01204342659042E+05
 cg2d: Sum(rhs),rhsMax =  -4.20186514352188E+01  2.38243118027385E+00
(PID.TID 0000.0001)  ploadbar=  1.01203660867392E+05
 cg2d: Sum(rhs),rhsMax =  -4.20306031946429E+01  2.38247543340333E+00
(PID.TID 0000.0001)  ploadbar=  1.01202979075743E+05
 cg2d: Sum(rhs),rhsMax =  -4.20531722860519E+01  2.38197311413770E+00
(PID.TID 0000.0001)  ploadbar=  1.01202297284093E+05
 cg2d: Sum(rhs),rhsMax =  -4.20937227110384E+01  2.38051350243199E+00
(PID.TID 0000.0001)  ploadbar=  1.01201615492444E+05
 cg2d: Sum(rhs),rhsMax =  -4.21606158329689E+01  2.37762884738480E+00
(PID.TID 0000.0001)  ploadbar=  1.01200933700795E+05
 cg2d: Sum(rhs),rhsMax =  -4.22627659236588E+01  2.37282559301141E+00
(PID.TID 0000.0001)  ploadbar=  1.01200251909145E+05
 cg2d: Sum(rhs),rhsMax =  -4.23858800670633E+01  2.36688935521338E+00
(PID.TID 0000.0001)  ploadbar=  1.01199957611292E+05
 cg2d: Sum(rhs),rhsMax =  -4.25286396627769E+01  2.35991146076866E+00
(PID.TID 0000.0001)  ploadbar=  1.01199663313438E+05
 cg2d: Sum(rhs),rhsMax =  -4.24500769908980E+01  2.36526810224137E+00
(PID.TID 0000.0001)  ploadbar=  1.01199369015585E+05
 cg2d: Sum(rhs),rhsMax =  -4.22850771217230E+01  2.37550820545006E+00
(PID.TID 0000.0001)  ploadbar=  1.01199074717732E+05
 cg2d: Sum(rhs),rhsMax =  -4.22117833866529E+01  2.38066515487309E+00
(PID.TID 0000.0001)  ploadbar=  1.01198780419878E+05
 cg2d: Sum(rhs),rhsMax =  -4.21860062101015E+01  2.38317018201764E+00
(PID.TID 0000.0001)  ploadbar=  1.01198486122025E+05
 cg2d: Sum(rhs),rhsMax =  -4.21872054709966E+01  2.38407739012071E+00
(PID.TID 0000.0001)  ploadbar=  1.01197763806159E+05
 cg2d: Sum(rhs),rhsMax =  -4.21974783228605E+01  2.38439213707832E+00
(PID.TID 0000.0001)  ploadbar=  1.01197041490294E+05
 cg2d: Sum(rhs),rhsMax =  -4.22003267440782E+01  2.38504388974396E+00
(PID.TID 0000.0001)  ploadbar=  1.01196319174428E+05
 cg2d: Sum(rhs),rhsMax =  -4.21863451652399E+01  2.38656439805624E+00
(PID.TID 0000.0001)  ploadbar=  1.01195596858562E+05
 cg2d: Sum(rhs),rhsMax =  -4.21543307144484E+01  2.38901860722635E+00
(PID.TID 0000.0001)  ploadbar=  1.01194874542697E+05
 cg2d: Sum(rhs),rhsMax =  -4.21104015920858E+01  2.39206062620403E+00
(PID.TID 0000.0001)  ploadbar=  1.01194152226831E+05
 cg2d: Sum(rhs),rhsMax =  -4.20716838596652E+01  2.39489655763921E+00
(PID.TID 0000.0001)  ploadbar=  1.01193669507568E+05
 cg2d: Sum(rhs),rhsMax =  -4.20496872023779E+01  2.39686613935038E+00
(PID.TID 0000.0001)  ploadbar=  1.01193186788304E+05
 cg2d: Sum(rhs),rhsMax =  -4.20559207548105E+01  2.39730564598243E+00
(PID.TID 0000.0001)  ploadbar=  1.01192704069041E+05
 cg2d: Sum(rhs),rhsMax =  -4.20977795939004E+01  2.39578702457043E+00
(PID.TID 0000.0001)  ploadbar=  1.01192221349778E+05
 cg2d: Sum(rhs),rhsMax =  -4.21827869637646E+01  2.39188814451512E+00
(PID.TID 0000.0001)  ploadbar=  1.01191738630514E+05
 cg2d: Sum(rhs),rhsMax =  -4.23123588526706E+01  2.38554815271904E+00
(PID.TID 0000.0001)  ploadbar=  1.01191255911251E+05
 cg2d: Sum(rhs),rhsMax =  -4.24743396750576E+01  2.37745051406309E+00
(PID.TID 0000.0001)  ploadbar=  1.01190480163476E+05
 cg2d: Sum(rhs),rhsMax =  -4.26545436132690E+01  2.36841932928297E+00
(PID.TID 0000.0001)  ploadbar=  1.01189704415700E+05
 cg2d: Sum(rhs),rhsMax =  -4.28391235328854E+01  2.35923938357447E+00
(PID.TID 0000.0001)  ploadbar=  1.01188928667925E+05
 cg2d: Sum(rhs),rhsMax =  -4.30195896652998E+01  2.35037882908161E+00
(PID.TID 0000.0001)  ploadbar=  1.01188152920150E+05
 cg2d: Sum(rhs),rhsMax =  -4.31937182033208E+01  2.34194831731816E+00
(PID.TID 0000.0001)  ploadbar=  1.01187377172374E+05
 cg2d: Sum(rhs),rhsMax =  -4.33654874018207E+01  2.33371855993522E+00
(PID.TID 0000.0001)  ploadbar=  1.01186601424599E+05
 cg2d: Sum(rhs),rhsMax =  -4.35536127708931E+01  2.32472503004670E+00
(PID.TID 0000.0001)  ploadbar=  1.01185233255254E+05
 cg2d: Sum(rhs),rhsMax =  -4.37733219812067E+01  2.31417960392873E+00
(PID.TID 0000.0001)  ploadbar=  1.01183865085909E+05
 cg2d: Sum(rhs),rhsMax =  -4.40394877549896E+01  2.30134859312275E+00
(PID.TID 0000.0001)  ploadbar=  1.01182496916564E+05
 cg2d: Sum(rhs),rhsMax =  -4.42750102476408E+01  2.29028821430569E+00
(PID.TID 0000.0001)  ploadbar=  1.01181128747219E+05
 cg2d: Sum(rhs),rhsMax =  -4.42472476761240E+01  2.29293454502356E+00
(PID.TID 0000.0001)  ploadbar=  1.01179760577875E+05
 cg2d: Sum(rhs),rhsMax =  -4.42116855679556E+01  2.29601609693006E+00
(PID.TID 0000.0001)  ploadbar=  1.01178392408530E+05
 cg2d: Sum(rhs),rhsMax =  -4.41818717114957E+01  2.29874072395149E+00
(PID.TID 0000.0001)  ploadbar=  1.01177662541266E+05
 cg2d: Sum(rhs),rhsMax =  -4.41574606946412E+01  2.30111319994012E+00
(PID.TID 0000.0001)  ploadbar=  1.01176932674002E+05
 cg2d: Sum(rhs),rhsMax =  -4.41390634287578E+01  2.30309826757403E+00
(PID.TID 0000.0001)  ploadbar=  1.01176202806738E+05
 cg2d: Sum(rhs),rhsMax =  -4.41273680752785E+01  2.30465822826898E+00
(PID.TID 0000.0001)  ploadbar=  1.01175472939474E+05
 cg2d: Sum(rhs),rhsMax =  -4.41223780353749E+01  2.30578531007413E+00
(PID.TID 0000.0001)  ploadbar=  1.01174743072210E+05
 cg2d: Sum(rhs),rhsMax =  -4.41241807215930E+01  2.30646830550180E+00
(PID.TID 0000.0001)  ploadbar=  1.01174013204946E+05
 cg2d: Sum(rhs),rhsMax =  -4.41185417595005E+01  2.30757172683531E+00
(PID.TID 0000.0001)  ploadbar=  1.01173094553671E+05
 cg2d: Sum(rhs),rhsMax =  -4.41005492289104E+01  2.30935136709297E+00
(PID.TID 0000.0001)  ploadbar=  1.01172175902395E+05
 cg2d: Sum(rhs),rhsMax =  -4.40648297290125E+01  2.31208837625995E+00
(PID.TID 0000.0001)  ploadbar=  1.01171257251120E+05
 cg2d: Sum(rhs),rhsMax =  -4.40069391222426E+01  2.31601945417586E+00
(PID.TID 0000.0001)  ploadbar=  1.01170338599844E+05
 cg2d: Sum(rhs),rhsMax =  -4.39201604235582E+01  2.32150435793767E+00
(PID.TID 0000.0001)  ploadbar=  1.01169419948569E+05
 cg2d: Sum(rhs),rhsMax =  -4.37991664759723E+01  2.32884106529154E+00
(PID.TID 0000.0001)  ploadbar=  1.01168501297293E+05
 cg2d: Sum(rhs),rhsMax =  -4.36585683902269E+01  2.33726536383546E+00
(PID.TID 0000.0001)  ploadbar=  1.01167879865933E+05
 cg2d: Sum(rhs),rhsMax =  -4.35078491196285E+01  2.34628607421901E+00
(PID.TID 0000.0001)  ploadbar=  1.01167258434573E+05
 cg2d: Sum(rhs),rhsMax =  -4.33559858565788E+01  2.35543420639106E+00
(PID.TID 0000.0001)  ploadbar=  1.01166637003213E+05
 cg2d: Sum(rhs),rhsMax =  -4.32104444070284E+01  2.36430543828916E+00
(PID.TID 0000.0001)  ploadbar=  1.01166015571853E+05
 cg2d: Sum(rhs),rhsMax =  -4.30774243230070E+01  2.37254488950409E+00
(PID.TID 0000.0001)  ploadbar=  1.01165394140493E+05
 cg2d: Sum(rhs),rhsMax =  -4.29613405397298E+01  2.37988878412620E+00
(PID.TID 0000.0001)  ploadbar=  1.01164772709133E+05
 cg2d: Sum(rhs),rhsMax =  -4.28712419159549E+01  2.38591376013018E+00
(PID.TID 0000.0001)  ploadbar=  1.01163701663136E+05
 cg2d: Sum(rhs),rhsMax =  -4.28121851780209E+01  2.39032064536684E+00
(PID.TID 0000.0001)  ploadbar=  1.01162630617138E+05
 cg2d: Sum(rhs),rhsMax =  -4.27801371375230E+01  2.39331781331635E+00
(PID.TID 0000.0001)  ploadbar=  1.01161559571141E+05
 cg2d: Sum(rhs),rhsMax =  -4.27686752158163E+01  2.39525442742582E+00
(PID.TID 0000.0001)  ploadbar=  1.01160488525144E+05
 cg2d: Sum(rhs),rhsMax =  -4.27847695806913E+01  2.39573683706339E+00
(PID.TID 0000.0001)  ploadbar=  1.01159417479147E+05
 cg2d: Sum(rhs),rhsMax =  -4.28371879230454E+01  2.39427172722509E+00
(PID.TID 0000.0001)  ploadbar=  1.01158346433150E+05
 cg2d: Sum(rhs),rhsMax =  -4.29071108179534E+01  2.39174295523751E+00
(PID.TID 0000.0001)  ploadbar=  1.01157941499399E+05
 cg2d: Sum(rhs),rhsMax =  -4.29861494601058E+01  2.38862714361408E+00
(PID.TID 0000.0001)  ploadbar=  1.01157536565649E+05
 cg2d: Sum(rhs),rhsMax =  -4.30713263108203E+01  2.38509350711152E+00
(PID.TID 0000.0001)  ploadbar=  1.01157131631899E+05
 cg2d: Sum(rhs),rhsMax =  -4.31591108038964E+01  2.38133466421652E+00
(PID.TID 0000.0001)  ploadbar=  1.01156726698148E+05
 cg2d: Sum(rhs),rhsMax =  -4.32477385596143E+01  2.37744329590860E+00
(PID.TID 0000.0001)  ploadbar=  1.01156321764398E+05
 cg2d: Sum(rhs),rhsMax =  -4.33351591218078E+01  2.37352738002493E+00
(PID.TID 0000.0001)  ploadbar=  1.01155916830647E+05
 cg2d: Sum(rhs),rhsMax =  -4.34267875326896E+01  2.36945626976926E+00
(PID.TID 0000.0001)  ploadbar=  1.01155231917955E+05
 cg2d: Sum(rhs),rhsMax =  -4.35280668146641E+01  2.36493777114338E+00
(PID.TID 0000.0001)  ploadbar=  1.01154547005262E+05
 cg2d: Sum(rhs),rhsMax =  -4.36426712759634E+01  2.35977741715522E+00
(PID.TID 0000.0001)  ploadbar=  1.01153862092569E+05
 cg2d: Sum(rhs),rhsMax =  -4.37725214788428E+01  2.35388413083205E+00
(PID.TID 0000.0001)  ploadbar=  1.01153177179877E+05
 cg2d: Sum(rhs),rhsMax =  -4.39171438568126E+01  2.34729593402607E+00
(PID.TID 0000.0001)  ploadbar=  1.01152492267184E+05
 cg2d: Sum(rhs),rhsMax =  -4.41480531658524E+01  2.33623495599117E+00
(PID.TID 0000.0001)  ploadbar=  1.01151807354491E+05
 cg2d: Sum(rhs),rhsMax =  -4.48860917974953E+01  2.29899917821436E+00
(PID.TID 0000.0001)  ploadbar=  1.01151430280071E+05
 cg2d: Sum(rhs),rhsMax =  -4.56573750625951E+01  2.26130534188387E+00
(PID.TID 0000.0001)  ploadbar=  1.01151053205651E+05
 cg2d: Sum(rhs),rhsMax =  -4.58235884756913E+01  2.25422155361055E+00
(PID.TID 0000.0001)  ploadbar=  1.01150676131231E+05
 cg2d: Sum(rhs),rhsMax =  -4.57367894960406E+01  2.25959824879903E+00
(PID.TID 0000.0001)  ploadbar=  1.01150299056811E+05
 cg2d: Sum(rhs),rhsMax =  -4.56585827508503E+01  2.26454115935044E+00
(PID.TID 0000.0001)  ploadbar=  1.01149921982391E+05
 cg2d: Sum(rhs),rhsMax =  -4.55965477106655E+01  2.26865938202291E+00
(PID.TID 0000.0001)  ploadbar=  1.01149544907971E+05
 cg2d: Sum(rhs),rhsMax =  -4.55531513055886E+01  2.27189501007016E+00
(PID.TID 0000.0001)  ploadbar=  1.01150737770120E+05
 cg2d: Sum(rhs),rhsMax =  -4.55361862077309E+01  2.27385419270253E+00
(PID.TID 0000.0001)  ploadbar=  1.01151930632268E+05
 cg2d: Sum(rhs),rhsMax =  -4.55463811196736E+01  2.27449452377480E+00
(PID.TID 0000.0001)  ploadbar=  1.01153123494416E+05
(PID.TID 0000.0001) %CHECKPOINT     13111 ckptA
(PID.TID 0000.0001) 
(PID.TID 0000.0001) == cost_profiles: begin ==
(PID.TID 0000.0001)  cost_profiles( 4, 1)=  0.34226E+05 0.99820E+06
(PID.TID 0000.0001)  cost_profiles( 4, 2)=  0.28291E+05 0.97847E+06
(PID.TID 0000.0001)  cost_profiles( 8, 1)=  0.38632E+03 0.89570E+05
(PID.TID 0000.0001)  cost_profiles( 8, 2)=  0.22560E+03 0.41104E+05
(PID.TID 0000.0001)  cost_profiles(10, 1)=  0.54036E+06 0.30162E+07
(PID.TID 0000.0001)  cost_profiles(19, 1)=  0.54605E+04 0.26451E+06
(PID.TID 0000.0001)  cost_profiles(19, 2)=  0.39698E+04 0.26219E+06
(PID.TID 0000.0001)  cost_profiles(29, 1)=  0.54605E+04 0.26451E+06
(PID.TID 0000.0001)  cost_profiles(29, 2)=  0.39698E+04 0.26219E+06
(PID.TID 0000.0001)  cost_profiles_mean( 1)=  0.17332E+06 0.27874E+06
(PID.TID 0000.0001)  cost_profiles_mean( 2)=  0.53587E+05 0.14083E+06
(PID.TID 0000.0001) == cost_profiles: end   ==
(PID.TID 0000.0001) 
(PID.TID 0000.0001) gmsl          13     0.81250E-03    -0.15315E-03
(PID.TID 0000.0001) gmsl          14    -0.22350E-02    -0.10591E-02
(PID.TID 0000.0001) gmsl          15    -0.89188E-03     0.34667E-03
(PID.TID 0000.0001) gmsl          16     0.53742E-03     0.41801E-03
(PID.TID 0000.0001) gmsl          17     0.64319E-03     0.19030E-03
(PID.TID 0000.0001) gmsl          18     0.11338E-02     0.25727E-03
(PID.TID 0000.0001)  sshv4: use global mean of eta useEtaMean= F
(PID.TID 0000.0001)  sshv4:re-reference MDT= T
(PID.TID 0000.0001) mdt[start,end]date(1): 19930101,20171231
(PID.TID 0000.0001)   TP MDT yrrange:          1993,2017
(PID.TID 0000.0001)  --> f_profiles = 0.342258975550997E+05 4 1
(PID.TID 0000.0001)  --> f_profiles = 0.282912451408844E+05 4 2
(PID.TID 0000.0001)  --> f_profiles = 0.386319612387233E+03 8 1
(PID.TID 0000.0001)  --> f_profiles = 0.225603188799519E+03 8 2
(PID.TID 0000.0001)  --> f_profiles = 0.540363074070712E+0610 1
(PID.TID 0000.0001)  --> f_profiles = 0.546048737230544E+0419 1
(PID.TID 0000.0001)  --> f_profiles = 0.396976480895902E+0419 2
(PID.TID 0000.0001)  --> f_profiles = 0.546048737230544E+0429 1
(PID.TID 0000.0001)  --> f_profiles = 0.396976480895902E+0429 2
(PID.TID 0000.0001)  --> f_profiles_mean = 0.173318729669717E+06 1
(PID.TID 0000.0001)  --> f_profiles_mean = 0.535871770628622E+05 2
(PID.TID 0000.0001)  --> f_gencost = 0.144959595030308E+08 1
(PID.TID 0000.0001)  --> f_gencost = 0.306966380680703E+06 2
(PID.TID 0000.0001)  --> f_gencost = 0.165858556183344E+07 3
(PID.TID 0000.0001)  --> f_gencost = 0.149961943135752E+05 4
(PID.TID 0000.0001)  --> f_gencost = 0.980776169274302E+05 5
(PID.TID 0000.0001)  --> f_gencost = 0.590484636640860E+06 7
(PID.TID 0000.0001)  --> f_gencost = 0.560619025167072E+06 8
(PID.TID 0000.0001)  --> f_gencost = 0.758406234100295E+0011
(PID.TID 0000.0001)  --> f_gencost = 0.450423471303291E+0612
(PID.TID 0000.0001)  --> f_gencost = 0.803461460924381E+0613
(PID.TID 0000.0001)  --> f_gencost = 0.115931466904826E+0715
(PID.TID 0000.0001)  --> f_gencost = 0.207551651643307E+0717
(PID.TID 0000.0001)  --> f_gencost = 0.248030026196511E+0718
(PID.TID 0000.0001)  --> f_gencost = 0.331464462669553E+0022
(PID.TID 0000.0001)  --> f_gencost = 0.125506279304574E+1127
(PID.TID 0000.0001)  --> f_genarr2d = 0.112316272108573E+00 1
(PID.TID 0000.0001)  --> f_genarr3d = 0.603915502546035E+04 1
(PID.TID 0000.0001)  --> f_genarr3d = 0.271902630686721E+04 2
(PID.TID 0000.0001)  --> f_genarr3d = 0.168301931515201E+05 3
(PID.TID 0000.0001)  --> f_genarr3d = 0.519422256503459E+04 4
(PID.TID 0000.0001)  --> f_genarr3d = 0.101631908524040E+05 5
(PID.TID 0000.0001)  --> f_genarr3d = 0.247466853841387E+01 6
(PID.TID 0000.0001)  --> f_genarr3d = 0.279378863819902E+02 7
(PID.TID 0000.0001)  --> fc               = 0.673318413245066E+07
(PID.TID 0000.0001)   early fc =  0.000000000000000E+00
(PID.TID 0000.0001)   local fc =  0.666071420802358E+05
(PID.TID 0000.0001)  global fc =  0.673318413245066E+07
(PID.TID 0000.0001)   Seconds in section "ALL                    [THE_MODEL_MAIN]":
(PID.TID 0000.0001)           User time: 2175.48
(PID.TID 0000.0001)         System time: 263.81
(PID.TID 0000.0001)     Wall clock time: 3306.6174130439758
(PID.TID 0000.0001)          No. starts: 1
(PID.TID 0000.0001)           No. stops: 1
(PID.TID 0000.0001)   Seconds in section "INITIALISE_FIXED       [THE_MODEL_MAIN]":
(PID.TID 0000.0001)           User time: 23.740000000000002
(PID.TID 0000.0001)         System time: 168.
(PID.TID 0000.0001)     Wall clock time: 322.45077919960022
(PID.TID 0000.0001)          No. starts: 1
(PID.TID 0000.0001)           No. stops: 1
(PID.TID 0000.0001)   Seconds in section "THE_MAIN_LOOP          [THE_MODEL_MAIN]":
(PID.TID 0000.0001)           User time: 2151.7399999999998
(PID.TID 0000.0001)         System time: 95.810000000000002
(PID.TID 0000.0001)     Wall clock time: 2984.1665439605713
(PID.TID 0000.0001)          No. starts: 1
(PID.TID 0000.0001)           No. stops: 1
(PID.TID 0000.0001)   Seconds in section "INITIALISE_VARIA    [THE_MAIN_LOOP]":
(PID.TID 0000.0001)           User time: 21.150000000000002
(PID.TID 0000.0001)         System time: 1.2599999999999909
(PID.TID 0000.0001)     Wall clock time: 24.234374046325684
(PID.TID 0000.0001)          No. starts: 1
(PID.TID 0000.0001)           No. stops: 1
(PID.TID 0000.0001)   Seconds in section "MAIN LOOP           [THE_MAIN_LOOP]":
(PID.TID 0000.0001)           User time: 2130.5900000000001
(PID.TID 0000.0001)         System time: 94.550000000000011
(PID.TID 0000.0001)     Wall clock time: 2959.9321548938751
(PID.TID 0000.0001)          No. starts: 1
(PID.TID 0000.0001)           No. stops: 1
(PID.TID 0000.0001)   Seconds in section "COST_AVERAGESFIELDS [MAIN_DO_LOOP]":
(PID.TID 0000.0001)           User time: 71.339999999989232
(PID.TID 0000.0001)         System time: 4.4799999999997908
(PID.TID 0000.0001)     Wall clock time: 80.104209899902344
(PID.TID 0000.0001)          No. starts: 13110
(PID.TID 0000.0001)           No. stops: 13110
(PID.TID 0000.0001)   Seconds in section "PROFILES_INLOOP    [MAIN_DO_LOOP]":
(PID.TID 0000.0001)           User time: 84.349999999986267
(PID.TID 0000.0001)         System time: 0.93000000000006366
(PID.TID 0000.0001)     Wall clock time: 85.539075136184692
(PID.TID 0000.0001)          No. starts: 13110
(PID.TID 0000.0001)           No. stops: 13110
(PID.TID 0000.0001)   Seconds in section "MAIN_DO_LOOP        [THE_MAIN_LOOP]":
(PID.TID 0000.0001)           User time: 1810.0299999996057
(PID.TID 0000.0001)         System time: 30.220000000000113
(PID.TID 0000.0001)     Wall clock time: 2294.5070230960846
(PID.TID 0000.0001)          No. starts: 13110
(PID.TID 0000.0001)           No. stops: 13110
(PID.TID 0000.0001)   Seconds in section "FORWARD_STEP        [MAIN_DO_LOOP]":
(PID.TID 0000.0001)           User time: 1809.9199999996051
(PID.TID 0000.0001)         System time: 30.180000000000121
(PID.TID 0000.0001)     Wall clock time: 2294.3824450969696
(PID.TID 0000.0001)          No. starts: 13110
(PID.TID 0000.0001)           No. stops: 13110
(PID.TID 0000.0001)   Seconds in section "UPDATE_R_STAR       [FORWARD_STEP]":
(PID.TID 0000.0001)           User time: 63.679999999961638
(PID.TID 0000.0001)         System time: 0.37000000000003297
(PID.TID 0000.0001)     Wall clock time: 64.016670227050781
(PID.TID 0000.0001)          No. starts: 26220
(PID.TID 0000.0001)           No. stops: 26220
(PID.TID 0000.0001)   Seconds in section "LOAD_FIELDS_DRIVER  [FORWARD_STEP]":
(PID.TID 0000.0001)           User time: 33.7600000000009
(PID.TID 0000.0001)         System time: 8.8599999999996726
(PID.TID 0000.0001)     Wall clock time: 347.28718280792236
(PID.TID 0000.0001)          No. starts: 13110
(PID.TID 0000.0001)           No. stops: 13110
(PID.TID 0000.0001)   Seconds in section "EXF_GETFORCING     [LOAD_FLDS_DRIVER]":
(PID.TID 0000.0001)           User time: 33.370000000001482
(PID.TID 0000.0001)         System time: 8.7899999999996794
(PID.TID 0000.0001)     Wall clock time: 346.82953500747681
(PID.TID 0000.0001)          No. starts: 13110
(PID.TID 0000.0001)           No. stops: 13110
(PID.TID 0000.0001)   Seconds in section "EXTERNAL_FLDS_LOAD [LOAD_FLDS_DRIVER]":
(PID.TID 0000.0001)           User time: 9.99999999999090505E-3
(PID.TID 0000.0001)         System time: 1.00000000000193268E-2
(PID.TID 0000.0001)     Wall clock time: 5.970001220703125E-2
(PID.TID 0000.0001)          No. starts: 13110
(PID.TID 0000.0001)           No. stops: 13110
(PID.TID 0000.0001)   Seconds in section "CTRL_MAP_FORCING  [FORWARD_STEP]":
(PID.TID 0000.0001)           User time: 4.5800000000008367
(PID.TID 0000.0001)         System time: 0.53000000000005798
(PID.TID 0000.0001)     Wall clock time: 4.9559421539306641
(PID.TID 0000.0001)          No. starts: 13110
(PID.TID 0000.0001)           No. stops: 13110
(PID.TID 0000.0001)   Seconds in section "DO_ATMOSPHERIC_PHYS [FORWARD_STEP]":
(PID.TID 0000.0001)           User time: 3.2300000000002456
(PID.TID 0000.0001)         System time: 0.32000000000010687
(PID.TID 0000.0001)     Wall clock time: 3.478877067565918
(PID.TID 0000.0001)          No. starts: 13110
(PID.TID 0000.0001)           No. stops: 13110
(PID.TID 0000.0001)   Seconds in section "DO_OCEANIC_PHYS     [FORWARD_STEP]":
(PID.TID 0000.0001)           User time: 651.27999999976487
(PID.TID 0000.0001)         System time: 1.0600000000000307
(PID.TID 0000.0001)     Wall clock time: 653.00402474403381
(PID.TID 0000.0001)          No. starts: 13110
(PID.TID 0000.0001)           No. stops: 13110
(PID.TID 0000.0001)   Seconds in section "SEAICE_MODEL    [DO_OCEANIC_PHYS]":
(PID.TID 0000.0001)           User time: 84.989999999979545
(PID.TID 0000.0001)         System time: 0.55000000000003979
(PID.TID 0000.0001)     Wall clock time: 86.507394552230835
(PID.TID 0000.0001)          No. starts: 13110
(PID.TID 0000.0001)           No. stops: 13110
(PID.TID 0000.0001)   Seconds in section "SEAICE_DYNSOLVER   [SEAICE_MODEL]":
(PID.TID 0000.0001)           User time: 77.469999999981837
(PID.TID 0000.0001)         System time: 0.39000000000010004
(PID.TID 0000.0001)     Wall clock time: 78.813279628753662
(PID.TID 0000.0001)          No. starts: 13110
(PID.TID 0000.0001)           No. stops: 13110
(PID.TID 0000.0001)   Seconds in section "GGL90_CALC [DO_OCEANIC_PHYS]":
(PID.TID 0000.0001)           User time: 191.52999999996086
(PID.TID 0000.0001)         System time: 0.20000000000001705
(PID.TID 0000.0001)     Wall clock time: 193.00975847244263
(PID.TID 0000.0001)          No. starts: 13110
(PID.TID 0000.0001)           No. stops: 13110
(PID.TID 0000.0001)   Seconds in section "DYNAMICS            [FORWARD_STEP]":
(PID.TID 0000.0001)           User time: 218.49999999999727
(PID.TID 0000.0001)         System time: 0.12000000000006139
(PID.TID 0000.0001)     Wall clock time: 219.13482427597046
(PID.TID 0000.0001)          No. starts: 13110
(PID.TID 0000.0001)           No. stops: 13110
(PID.TID 0000.0001)   Seconds in section "UPDATE_CG2D         [FORWARD_STEP]":
(PID.TID 0000.0001)           User time: 33.380000000001928
(PID.TID 0000.0001)         System time: 0.15999999999999659
(PID.TID 0000.0001)     Wall clock time: 33.920374155044556
(PID.TID 0000.0001)          No. starts: 13110
(PID.TID 0000.0001)           No. stops: 13110
(PID.TID 0000.0001)   Seconds in section "SOLVE_FOR_PRESSURE  [FORWARD_STEP]":
(PID.TID 0000.0001)           User time: 123.05999999995379
(PID.TID 0000.0001)         System time: 7.99999999999556621E-2
(PID.TID 0000.0001)     Wall clock time: 122.97253036499023
(PID.TID 0000.0001)          No. starts: 13110
(PID.TID 0000.0001)           No. stops: 13110
(PID.TID 0000.0001)   Seconds in section "MOM_CORRECTION_STEP [FORWARD_STEP]":
(PID.TID 0000.0001)           User time: 21.400000000004866
(PID.TID 0000.0001)         System time: 7.00000000000216005E-2
(PID.TID 0000.0001)     Wall clock time: 21.167830467224121
(PID.TID 0000.0001)          No. starts: 13110
(PID.TID 0000.0001)           No. stops: 13110
(PID.TID 0000.0001)   Seconds in section "INTEGR_CONTINUITY   [FORWARD_STEP]":
(PID.TID 0000.0001)           User time: 15.900000000002819
(PID.TID 0000.0001)         System time: 7.00000000000216005E-2
(PID.TID 0000.0001)     Wall clock time: 16.365731239318848
(PID.TID 0000.0001)          No. starts: 13110
(PID.TID 0000.0001)           No. stops: 13110
(PID.TID 0000.0001)   Seconds in section "CALC_R_STAR         [FORWARD_STEP]":
(PID.TID 0000.0001)           User time: 1.9599999999993543
(PID.TID 0000.0001)         System time: 4.99999999999545253E-2
(PID.TID 0000.0001)     Wall clock time: 1.9903509616851807
(PID.TID 0000.0001)          No. starts: 13110
(PID.TID 0000.0001)           No. stops: 13110
(PID.TID 0000.0001)   Seconds in section "BLOCKING_EXCHANGES  [FORWARD_STEP]":
(PID.TID 0000.0001)           User time: 48.289999999985639
(PID.TID 0000.0001)         System time: 0.14000000000001478
(PID.TID 0000.0001)     Wall clock time: 47.830740451812744
(PID.TID 0000.0001)          No. starts: 26220
(PID.TID 0000.0001)           No. stops: 26220
(PID.TID 0000.0001)   Seconds in section "THERMODYNAMICS      [FORWARD_STEP]":
(PID.TID 0000.0001)           User time: 444.2300000000746
(PID.TID 0000.0001)         System time: 7.99999999999840838E-2
(PID.TID 0000.0001)     Wall clock time: 444.99860286712646
(PID.TID 0000.0001)          No. starts: 13110
(PID.TID 0000.0001)           No. stops: 13110
(PID.TID 0000.0001)   Seconds in section "TRC_CORRECTION_STEP [FORWARD_STEP]":
(PID.TID 0000.0001)           User time: 7.99999999999272404E-2
(PID.TID 0000.0001)         System time: 0.
(PID.TID 0000.0001)     Wall clock time: 6.11371994018554687E-2
(PID.TID 0000.0001)          No. starts: 13110
(PID.TID 0000.0001)           No. stops: 13110
(PID.TID 0000.0001)   Seconds in section "DO_STATEVARS_TAVE   [FORWARD_STEP]":
(PID.TID 0000.0001)           User time: 9.99999999999090505E-2
(PID.TID 0000.0001)         System time: 0.
(PID.TID 0000.0001)     Wall clock time: 6.166839599609375E-2
(PID.TID 0000.0001)          No. starts: 13110
(PID.TID 0000.0001)           No. stops: 13110
(PID.TID 0000.0001)   Seconds in section "MONITOR             [FORWARD_STEP]":
(PID.TID 0000.0001)           User time: 7.99999999999272404E-2
(PID.TID 0000.0001)         System time: 0.
(PID.TID 0000.0001)     Wall clock time: 0.1264805793762207
(PID.TID 0000.0001)          No. starts: 13110
(PID.TID 0000.0001)           No. stops: 13110
(PID.TID 0000.0001)   Seconds in section "COST_TILE           [FORWARD_STEP]":
(PID.TID 0000.0001)           User time: 2.99999999999727152E-2
(PID.TID 0000.0001)         System time: 0.
(PID.TID 0000.0001)     Wall clock time: 6.05180263519287109E-2
(PID.TID 0000.0001)          No. starts: 13110
(PID.TID 0000.0001)           No. stops: 13110
(PID.TID 0000.0001)   Seconds in section "DO_THE_MODEL_IO     [FORWARD_STEP]":
(PID.TID 0000.0001)           User time: 49.479999999999563
(PID.TID 0000.0001)         System time: 17.530000000000001
(PID.TID 0000.0001)     Wall clock time: 215.49040532112122
(PID.TID 0000.0001)          No. starts: 13110
(PID.TID 0000.0001)           No. stops: 13110
(PID.TID 0000.0001)   Seconds in section "DO_WRITE_PICKUP     [FORWARD_STEP]":
(PID.TID 0000.0001)           User time: 1.3300000000001546
(PID.TID 0000.0001)         System time: 0.50000000000002842
(PID.TID 0000.0001)     Wall clock time: 1.8146073818206787
(PID.TID 0000.0001)          No. starts: 13110
(PID.TID 0000.0001)           No. stops: 13110
(PID.TID 0000.0001)   Seconds in section "COST_AVERAGESFIELDS [THE_MAIN_LOOP]":
(PID.TID 0000.0001)           User time: 7.99999999999272404E-2
(PID.TID 0000.0001)         System time: 3.00000000000011369E-2
(PID.TID 0000.0001)     Wall clock time: 0.13232302665710449
(PID.TID 0000.0001)          No. starts: 1
(PID.TID 0000.0001)           No. stops: 1
(PID.TID 0000.0001)   Seconds in section "PROFILES_INLOOP    [THE_MAIN_LOOP]":
(PID.TID 0000.0001)           User time: 9.99999999999090505E-3
(PID.TID 0000.0001)         System time: 0.
(PID.TID 0000.0001)     Wall clock time: 6.97302818298339844E-3
(PID.TID 0000.0001)          No. starts: 1
(PID.TID 0000.0001)           No. stops: 1
(PID.TID 0000.0001)   Seconds in section "ECCO_COST_DRIVER   [THE_MAIN_LOOP]":
(PID.TID 0000.0001)           User time: 111.61999999999989
(PID.TID 0000.0001)         System time: 56.550000000000011
(PID.TID 0000.0001)     Wall clock time: 442.86928606033325
(PID.TID 0000.0001)          No. starts: 1
(PID.TID 0000.0001)           No. stops: 1
(PID.TID 0000.0001)   Seconds in section "COST_GENCOST_ALL    [ECCO SPIN-DOWN]":
(PID.TID 0000.0001)           User time: 111.40999999999985
(PID.TID 0000.0001)         System time: 56.389999999999986
(PID.TID 0000.0001)     Wall clock time: 441.82757306098938
(PID.TID 0000.0001)          No. starts: 1
(PID.TID 0000.0001)           No. stops: 1
(PID.TID 0000.0001)   Seconds in section "CTRL_COST_DRIVER [ECCO SPIN-DOWN]":
(PID.TID 0000.0001)           User time: 0.21000000000003638
(PID.TID 0000.0001)         System time: 0.16000000000002501
(PID.TID 0000.0001)     Wall clock time: 1.0334830284118652
(PID.TID 0000.0001)          No. starts: 1
(PID.TID 0000.0001)           No. stops: 1
(PID.TID 0000.0001)   Seconds in section "COST_FINAL         [ADJOINT SPIN-DOWN]":
(PID.TID 0000.0001)           User time: 0.
(PID.TID 0000.0001)         System time: 0.
(PID.TID 0000.0001)     Wall clock time: 1.04868412017822266E-2
(PID.TID 0000.0001)          No. starts: 1
(PID.TID 0000.0001)           No. stops: 1
(PID.TID 0000.0001) // ======================================================
(PID.TID 0000.0001) // Tile <-> Tile communication statistics
(PID.TID 0000.0001) // ======================================================
(PID.TID 0000.0001) // o Tile number: 000001
(PID.TID 0000.0001) //         No. X exchanges =              0
(PID.TID 0000.0001) //            Max. X spins =              0
(PID.TID 0000.0001) //            Min. X spins =     1000000000
(PID.TID 0000.0001) //          Total. X spins =              0
(PID.TID 0000.0001) //            Avg. X spins =       0.00E+00
(PID.TID 0000.0001) //         No. Y exchanges =              0
(PID.TID 0000.0001) //            Max. Y spins =              0
(PID.TID 0000.0001) //            Min. Y spins =     1000000000
(PID.TID 0000.0001) //          Total. Y spins =              0
(PID.TID 0000.0001) //            Avg. Y spins =       0.00E+00
(PID.TID 0000.0001) // o Thread number: 000001
(PID.TID 0000.0001) //            No. barriers =       67681234
(PID.TID 0000.0001) //      Max. barrier spins =              1
(PID.TID 0000.0001) //      Min. barrier spins =              1
(PID.TID 0000.0001) //     Total barrier spins =       67681234
(PID.TID 0000.0001) //      Avg. barrier spins =       1.00E+00
PROGRAM MAIN: Execution ended Normally
