(PID.TID 0000.0001) 
(PID.TID 0000.0001) // ======================================================
(PID.TID 0000.0001) //                      MITgcm UV
(PID.TID 0000.0001) //                      =========
(PID.TID 0000.0001) // ======================================================
(PID.TID 0000.0001) // execution environment starting up...
(PID.TID 0000.0001) 
(PID.TID 0000.0001) // MITgcmUV version:  checkpoint66g
(PID.TID 0000.0001) // Build user:        dannes1
(PID.TID 0000.0001) // Build host:        eslogin003
(PID.TID 0000.0001) // Build date:        Tue Dec 15 09:46:42 GMT 2020
(PID.TID 0000.0001) 
(PID.TID 0000.0001) // =======================================================
(PID.TID 0000.0001) // Execution Environment parameter file "eedata"
(PID.TID 0000.0001) // =======================================================
(PID.TID 0000.0001) ># Example "eedata" file
(PID.TID 0000.0001) ># Lines beginning "#" are comments
(PID.TID 0000.0001) ># nTx - No. threads per process in X
(PID.TID 0000.0001) ># nTy - No. threads per process in Y
(PID.TID 0000.0001) > &EEPARMS
(PID.TID 0000.0001) > debugMode=.FALSE.,
(PID.TID 0000.0001) > useCubedSphereExchange=.TRUE.,
(PID.TID 0000.0001) > nTx=1,
(PID.TID 0000.0001) > nTy=1,
(PID.TID 0000.0001) > /
(PID.TID 0000.0001) ># Note: Some systems use & as the
(PID.TID 0000.0001) ># namelist terminator. Other systems
(PID.TID 0000.0001) ># use a / character (as shown here).
(PID.TID 0000.0001) 
(PID.TID 0000.0001) // =======================================================
(PID.TID 0000.0001) // Computational Grid Specification ( see files "SIZE.h" )
(PID.TID 0000.0001) //                                  ( and "eedata"       )
(PID.TID 0000.0001) // =======================================================
(PID.TID 0000.0001)      nPx =   96 ; /* No. processes in X */
(PID.TID 0000.0001)      nPy =    1 ; /* No. processes in Y */
(PID.TID 0000.0001)      nSx =    1 ; /* No. tiles in X per process */
(PID.TID 0000.0001)      nSy =    1 ; /* No. tiles in Y per process */
(PID.TID 0000.0001)      sNx =   30 ; /* Tile size in X */
(PID.TID 0000.0001)      sNy =   30 ; /* Tile size in Y */
(PID.TID 0000.0001)      OLx =    4 ; /* Tile overlap distance in X */
(PID.TID 0000.0001)      OLy =    4 ; /* Tile overlap distance in Y */
(PID.TID 0000.0001)      nTx =    1 ; /* No. threads in X per process */
(PID.TID 0000.0001)      nTy =    1 ; /* No. threads in Y per process */
(PID.TID 0000.0001)       Nr =   50 ; /* No. levels in the vertical   */
(PID.TID 0000.0001)       Nx = 2880 ; /* Total domain size in X ( = nPx*nSx*sNx ) */
(PID.TID 0000.0001)       Ny =   30 ; /* Total domain size in Y ( = nPy*nSy*sNy ) */
(PID.TID 0000.0001)   nTiles =    1 ; /* Total no. tiles per process ( = nSx*nSy ) */
(PID.TID 0000.0001)   nProcs =   96 ; /* Total no. processes ( = nPx*nPy ) */
(PID.TID 0000.0001) nThreads =    1 ; /* Total no. threads per process ( = nTx*nTy ) */
(PID.TID 0000.0001) usingMPI =    T ; /* Flag used to control whether MPI is in use */
(PID.TID 0000.0001)                   /*  note: To execute a program with MPI calls */
(PID.TID 0000.0001)                   /*  it must be launched appropriately e.g     */
(PID.TID 0000.0001)                   /*  "mpirun -np 64 ......"                    */
(PID.TID 0000.0001) useCoupler=    F ;/* Flag used to control communications with   */
(PID.TID 0000.0001)                   /*  other model components, through a coupler */
(PID.TID 0000.0001) debugMode =    F ; /* print debug msg. (sequence of S/R calls)  */
(PID.TID 0000.0001) printMapIncludesZeros=    F ; /* print zeros in Std.Output maps */
(PID.TID 0000.0001) maxLengthPrt1D=   65 /* maxLength of 1D array printed to StdOut */
(PID.TID 0000.0001) 
(PID.TID 0000.0001) ======= Starting MPI parallel Run =========
(PID.TID 0000.0001)  My Processor Name (len:  8 ) = nid02330
(PID.TID 0000.0001)  Located at (  0,  0) on processor grid (0: 95,0:  0)
(PID.TID 0000.0001)  Origin at  (     1,     1) on global grid (1:  2880,1:    30)
(PID.TID 0000.0001)  North neighbor = processor 0000
(PID.TID 0000.0001)  South neighbor = processor 0000
(PID.TID 0000.0001)   East neighbor = processor 0001
(PID.TID 0000.0001)   West neighbor = processor 0095
(PID.TID 0000.0001) // ======================================================
(PID.TID 0000.0001) // Mapping of tiles to threads
(PID.TID 0000.0001) // ======================================================
(PID.TID 0000.0001) // -o- Thread   1, tiles (   1:   1,   1:   1)
(PID.TID 0000.0001) 
(PID.TID 0000.0001) W2_READPARMS: opening data.exch2
(PID.TID 0000.0001)  OPEN_COPY_DATA_FILE: opening file data.exch2
(PID.TID 0000.0001) // =======================================================
(PID.TID 0000.0001) // Parameter file "data.exch2"
(PID.TID 0000.0001) // =======================================================
(PID.TID 0000.0001) ># EXCH2 Package: Wrapper-2 User Choice
(PID.TID 0000.0001) >#--------------------
(PID.TID 0000.0001) >#  preDefTopol   :: pre-defined Topology selector:
(PID.TID 0000.0001) >#                :: = 0 : topology defined from processing "data.exch2";
(PID.TID 0000.0001) >#                :: = 1 : simple, single facet topology;
(PID.TID 0000.0001) >#                :: = 2 : customized topology (w2_set_myown_facets)
(PID.TID 0000.0001) >#                :: = 3 : 6-facet Cube (3 face-dims: nRed, nGreen, nBlue).
(PID.TID 0000.0001) >#  dimsFacets    :: facet pair of dimensions (n1x,n1y, n2x,n2y ...)
(PID.TID 0000.0001) >#  facetEdgeLink :: Face-Edge connectivity map:
(PID.TID 0000.0001) >#    facetEdgeLink(i,j)=XX.1 : face(j)-edge(i) (i=1,2,3,4 <==> N,S,E,W)
(PID.TID 0000.0001) >#    is connected to Northern edge of face "XX" ; similarly,
(PID.TID 0000.0001) >#    = XX.2 : to Southern.E, XX.3 = Eastern.E, XX.4 = Western.E of face "XX"
(PID.TID 0000.0001) >#  blankList     :: List of "blank" tiles
(PID.TID 0000.0001) >#  W2_mapIO      :: global map IO selector (-1 = old type ; 0 = 1 long line in X
(PID.TID 0000.0001) >#                :: 1 = compact, mostly in Y dir)
(PID.TID 0000.0001) >#  W2_printMsg   :: option for information messages printing
(PID.TID 0000.0001) >#                :: <0 : write to log file ; =0 : minimum print ;
(PID.TID 0000.0001) >#                :: =1 : no duplicated print ; =2 : all processes do print
(PID.TID 0000.0001) >#--------------------
(PID.TID 0000.0001) > &W2_EXCH2_PARM01
(PID.TID 0000.0001) >  W2_printMsg= 0,
(PID.TID 0000.0001) >  W2_mapIO   = 1,
(PID.TID 0000.0001) >#
(PID.TID 0000.0001) >  preDefTopol=0,
(PID.TID 0000.0001) >#-- 5 facets llc_120 topology (drop facet 6 and its connection):
(PID.TID 0000.0001) >  dimsFacets(1:10) = 90, 270, 90, 270, 90, 90, 270, 90, 270, 90,
(PID.TID 0000.0001) >  facetEdgeLink(1:4,1)= 3.4, 0. , 2.4, 5.1,
(PID.TID 0000.0001) >  facetEdgeLink(1:4,2)= 3.2, 0. , 4.2, 1.3,
(PID.TID 0000.0001) >  facetEdgeLink(1:4,3)= 5.4, 2.1, 4.4, 1.1,
(PID.TID 0000.0001) >  facetEdgeLink(1:4,4)= 5.2, 2.3, 0. , 3.3,
(PID.TID 0000.0001) >  facetEdgeLink(1:4,5)= 1.4, 4.1, 0. , 3.1,
(PID.TID 0000.0001) >#-- full 6 facets llc_120 topology (equivalent to default preDefTopol=3):
(PID.TID 0000.0001) ># dimsFacets(1:12) = 120, 360, 120, 360, 120, 120, 360, 120, 360, 120, 120, 120,
(PID.TID 0000.0001) ># facetEdgeLink(1:4,1)= 3.4, 6.1, 2.4, 5.1,
(PID.TID 0000.0001) ># facetEdgeLink(1:4,2)= 3.2, 6.3, 4.2, 1.3,
(PID.TID 0000.0001) ># facetEdgeLink(1:4,3)= 5.4, 2.1, 4.4, 1.1,
(PID.TID 0000.0001) ># facetEdgeLink(1:4,4)= 5.2, 2.3, 6.2, 3.3,
(PID.TID 0000.0001) ># facetEdgeLink(1:4,5)= 1.4, 4.1, 6.4, 3.1,
(PID.TID 0000.0001) ># facetEdgeLink(1:4,6)= 1.2, 4.3, 2.2, 5.3,
(PID.TID 0000.0001) >#
(PID.TID 0000.0001) >#90x30   nprocs = 36
(PID.TID 0000.0001) >#  blankList(1:3)=1,10,11,
(PID.TID 0000.0001) >#30x90
(PID.TID 0000.0001) >#
(PID.TID 0000.0001) >#45x30   nprocs = 72
(PID.TID 0000.0001) >#  blankList(1:6)=1,2,19,20,21,22
(PID.TID 0000.0001) >#old:  blankList(1:8)=1,2,19,20,21,22,33,72
(PID.TID 0000.0001) >#30x45   nprocs = 68
(PID.TID 0000.0001) >#  blankList(1:10)=2,3,19,20,21,35,51,60,69,78
(PID.TID 0000.0001) >#45x45   nprocs = 48
(PID.TID 0000.0001) >#  blankList(1:4)=2,13,14,23
(PID.TID 0000.0001) >#old:  blankList(1:3)=2,13,14
(PID.TID 0000.0001) >#30x30   nprocs = 96
(PID.TID 0000.0001) >  blankList(1:21)=1,2,3,5,6,28,29,30,31,32,33,49,50,52,53,72,81,90,99,108,117
(PID.TID 0000.0001) >#old:   blankList(1:18)=1,2,3,28,29,30,31,32,33,49,50,53,72,81,90,99,108,117
(PID.TID 0000.0001) >#15x30   nprocs = 192
(PID.TID 0000.0001) >#  blankList(1:42)=1,2,3,4,5,6,9,10,11,12,55,56,57,58,59,60,61,62,63,64,65,66,
(PID.TID 0000.0001) >#            97,98,99,100,103,104,105,106,143,144,
(PID.TID 0000.0001) >#            161,162,179,180,197,198,215,216,233,234
(PID.TID 0000.0001) >#15x15   nprocs = 360
(PID.TID 0000.0001) >#  blankList(1:108)=1,2,3,4,5,6,7,8,9,10,11,12,14,15,16,17,18,21,22,23,24,
(PID.TID 0000.0001) >#  65,71,75,76,90,95,96,101,102,109,110,111,112,113,114,115,116,117,118,119,
(PID.TID 0000.0001) >#  120,121,122,123,124,125,126,127,128,129,130,131,132,
(PID.TID 0000.0001) >#  188,189,190,193,194,195,196,199,
(PID.TID 0000.0001) >#  200,201,202,203,205,206,207,208,209,211,212,213,214,215,216,242,247,253,
(PID.TID 0000.0001) >#  267,268,269,270,287,288,305,306,323,324,341,342,359,360,362,376,377,378,
(PID.TID 0000.0001) >#  380,381,382,395,396,400,412,413,414,430,
(PID.TID 0000.0001) >#
(PID.TID 0000.0001) > /
(PID.TID 0000.0001) 
(PID.TID 0000.0001) W2_READPARMS: finished reading data.exch2
(PID.TID 0000.0001) W2_useE2ioLayOut=    T ;/* T: use Exch2 glob IO map; F: use model default */
(PID.TID 0000.0001) W2_mapIO        =   1 ; /* select option for Exch2 global-IO map */
(PID.TID 0000.0001) W2_printMsg     =   0 ; /* select option for printing information */
(PID.TID 0000.0001) ===== Start setting W2 TOPOLOGY:
(PID.TID 0000.0001) W2_E2SETUP: number of Active Tiles =      96
(PID.TID 0000.0001) W2_E2SETUP: number of Blank Tiles  =      21
(PID.TID 0000.0001) W2_E2SETUP: Total number of Tiles  =     117
(PID.TID 0000.0001) W2_SET_GEN_FACETS: preDefTopol=  0 selected
(PID.TID 0000.0001) W2_SET_GEN_FACETS: Number of facets =  5 (inferred from "dimsFacets")
(PID.TID 0000.0001) W2_E2SETUP: Total number of Facets =       5
(PID.TID 0000.0001) W2_SET_F2F_INDEX: index matrix for connected Facet-Edges:
(PID.TID 0000.0001) ** WARNING ** S.Edge of facet #  1 disconnected (facet_link=  0.00)
(PID.TID 0000.0001) ** WARNING ** S.Edge of facet #  2 disconnected (facet_link=  0.00)
(PID.TID 0000.0001) ** WARNING ** E.Edge of facet #  4 disconnected (facet_link=  0.00)
(PID.TID 0000.0001) ** WARNING ** E.Edge of facet #  5 disconnected (facet_link=  0.00)
(PID.TID 0000.0001) W2_SET_MAP_TILES: tile mapping within facet and global Map:
(PID.TID 0000.0001)  W2_mapIO =   90 (=    3*sNx)
(PID.TID 0000.0001)  Global Map (IO): X-size=      90 , Y-size=    1170
(PID.TID 0000.0001) W2_SET_MAP_TILES: tile offset within facet and global Map:
- facet  1 : X-size=    90 , Y-size=   270 ;   27 tiles (Tx,Ty=   3,   9)
- facet  2 : X-size=    90 , Y-size=   270 ;   27 tiles (Tx,Ty=   3,   9)
- facet  3 : X-size=    90 , Y-size=    90 ;    9 tiles (Tx,Ty=   3,   3)
- facet  4 : X-size=   270 , Y-size=    90 ;   27 tiles (Tx,Ty=   9,   3)
- facet  5 : X-size=   270 , Y-size=    90 ;   27 tiles (Tx,Ty=   9,   3)
(PID.TID 0000.0001) W2_SET_MAP_CUMSUM: setting Facet Matrix for CUMUL-SUM
(PID.TID 0000.0001) W2_SET_MAP_CUMSUM: set    4 /   5 active facets (pass,type=   1, 1)
 Facet Matrix for CUMUL-SUM (nFacets=   5, nActive=   5 ):
- facet  1 :  0  0 ,  0  0 ,  0  0 ,  0  0 ,  0  0 ,
- facet  2 :  1  0 ,  0  0 ,  0  0 ,  0  0 ,  0  0 ,
- facet  3 :  1  0 ,  0  1 ,  0  0 ,  0  0 ,  0  0 ,
- facet  4 :  1  0 ,  0  1 ,  1  0 ,  0  0 ,  0  0 ,
- facet  5 :  1  0 ,  0  1 ,  1  0 ,  0  1 ,  0  0 ,
 missing-corner Tile for CUMUL-SUM (nTiles=   117 ): W2_tMC1=    25 , W2_tMC2=     0
(PID.TID 0000.0001) W2_SET_MAP_CUMSUM: done (skip Tile Matrix setting)
(PID.TID 0000.0001) W2_SET_TILE2TILES: tile neighbours and index connection:
(PID.TID 0000.0001) current Max.Nb.Neighbours (e.g., on tile    7 ) =  4
(PID.TID 0000.0001) ===== W2 TILE TOPOLOGY =====
(PID.TID 0000.0001)  TILE:     4 (bi,bj=   1   1 ), Nb of Neighbours =  2
(PID.TID 0000.0001)     NEIGHBOUR  1 = TILE    7 (n=  2) Comm = MSG (PROC=    2)
(PID.TID 0000.0001)     NEIGHBOUR  2 = TILE  116 (n=  1) Comm = MSG (PROC=   96)
(PID.TID 0000.0001) =====       setting W2 TOPOLOGY: Done
(PID.TID 0000.0001) 
(PID.TID 0000.0001)  INI_PARMS: opening model parameter file "data"
(PID.TID 0000.0001)  OPEN_COPY_DATA_FILE: opening file data
(PID.TID 0000.0001) // =======================================================
(PID.TID 0000.0001) // Parameter file "data"
(PID.TID 0000.0001) // =======================================================
(PID.TID 0000.0001) ># ====================
(PID.TID 0000.0001) ># | Model parameters |
(PID.TID 0000.0001) ># ====================
(PID.TID 0000.0001) >#
(PID.TID 0000.0001) ># Continuous equation parameters
(PID.TID 0000.0001) > &PARM01
(PID.TID 0000.0001) > tRef               = 3*23.,3*22.,21.,2*20.,19.,2*18.,17.,2*16.,15.,14.,13.,
(PID.TID 0000.0001) >                      12.,11.,2*9.,8.,7.,2*6.,2*5.,3*4.,3*3.,4*2.,12*1.,
(PID.TID 0000.0001) > sRef               = 50*34.5,
(PID.TID 0000.0001) > no_slip_sides  = .TRUE.,
(PID.TID 0000.0001) > no_slip_bottom = .TRUE.,
(PID.TID 0000.0001) >#
(PID.TID 0000.0001) > viscAr=0.5E-4,
(PID.TID 0000.0001) >#
(PID.TID 0000.0001) > viscAh=1.E0,
(PID.TID 0000.0001) > viscAhGrid=2.E-2,
(PID.TID 0000.0001) ># viscAh=2.0e4,
(PID.TID 0000.0001) >#
(PID.TID 0000.0001) > diffKhT=1.E1,
(PID.TID 0000.0001) > diffKrT=1.E-5,
(PID.TID 0000.0001) > diffKhS=1.E1,
(PID.TID 0000.0001) > diffKrS=1.E-5,
(PID.TID 0000.0001) >#
(PID.TID 0000.0001) >### diffKrBL79surf=0.1E-4,
(PID.TID 0000.0001) >### diffKrBL79deep=1.0E-4,
(PID.TID 0000.0001) > bottomDragQuadratic = 0.001,
(PID.TID 0000.0001) >#when using ggl90
(PID.TID 0000.0001) > ivdc_kappa=10.,
(PID.TID 0000.0001) > implicitDiffusion=.TRUE.,
(PID.TID 0000.0001) > implicitViscosity=.TRUE.,
(PID.TID 0000.0001) > useRealFreshWaterFlux=.TRUE.,
(PID.TID 0000.0001) ># balanceThetaClimRelax=.TRUE.,
(PID.TID 0000.0001) > balanceSaltClimRelax=.TRUE.,
(PID.TID 0000.0001) ># balanceEmPmR=.TRUE.,
(PID.TID 0000.0001) ># balanceQnet=.TRUE.,
(PID.TID 0000.0001) > allowFreezing=.FALSE.,
(PID.TID 0000.0001) >### hFacInf=0.2,
(PID.TID 0000.0001) >### hFacSup=2.0,
(PID.TID 0000.0001) > hFacMin=.2,
(PID.TID 0000.0001) > hFacMinDr=5.,
(PID.TID 0000.0001) > select_rStar=2,
(PID.TID 0000.0001) > nonlinFreeSurf=4,
(PID.TID 0000.0001) > gravity=9.81,
(PID.TID 0000.0001) > rhonil=1029.,
(PID.TID 0000.0001) > rhoConst=1029.,
(PID.TID 0000.0001) > rhoConstFresh=1000.,
(PID.TID 0000.0001) > convertFW2Salt=-1.,
(PID.TID 0000.0001) > eosType='JMD95Z',
(PID.TID 0000.0001) > implicitFreeSurface=.TRUE.,
(PID.TID 0000.0001) > exactConserv=.TRUE.,
(PID.TID 0000.0001) > useSingleCpuIO=.TRUE.,
(PID.TID 0000.0001) > tempAdvScheme=30,
(PID.TID 0000.0001) > saltAdvScheme=30,
(PID.TID 0000.0001) > tempVertAdvScheme=3,
(PID.TID 0000.0001) > saltVertAdvScheme=3,
(PID.TID 0000.0001) > tempImplVertAdv=.TRUE.,
(PID.TID 0000.0001) > saltImplVertAdv=.TRUE.,
(PID.TID 0000.0001) > staggerTimeStep=.TRUE.,
(PID.TID 0000.0001) > vectorInvariantMomentum=.TRUE.,
(PID.TID 0000.0001) >#when using the cd scheme:
(PID.TID 0000.0001) ># useCDscheme=.TRUE.,
(PID.TID 0000.0001) > useJamartWetPoints=.TRUE.,
(PID.TID 0000.0001) > readBinaryPrec=32,
(PID.TID 0000.0001) > writeBinaryPrec=32,
(PID.TID 0000.0001) > debugLevel=1,
(PID.TID 0000.0001) > /
(PID.TID 0000.0001) >
(PID.TID 0000.0001) ># Elliptic solver parameters
(PID.TID 0000.0001) > &PARM02
(PID.TID 0000.0001) > cg2dMaxIters=300,
(PID.TID 0000.0001) >#cg2dTargetResWunit=1.E-12,
(PID.TID 0000.0001) > /
(PID.TID 0000.0001) >
(PID.TID 0000.0001) ># Time stepping parameters
(PID.TID 0000.0001) > &PARM03
(PID.TID 0000.0001) > nIter0=1,
(PID.TID 0000.0001) >#2 lev2 for testing:
(PID.TID 0000.0001) >#nTimeSteps=8,
(PID.TID 0000.0001) >#3month
(PID.TID 0000.0001) >#nTimeSteps=2160,
(PID.TID 0000.0001) >#18month
(PID.TID 0000.0001) > nTimeSteps=13110,
(PID.TID 0000.0001) >#2yr
(PID.TID 0000.0001) >#nTimeSteps=17520,
(PID.TID 0000.0001) >#4-yr from 2014 to 2017, inclusive
(PID.TID 0000.0001) >#nTimeSteps=35051,
(PID.TID 0000.0001) >#20y:
(PID.TID 0000.0001) >#nTimeSteps=175295,
(PID.TID 0000.0001) >#22y:
(PID.TID 0000.0001) >#nTimeSteps=192839,
(PID.TID 0000.0001) >#24y:
(PID.TID 0000.0001) >#nTimeSteps=210359,
(PID.TID 0000.0001) >#26yr
(PID.TID 0000.0001) >#nTimeSteps=227903,
(PID.TID 0000.0001) >#60 years
(PID.TID 0000.0001) >#nTimeSteps=525985,
(PID.TID 0000.0001) >#
(PID.TID 0000.0001) > forcing_In_AB=.FALSE.,
(PID.TID 0000.0001) > momDissip_In_AB=.FALSE.,
(PID.TID 0000.0001) >#when using the cd scheme:
(PID.TID 0000.0001) ># epsAB_CD = 0.25,
(PID.TID 0000.0001) ># tauCD=172800.0,
(PID.TID 0000.0001) > deltaTmom   =3600.,
(PID.TID 0000.0001) > deltaTtracer=3600.,
(PID.TID 0000.0001) > deltaTfreesurf=3600.,
(PID.TID 0000.0001) > deltaTClock =3600.,
(PID.TID 0000.0001) >#when using ab2:
(PID.TID 0000.0001) ># abEps = 0.1,
(PID.TID 0000.0001) >#when using ab3:
(PID.TID 0000.0001) > doAB_onGtGs=.FALSE.,
(PID.TID 0000.0001) > alph_AB=0.5,
(PID.TID 0000.0001) > beta_AB=0.281105,
(PID.TID 0000.0001) >#
(PID.TID 0000.0001) > pChkptFreq  =31536000.0,
(PID.TID 0000.0001) > chkptFreq   =31536000.0,
(PID.TID 0000.0001) ># taveFreq    =31536000.0,
(PID.TID 0000.0001) ># dumpFreq    =31536000.0,
(PID.TID 0000.0001) ># monitorFreq = 7200.0,
(PID.TID 0000.0001) > monitorFreq = 6307200.0,
(PID.TID 0000.0001) > dumpInitAndLast = .TRUE.,
(PID.TID 0000.0001) > adjDumpFreq = 31536000.0,
(PID.TID 0000.0001) >#adjDumpFreq = 604800.0,
(PID.TID 0000.0001) > adjMonitorFreq = 864000.0,
(PID.TID 0000.0001) > pickupStrictlyMatch=.FALSE.,
(PID.TID 0000.0001) > /
(PID.TID 0000.0001) >
(PID.TID 0000.0001) ># Gridding parameters
(PID.TID 0000.0001) > &PARM04
(PID.TID 0000.0001) > usingCurvilinearGrid=.TRUE.,
(PID.TID 0000.0001) > delR =
(PID.TID 0000.0001) >     10.00, 10.00, 10.00, 10.00, 10.00, 10.00, 10.00, 10.01,
(PID.TID 0000.0001) >     10.03, 10.11, 10.32, 10.80, 11.76, 13.42, 16.04, 19.82, 24.85,
(PID.TID 0000.0001) >     31.10, 38.42, 46.50, 55.00, 63.50, 71.58, 78.90, 85.15, 90.18,
(PID.TID 0000.0001) >     93.96, 96.58, 98.25, 99.25,100.01,101.33,104.56,111.33,122.83,
(PID.TID 0000.0001) >     139.09,158.94,180.83,203.55,226.50,249.50,272.50,295.50,318.50,
(PID.TID 0000.0001) >     341.50,364.50,387.50,410.50,433.50,456.50,
(PID.TID 0000.0001) > /
(PID.TID 0000.0001) >
(PID.TID 0000.0001) ># Input datasets
(PID.TID 0000.0001) > &PARM05
(PID.TID 0000.0001) > diffKrFile='total_diffkr_r009bit11.bin',
(PID.TID 0000.0001) > adTapeDir='tapes',
(PID.TID 0000.0001) >#bathyFile      ='bathy_eccollc_90x50.bin',
(PID.TID 0000.0001) > bathyFile      ='bathy_eccollc_90x50_min2pts.bin',
(PID.TID 0000.0001) > hydrogThetaFile='T_OWPv1_M_eccollc_90x50.bin',
(PID.TID 0000.0001) > hydrogSaltFile ='S_OWPv1_M_eccollc_90x50.bin',
(PID.TID 0000.0001) > viscA4Dfile    ='fenty_biharmonic_visc_v11.bin',
(PID.TID 0000.0001) > viscA4Zfile    ='fenty_biharmonic_visc_v11.bin',
(PID.TID 0000.0001) > geothermalFile='geothermalFlux.bin',
(PID.TID 0000.0001) >#
(PID.TID 0000.0001) > /
(PID.TID 0000.0001) 
(PID.TID 0000.0001)  INI_PARMS ; starts to read PARM01
(PID.TID 0000.0001)  INI_PARMS ; read PARM01 : OK
(PID.TID 0000.0001)  INI_PARMS ; starts to read PARM02
(PID.TID 0000.0001)  INI_PARMS ; read PARM02 : OK
(PID.TID 0000.0001)  INI_PARMS ; starts to read PARM03
(PID.TID 0000.0001)  INI_PARMS ; read PARM03 : OK
(PID.TID 0000.0001)  INI_PARMS ; starts to read PARM04
(PID.TID 0000.0001)  INI_PARMS ; read PARM04 : OK
(PID.TID 0000.0001)  INI_PARMS ; starts to read PARM05
(PID.TID 0000.0001)  INI_PARMS ; read PARM05 : OK
(PID.TID 0000.0001)  INI_PARMS: finished reading file "data"
(PID.TID 0000.0001)  PACKAGES_BOOT: opening data.pkg
(PID.TID 0000.0001)  OPEN_COPY_DATA_FILE: opening file data.pkg
(PID.TID 0000.0001) // =======================================================
(PID.TID 0000.0001) // Parameter file "data.pkg"
(PID.TID 0000.0001) // =======================================================
(PID.TID 0000.0001) ># Packages
(PID.TID 0000.0001) > &PACKAGES
(PID.TID 0000.0001) > useEXF   = .TRUE.,
(PID.TID 0000.0001) >#useRBCS  = .TRUE.,
(PID.TID 0000.0001) > useGMRedi= .TRUE.,
(PID.TID 0000.0001) ># useKPP   = .TRUE.,
(PID.TID 0000.0001) > useSBO   = .TRUE.,
(PID.TID 0000.0001) >#useMNC   = .TRUE.,
(PID.TID 0000.0001) > useSeaice= .TRUE.,
(PID.TID 0000.0001) > useGGL90=.TRUE.,
(PID.TID 0000.0001) > useSALT_PlUME=.TRUE.,
(PID.TID 0000.0001) ># useDOWN_SLOPE=.TRUE.,
(PID.TID 0000.0001) > useDiagnostics=.TRUE.,
(PID.TID 0000.0001) > useECCO=.TRUE.,
(PID.TID 0000.0001) > useCTRL=.TRUE.,
(PID.TID 0000.0001) > useProfiles=.TRUE.,
(PID.TID 0000.0001) > useSMOOTH=.TRUE.,
(PID.TID 0000.0001) >#useGrdchk=.TRUE.,
(PID.TID 0000.0001) >#useLayers=.TRUE.,
(PID.TID 0000.0001) >#
(PID.TID 0000.0001) >#usePtracers=.TRUE.,
(PID.TID 0000.0001) >#useBBL=.TRUE.,
(PID.TID 0000.0001) > /
(PID.TID 0000.0001) 
(PID.TID 0000.0001)  PACKAGES_BOOT: finished reading data.pkg
(PID.TID 0000.0001)  PACKAGES_BOOT: On/Off package Summary
 --------  pkgs with a standard "usePKG" On/Off switch in "data.pkg":  --------
 pkg/ggl90                compiled   and   used ( useGGL90                 = T )
 pkg/gmredi               compiled   and   used ( useGMRedi                = T )
 pkg/cal                  compiled   and   used ( useCAL                   = T )
 pkg/exf                  compiled   and   used ( useEXF                   = T )
 pkg/autodiff             compiled   and   used ( useAUTODIFF              = T )
 pkg/grdchk               compiled but not used ( useGrdchk                = F )
 pkg/smooth               compiled   and   used ( useSMOOTH                = T )
 pkg/profiles             compiled   and   used ( usePROFILES              = T )
 pkg/ecco                 compiled   and   used ( useECCO                  = T )
 pkg/ctrl                 compiled   and   used ( useCTRL                  = T )
 pkg/sbo                  compiled   and   used ( useSBO                   = T )
 pkg/seaice               compiled   and   used ( useSEAICE                = T )
 pkg/salt_plume           compiled   and   used ( useSALT_PLUME            = T )
 pkg/diagnostics          compiled   and   used ( useDiagnostics           = T )
 -------- pkgs without standard "usePKG" On/Off switch in "data.pkg":  --------
 pkg/generic_advdiff      compiled   and   used ( useGAD                   = T )
 pkg/mom_common           compiled   and   used ( momStepping              = T )
 pkg/mom_vecinv           compiled   and   used ( +vectorInvariantMomentum = T )
 pkg/monitor              compiled   and   used ( monitorFreq > 0.         = T )
 pkg/timeave              compiled but not used ( taveFreq > 0.            = F )
 pkg/debug                compiled but not used ( debugMode                = F )
 pkg/exch2                compiled   and   used
 pkg/rw                   compiled   and   used
 pkg/mdsio                compiled   and   used
 pkg/autodiff             compiled   and   used
 pkg/cost                 compiled   and   used
(PID.TID 0000.0001)  PACKAGES_BOOT: End of package Summary
(PID.TID 0000.0001) 
(PID.TID 0000.0001) CAL_READPARMS: opening data.cal
(PID.TID 0000.0001)  OPEN_COPY_DATA_FILE: opening file data.cal
(PID.TID 0000.0001) // =======================================================
(PID.TID 0000.0001) // Parameter file "data.cal"
(PID.TID 0000.0001) // =======================================================
(PID.TID 0000.0001) >#
(PID.TID 0000.0001) ># *******************
(PID.TID 0000.0001) ># Calendar Parameters
(PID.TID 0000.0001) ># *******************
(PID.TID 0000.0001) > &CAL_NML
(PID.TID 0000.0001) > TheCalendar='gregorian',
(PID.TID 0000.0001) > calendarDumps=.TRUE.,
(PID.TID 0000.0001) ># TheCalendar='model',
(PID.TID 0000.0001) > startDate_1=19920101,
(PID.TID 0000.0001) > startDate_2=120000,
(PID.TID 0000.0001) > /
(PID.TID 0000.0001) 
(PID.TID 0000.0001) CAL_READPARMS: finished reading data.cal
(PID.TID 0000.0001) EXF_READPARMS: opening data.exf
(PID.TID 0000.0001)  OPEN_COPY_DATA_FILE: opening file data.exf
(PID.TID 0000.0001) // =======================================================
(PID.TID 0000.0001) // Parameter file "data.exf"
(PID.TID 0000.0001) // =======================================================
(PID.TID 0000.0001) ># *********************
(PID.TID 0000.0001) ># External Forcing Data
(PID.TID 0000.0001) ># *********************
(PID.TID 0000.0001) >#
(PID.TID 0000.0001) > &EXF_NML_01
(PID.TID 0000.0001) >#
(PID.TID 0000.0001) > useAtmWind        = .FALSE.,
(PID.TID 0000.0001) >#NCEP VALUES:
(PID.TID 0000.0001) ># exf_albedo        = 0.15,
(PID.TID 0000.0001) ># exf_scal_BulkCdn  = 1.015,
(PID.TID 0000.0001) >#
(PID.TID 0000.0001) >#TO COMBINE WITH ALLOW_ZENITH_ANGLE:
(PID.TID 0000.0001) > exf_albedo        = 0.1,
(PID.TID 0000.0001) > useExfZenIncoming = .TRUE.,
(PID.TID 0000.0001) > select_ZenAlbedo  = 1,
(PID.TID 0000.0001) >#
(PID.TID 0000.0001) > ocean_emissivity = 0.97,
(PID.TID 0000.0001) > ice_emissivity = 0.95,
(PID.TID 0000.0001) > snow_emissivity = 0.95,
(PID.TID 0000.0001) >#
(PID.TID 0000.0001) > exf_iprec         = 32,
(PID.TID 0000.0001) > exf_yftype        = 'RL',
(PID.TID 0000.0001) > useExfYearlyFields= .TRUE.,
(PID.TID 0000.0001) > useExfCheckRange  = .FALSE.,
(PID.TID 0000.0001) > readStressOnAgrid = .TRUE.,
(PID.TID 0000.0001) > rotateStressOnAgrid = .TRUE.,
(PID.TID 0000.0001) > /
(PID.TID 0000.0001) >#
(PID.TID 0000.0001) > &EXF_NML_02
(PID.TID 0000.0001) > ustressfile       = 'eccov4r4_ustr',
(PID.TID 0000.0001) > vstressfile       = 'eccov4r4_vstr',
(PID.TID 0000.0001) > atempfile         = 'eccov4r4_tmp2m_degC',
(PID.TID 0000.0001) > aqhfile           = 'eccov4r4_spfh2m',
(PID.TID 0000.0001) > precipfile        = 'eccov4r4_rain',
(PID.TID 0000.0001) ># uwindfile         = 'EIG_u10m',
(PID.TID 0000.0001) ># vwindfile         = 'EIG_v10m',
(PID.TID 0000.0001) > wspeedfile        = 'eccov4r4_wspeed',
(PID.TID 0000.0001) > swdownfile        = 'eccov4r4_dsw',
(PID.TID 0000.0001) > lwdownfile        = 'eccov4r4_dlw',
(PID.TID 0000.0001) > apressurefile     = 'eccov4r4_pres',
(PID.TID 0000.0001) >#
(PID.TID 0000.0001) > ustressstartdate1   = 19920101,
(PID.TID 0000.0001) > ustressstartdate2   = 030000,
(PID.TID 0000.0001) > ustressperiod       = 21600.0,
(PID.TID 0000.0001) >#
(PID.TID 0000.0001) > vstressstartdate1   = 19920101,
(PID.TID 0000.0001) > vstressstartdate2   = 030000,
(PID.TID 0000.0001) > vstressperiod       = 21600.0,
(PID.TID 0000.0001) >#
(PID.TID 0000.0001) > atempstartdate1   = 19920101,
(PID.TID 0000.0001) > atempstartdate2   = 030000,
(PID.TID 0000.0001) > atempperiod       = 21600.0,
(PID.TID 0000.0001) >#
(PID.TID 0000.0001) > aqhstartdate1     = 19920101,
(PID.TID 0000.0001) > aqhstartdate2     = 030000,
(PID.TID 0000.0001) > aqhperiod         = 21600.0,
(PID.TID 0000.0001) >#
(PID.TID 0000.0001) > precipstartdate1  = 19920101,
(PID.TID 0000.0001) > precipstartdate2  = 030000,
(PID.TID 0000.0001) > precipperiod      = 21600.0,
(PID.TID 0000.0001) >#
(PID.TID 0000.0001) > runofffile        = 'runoff-2d-Fekete-1deg-mon-V4-SMOOTH.bin',
(PID.TID 0000.0001) > runoffperiod      = -12,
(PID.TID 0000.0001) >#
(PID.TID 0000.0001) > uwindstartdate1   = 19920101,
(PID.TID 0000.0001) > uwindstartdate2   = 030000,
(PID.TID 0000.0001) > uwindperiod       = 21600.0,
(PID.TID 0000.0001) >#
(PID.TID 0000.0001) > vwindstartdate1   = 19920101,
(PID.TID 0000.0001) > vwindstartdate2   = 030000,
(PID.TID 0000.0001) > vwindperiod       = 21600.0,
(PID.TID 0000.0001) >#
(PID.TID 0000.0001) > wspeedstartdate1   = 19920101,
(PID.TID 0000.0001) > wspeedstartdate2   = 030000,
(PID.TID 0000.0001) > wspeedperiod       = 21600.0,
(PID.TID 0000.0001) >#
(PID.TID 0000.0001) > swdownstartdate1  = 19920101,
(PID.TID 0000.0001) > swdownstartdate2  = 030000,
(PID.TID 0000.0001) > swdownperiod      = 21600.0,
(PID.TID 0000.0001) >#
(PID.TID 0000.0001) > lwdownstartdate1  = 19920101,
(PID.TID 0000.0001) > lwdownstartdate2  = 030000,
(PID.TID 0000.0001) > lwdownperiod      = 21600.0,
(PID.TID 0000.0001) >#
(PID.TID 0000.0001) > apressurestartdate1   = 19920101,
(PID.TID 0000.0001) > apressurestartdate2   = 030000,
(PID.TID 0000.0001) > apressureperiod       = 21600.0,
(PID.TID 0000.0001) >#
(PID.TID 0000.0001) > climsstperiod     = -12.,
(PID.TID 0000.0001) >#climsssfile       = 'SSS_WPv1_M_eccollc_90x50.bin',
(PID.TID 0000.0001) > climsssperiod     = -12.,
(PID.TID 0000.0001) >#climsssTauRelax   = 15768000.,
(PID.TID 0000.0001) > /
(PID.TID 0000.0001) >#
(PID.TID 0000.0001) > &EXF_NML_03
(PID.TID 0000.0001) >#NOT FOR EIG exf_offset_atemp  = 273.3971,
(PID.TID 0000.0001) > exf_offset_atemp  = 273.15,
(PID.TID 0000.0001) >#NOT FOR NEW RUNOFF FIELD exf_inscal_runoff = 3.1710e-08,
(PID.TID 0000.0001) > exf_inscal_swdown = -1.0,
(PID.TID 0000.0001) > exf_inscal_lwdown = -1.0,
(PID.TID 0000.0001) > exf_inscal_ustress = -1.0,
(PID.TID 0000.0001) > exf_inscal_vstress = -1.0,
(PID.TID 0000.0001) ># to compensate for sea level rise for nlfs/realFWF
(PID.TID 0000.0001) >#precip_exfremo_intercept = 1.073E-9,
(PID.TID 0000.0001) >#precip_exfremo_slope = -3.340E-18,
(PID.TID 0000.0001) > /
(PID.TID 0000.0001) >#
(PID.TID 0000.0001) > &EXF_NML_04
(PID.TID 0000.0001) > runoff_interpMethod = 0,
(PID.TID 0000.0001) > climsss_interpMethod = 0,
(PID.TID 0000.0001) > ustress_interpMethod = 0,
(PID.TID 0000.0001) > vstress_interpMethod = 0,
(PID.TID 0000.0001) > atemp_interpMethod = 0,
(PID.TID 0000.0001) > aqh_interpMethod = 0,
(PID.TID 0000.0001) > precip_interpMethod = 0,
(PID.TID 0000.0001) > wspeed_interpMethod = 0,
(PID.TID 0000.0001) > swdown_interpMethod = 0,
(PID.TID 0000.0001) > lwdown_interpMethod = 0,
(PID.TID 0000.0001) > apressure_interpMethod = 0,
(PID.TID 0000.0001) >#
(PID.TID 0000.0001) > /
(PID.TID 0000.0001) 
(PID.TID 0000.0001) EXF_READPARMS: reading EXF_NML_01
(PID.TID 0000.0001) EXF_READPARMS: reading EXF_NML_02
(PID.TID 0000.0001) EXF_READPARMS: reading EXF_NML_03
(PID.TID 0000.0001) EXF_READPARMS: reading EXF_NML_04
(PID.TID 0000.0001) EXF_READPARMS: finished reading data.exf
(PID.TID 0000.0001)  GGL90_READPARMS: opening data.ggl90
(PID.TID 0000.0001)  OPEN_COPY_DATA_FILE: opening file data.ggl90
(PID.TID 0000.0001) // =======================================================
(PID.TID 0000.0001) // Parameter file "data.ggl90"
(PID.TID 0000.0001) // =======================================================
(PID.TID 0000.0001) ># =====================================================================
(PID.TID 0000.0001) ># | Parameters for Gaspar et al. (1990)'s TKE vertical mixing scheme  |
(PID.TID 0000.0001) ># =====================================================================
(PID.TID 0000.0001) > &GGL90_PARM01
(PID.TID 0000.0001) ># GGL90taveFreq = 345600000.,
(PID.TID 0000.0001) ># GGL90dumpFreq = 86400.,
(PID.TID 0000.0001) ># GGL90writeState=.FALSE.,
(PID.TID 0000.0001) ># GGL90diffTKEh=3.e3,
(PID.TID 0000.0001) > GGL90alpha=30.,
(PID.TID 0000.0001) ># GGL90TKEFile = 'TKE_init.bin',
(PID.TID 0000.0001) > GGL90TKEmin  = 1.e-7,
(PID.TID 0000.0001) > GGL90TKEbottom = 1.e-6,
(PID.TID 0000.0001) > mxlMaxFlag =2,
(PID.TID 0000.0001) > mxlSurfFlag=.TRUE.,
(PID.TID 0000.0001) > /
(PID.TID 0000.0001) 
(PID.TID 0000.0001)  GGL90_READPARMS: finished reading data.ggl90
(PID.TID 0000.0001) // =======================================================
(PID.TID 0000.0001) // GGL90 configuration
(PID.TID 0000.0001) // =======================================================
(PID.TID 0000.0001) GGL90dumpFreq =   /* GGL90 state write out interval ( s ). */
(PID.TID 0000.0001)                 0.000000000000000E+00
(PID.TID 0000.0001)     ;
(PID.TID 0000.0001) GGL90taveFreq =   /* GGL90 averaging interval ( s ). */
(PID.TID 0000.0001)                 0.000000000000000E+00
(PID.TID 0000.0001)     ;
(PID.TID 0000.0001) GGL90mixingMAPS =   /* GGL90 IO flag. */
(PID.TID 0000.0001)                   F
(PID.TID 0000.0001)     ;
(PID.TID 0000.0001) GGL90writeState =   /* GGL90 IO flag. */
(PID.TID 0000.0001)                   F
(PID.TID 0000.0001)     ;
(PID.TID 0000.0001) GGL90ck =   /* GGL90 viscosity parameter. */
(PID.TID 0000.0001)                 1.000000000000000E-01
(PID.TID 0000.0001)     ;
(PID.TID 0000.0001) GGL90ceps =   /* GGL90 dissipation parameter. */
(PID.TID 0000.0001)                 7.000000000000000E-01
(PID.TID 0000.0001)     ;
(PID.TID 0000.0001) GGL90alpha =   /* GGL90 TKE diffusivity parameter. */
(PID.TID 0000.0001)                 3.000000000000000E+01
(PID.TID 0000.0001)     ;
(PID.TID 0000.0001) GGL90m2 =   /* GGL90 wind stress to vertical stress ratio. */
(PID.TID 0000.0001)                 3.750000000000000E+00
(PID.TID 0000.0001)     ;
(PID.TID 0000.0001) GGL90TKEmin =   /* GGL90 minimum kinetic energy ( m^2/s^2 ). */
(PID.TID 0000.0001)                 1.000000000000000E-07
(PID.TID 0000.0001)     ;
(PID.TID 0000.0001) GGL90TKEsurfMin =   /* GGL90 minimum surface kinetic energy ( m^2/s^2 ). */
(PID.TID 0000.0001)                 1.000000000000000E-04
(PID.TID 0000.0001)     ;
(PID.TID 0000.0001) GGL90TKEbottom =   /* GGL90 bottom kinetic energy ( m^2/s^2 ). */
(PID.TID 0000.0001)                 1.000000000000000E-06
(PID.TID 0000.0001)     ;
(PID.TID 0000.0001) GGL90viscMax =   /* GGL90 upper limit for viscosity ( m^2/s ). */
(PID.TID 0000.0001)                 1.000000000000000E+02
(PID.TID 0000.0001)     ;
(PID.TID 0000.0001) GGL90diffMax =   /* GGL90 upper limit for diffusivity ( m^2/s ). */
(PID.TID 0000.0001)                 1.000000000000000E+02
(PID.TID 0000.0001)     ;
(PID.TID 0000.0001) GGL90diffTKEh =   /* GGL90 horizontal diffusivity for TKE ( m^2/s ). */
(PID.TID 0000.0001)                 0.000000000000000E+00
(PID.TID 0000.0001)     ;
(PID.TID 0000.0001) GGL90mixingLengthMin =   /* GGL90 minimum mixing length ( m ). */
(PID.TID 0000.0001)                 1.000000000000000E-08
(PID.TID 0000.0001)     ;
(PID.TID 0000.0001) mxlMaxFlag =   /* Flag for limiting mixing-length method */
(PID.TID 0000.0001)                       2
(PID.TID 0000.0001)     ;
(PID.TID 0000.0001) mxlSurfFlag =   /* GGL90 flag for near surface mixing. */
(PID.TID 0000.0001)                   T
(PID.TID 0000.0001)     ;
(PID.TID 0000.0001) calcMeanVertShear = /* calc Mean of Vert.Shear (vs shear of Mean flow) */
(PID.TID 0000.0001)                   F
(PID.TID 0000.0001)     ;
(PID.TID 0000.0001) GGL90: GGL90TKEFile =
(PID.TID 0000.0001) GGL90writeState =   /* GGL90 Boundary condition flag. */
(PID.TID 0000.0001)                   T
(PID.TID 0000.0001)     ;
(PID.TID 0000.0001) // =======================================================
(PID.TID 0000.0001) // End of GGL90 config. summary
(PID.TID 0000.0001) // =======================================================
(PID.TID 0000.0001) 
(PID.TID 0000.0001)  GM_READPARMS: opening data.gmredi
(PID.TID 0000.0001)  OPEN_COPY_DATA_FILE: opening file data.gmredi
(PID.TID 0000.0001) // =======================================================
(PID.TID 0000.0001) // Parameter file "data.gmredi"
(PID.TID 0000.0001) // =======================================================
(PID.TID 0000.0001) ># GM+Redi package parameters:
(PID.TID 0000.0001) >#     GM_Small_Number  :: epsilon used in computing the slope
(PID.TID 0000.0001) >#     GM_slopeSqCutoff :: slope^2 cut-off value
(PID.TID 0000.0001) >
(PID.TID 0000.0001) >#-from MOM :
(PID.TID 0000.0001) ># GM_background_K: 	G & Mc.W  diffusion coefficient
(PID.TID 0000.0001) ># GM_maxSlope    :	max slope of isopycnals
(PID.TID 0000.0001) ># GM_Scrit       :	transition for scaling diffusion coefficient
(PID.TID 0000.0001) ># GM_Sd          :	half width scaling for diffusion coefficient
(PID.TID 0000.0001) ># GM_taper_scheme:	slope clipping or one of the tapering schemes
(PID.TID 0000.0001) ># GM_Kmin_horiz  :	horizontal diffusion minimum value
(PID.TID 0000.0001) >
(PID.TID 0000.0001) >#-Option parameters (needs to "define" options in GMREDI_OPTIONS.h")
(PID.TID 0000.0001) ># GM_isopycK     :	isopycnal diffusion coefficient (default=GM_background_K)
(PID.TID 0000.0001) ># GM_AdvForm     :	turn on GM Advective form       (default=Skew flux form)
(PID.TID 0000.0001) >
(PID.TID 0000.0001) > &GM_PARM01
(PID.TID 0000.0001) >  GM_Small_Number  = 1.D-20,
(PID.TID 0000.0001) >  GM_slopeSqCutoff = 1.D+08,
(PID.TID 0000.0001) >  GM_AdvForm         = .TRUE.,
(PID.TID 0000.0001) >  GM_isopycK         = 1.D+3,
(PID.TID 0000.0001) >  GM_background_K    = 1.D+3,
(PID.TID 0000.0001) >  GM_maxSlope        = 4.D-3,
(PID.TID 0000.0001) >  GM_taper_scheme    = 'stableGmAdjTap',
(PID.TID 0000.0001) >  GM_Kmin_horiz      = 100.,
(PID.TID 0000.0001) >  GM_Scrit           = 4.D-3,
(PID.TID 0000.0001) >  GM_Sd              = 1.D-3,
(PID.TID 0000.0001) >  GM_background_K3dFile='total_kapgm_r009bit11.bin'
(PID.TID 0000.0001) >  GM_isopycK3dFile='total_kapredi_r009bit11.bin'
(PID.TID 0000.0001) >
(PID.TID 0000.0001) >#
(PID.TID 0000.0001) >###  GM_Visbeck_alpha   = 1.5D-2,
(PID.TID 0000.0001) >###  GM_Visbeck_alpha   = 0.D0,
(PID.TID 0000.0001) >###  GM_Visbeck_length  = 2.D+5,
(PID.TID 0000.0001) >###  GM_Visbeck_depth   = 1.D+3,
(PID.TID 0000.0001) >###  GM_Visbeck_maxval_K= 2.5D+3,
(PID.TID 0000.0001) > /
(PID.TID 0000.0001) >
(PID.TID 0000.0001) >
(PID.TID 0000.0001) 
(PID.TID 0000.0001)  GM_READPARMS: finished reading data.gmredi
(PID.TID 0000.0001) 
(PID.TID 0000.0001)  SEAICE_READPARMS: opening data.seaice
(PID.TID 0000.0001)  OPEN_COPY_DATA_FILE: opening file data.seaice
(PID.TID 0000.0001) // =======================================================
(PID.TID 0000.0001) // Parameter file "data.seaice"
(PID.TID 0000.0001) // =======================================================
(PID.TID 0000.0001) ># SEAICE parameters
(PID.TID 0000.0001) > &SEAICE_PARM01
(PID.TID 0000.0001) >
(PID.TID 0000.0001) >      SEAICEpresH0=2.,
(PID.TID 0000.0001) >      SEAICEpresPow0=1,
(PID.TID 0000.0001) >      SEAICEpresPow1=1,
(PID.TID 0000.0001) >
(PID.TID 0000.0001) >      SEAICE_strength = 2.25e4,
(PID.TID 0000.0001) >      SEAICE_area_max = 0.97,
(PID.TID 0000.0001) >
(PID.TID 0000.0001) >      SEAICE_no_slip     = .TRUE.,
(PID.TID 0000.0001) >
(PID.TID 0000.0001) >      SEAICE_drag=0.001,
(PID.TID 0000.0001) >      OCEAN_drag=0.001,
(PID.TID 0000.0001) >
(PID.TID 0000.0001) >#####
(PID.TID 0000.0001) >      SEAICEuseTILT=.FALSE.,
(PID.TID 0000.0001) >      SEAICE_multDim=1,
(PID.TID 0000.0001) >      SEAICErestoreUnderIce=.TRUE.,
(PID.TID 0000.0001) >
(PID.TID 0000.0001) >      SEAICE_salt0=4.,
(PID.TID 0000.0001) >
(PID.TID 0000.0001) >      LSR_ERROR          = 2.e-4,
(PID.TID 0000.0001) >      SEAICEuseDYNAMICS  = .TRUE.,
(PID.TID 0000.0001) >      MIN_ATEMP          = -40.,
(PID.TID 0000.0001) >      MIN_TICE           = -40.,
(PID.TID 0000.0001) >      SEAICEadvScheme    = 33,
(PID.TID 0000.0001) >      SEAICEuseFluxForm = .TRUE.,
(PID.TID 0000.0001) >      SEAICEadvSnow      = .TRUE.,
(PID.TID 0000.0001) >      SEAICEdiffKhHeff   = 400.,
(PID.TID 0000.0001) >      SEAICEdiffKhArea   = 400.,
(PID.TID 0000.0001) >      SEAICEdiffKhSnow   = 400.,
(PID.TID 0000.0001) >      SEAICEuseFlooding  = .TRUE.,
(PID.TID 0000.0001) >      SEAICE_mcPheePiston= 3.858024691358025E-05,
(PID.TID 0000.0001) >      SEAICE_frazilFrac  = 1.,
(PID.TID 0000.0001) >      SEAICE_mcPheeTaper = 0.,
(PID.TID 0000.0001) >      SEAICE_areaLossFormula=2,
(PID.TID 0000.0001) >      SEAICEheatConsFix  = .TRUE.,
(PID.TID 0000.0001) >      SEAICE_tempFrz0    = -1.96,
(PID.TID 0000.0001) >      SEAICE_dTempFrz_dS = 0.,
(PID.TID 0000.0001) >      SEAICEuseMetricTerms = .TRUE.,
(PID.TID 0000.0001) >      SEAICE_clipVelocities = .TRUE.,
(PID.TID 0000.0001) >
(PID.TID 0000.0001) >#take 33% out of (1-albedo)
(PID.TID 0000.0001) >      SEAICE_dryIceAlb   = 0.84,
(PID.TID 0000.0001) >      SEAICE_wetIceAlb   = 0.78,
(PID.TID 0000.0001) >      SEAICE_drySnowAlb  = 0.90,
(PID.TID 0000.0001) >      SEAICE_wetSnowAlb  = 0.8 ,
(PID.TID 0000.0001) >#default albedos
(PID.TID 0000.0001) >      SEAICE_dryIceAlb_south   = 0.75,
(PID.TID 0000.0001) >      SEAICE_wetIceAlb_south   = 0.66,
(PID.TID 0000.0001) >      SEAICE_drySnowAlb_south  = 0.84,
(PID.TID 0000.0001) >      SEAICE_wetSnowAlb_south  = 0.7,
(PID.TID 0000.0001) > /
(PID.TID 0000.0001) >#
(PID.TID 0000.0001) > &SEAICE_PARM02
(PID.TID 0000.0001) > /
(PID.TID 0000.0001) 
(PID.TID 0000.0001)  SEAICE_READPARMS: finished reading data.seaice
(PID.TID 0000.0001) SALT_PLUME_READPARMS: opening data.salt_plume
(PID.TID 0000.0001)  OPEN_COPY_DATA_FILE: opening file data.salt_plume
(PID.TID 0000.0001) // =======================================================
(PID.TID 0000.0001) // Parameter file "data.salt_plume"
(PID.TID 0000.0001) // =======================================================
(PID.TID 0000.0001) > &SALT_PLUME_PARM01
(PID.TID 0000.0001) ># SaltPlumeCriterion = 0.4D0,
(PID.TID 0000.0001) > SPsalFRAC= 0.5D0,
(PID.TID 0000.0001) >#SPsalFRAC= 0.25D0,
(PID.TID 0000.0001) >#SPsalFRAC= 0.0D0,
(PID.TID 0000.0001) > /
(PID.TID 0000.0001) 
(PID.TID 0000.0001) SALT_PLUME_READPARMS: finished reading data.salt_plume
(PID.TID 0000.0001) AUTODIFF_READPARMS: opening data.autodiff
(PID.TID 0000.0001)  OPEN_COPY_DATA_FILE: opening file data.autodiff
(PID.TID 0000.0001) // =======================================================
(PID.TID 0000.0001) // Parameter file "data.autodiff"
(PID.TID 0000.0001) // =======================================================
(PID.TID 0000.0001) ># =========================
(PID.TID 0000.0001) ># pkg AUTODIFF parameters :
(PID.TID 0000.0001) ># =========================
(PID.TID 0000.0001) >#  inAdExact :: get an exact adjoint (no approximation) (def=.True.)
(PID.TID 0000.0001) >#
(PID.TID 0000.0001) > &AUTODIFF_PARM01
(PID.TID 0000.0001) ># inAdExact = .FALSE.,
(PID.TID 0000.0001) > useSEAICEinAdMode = .FALSE.,
(PID.TID 0000.0001) ># useKPPinAdMode = .FALSE.,
(PID.TID 0000.0001) ># useGMRediInAdMode = .FALSE.,
(PID.TID 0000.0001) > useGGL90inAdMode = .FALSE.,
(PID.TID 0000.0001) > useSALT_PLUMEinAdMode = .FALSE.,
(PID.TID 0000.0001) > /
(PID.TID 0000.0001) 
(PID.TID 0000.0001) AUTODIFF_READPARMS: finished reading data.autodiff
(PID.TID 0000.0001) // ===================================
(PID.TID 0000.0001) // AUTODIFF parameters :
(PID.TID 0000.0001) // ===================================
(PID.TID 0000.0001) inAdExact = /* get an exact adjoint (no approximation) */
(PID.TID 0000.0001)                   T
(PID.TID 0000.0001)     ;
(PID.TID 0000.0001) useKPPinAdMode = /* use KPP in adjoint mode */
(PID.TID 0000.0001)                   F
(PID.TID 0000.0001)     ;
(PID.TID 0000.0001) useGMRediInAdMode = /* use GMRedi in adjoint mode */
(PID.TID 0000.0001)                   T
(PID.TID 0000.0001)     ;
(PID.TID 0000.0001) useSEAICEinAdMode = /* use SEAICE in adjoint mode */
(PID.TID 0000.0001)                   F
(PID.TID 0000.0001)     ;
(PID.TID 0000.0001) useGGL90inAdMode = /* use GGL90 in adjoint mode */
(PID.TID 0000.0001)                   F
(PID.TID 0000.0001)     ;
(PID.TID 0000.0001) useSALT_PLUMEinAdMode = /* use SALT_PLUME in adjoint mode */
(PID.TID 0000.0001)                   F
(PID.TID 0000.0001)     ;
(PID.TID 0000.0001) SEAICEuseDYNAMICSswitchInAd = /* switch On/Off SEAICE Dyn in AD mode */
(PID.TID 0000.0001)                   F
(PID.TID 0000.0001)     ;
(PID.TID 0000.0001) SEAICEuseFREEDRIFTswitchInAd= /* switch On/Off Free-Drift in AD mode */
(PID.TID 0000.0001)                   F
(PID.TID 0000.0001)     ;
(PID.TID 0000.0001) SEAICEapproxLevInAd = /* -1:SEAICE_FAKE, >0:other adjoint approximation */
(PID.TID 0000.0001)                       0
(PID.TID 0000.0001)     ;
(PID.TID 0000.0001) dumpAdVarExch = /* control adexch before dumpinp */
(PID.TID 0000.0001)                       2
(PID.TID 0000.0001)     ;
(PID.TID 0000.0001) mon_AdVarExch = /* control adexch before monitor */
(PID.TID 0000.0001)                       2
(PID.TID 0000.0001)     ;
(PID.TID 0000.0001) viscFacInAd = /* viscosity factor for adjoint */
(PID.TID 0000.0001)                 1.000000000000000E+00
(PID.TID 0000.0001)     ;
(PID.TID 0000.0001) 
(PID.TID 0000.0001) OPTIM_READPARMS: opening data.optim
(PID.TID 0000.0001)  OPEN_COPY_DATA_FILE: opening file data.optim
(PID.TID 0000.0001) // =======================================================
(PID.TID 0000.0001) // Parameter file "data.optim"
(PID.TID 0000.0001) // =======================================================
(PID.TID 0000.0001) > &OPTIM
(PID.TID 0000.0001) > optimcycle=129,
(PID.TID 0000.0001) > /
(PID.TID 0000.0001) 
(PID.TID 0000.0001) OPTIM_READPARMS: finished reading data.optim
(PID.TID 0000.0001) CTRL_READPARMS: opening data.ctrl
(PID.TID 0000.0001)  OPEN_COPY_DATA_FILE: opening file data.ctrl
(PID.TID 0000.0001) // =======================================================
(PID.TID 0000.0001) // Parameter file "data.ctrl"
(PID.TID 0000.0001) // =======================================================
(PID.TID 0000.0001) ># *********************
(PID.TID 0000.0001) ># ECCO controlvariables
(PID.TID 0000.0001) ># *********************
(PID.TID 0000.0001) > &ctrl_nml
(PID.TID 0000.0001) >#
(PID.TID 0000.0001) > doSinglePrecTapelev=.TRUE.,
(PID.TID 0000.0001) > ctrlSmoothCorrel2D=.TRUE.,
(PID.TID 0000.0001) > ctrlSmoothCorrel3D=.TRUE.,
(PID.TID 0000.0001) >  ctrlUseGen=.TRUE.,
(PID.TID 0000.0001) >#to start from given xx*00.data files
(PID.TID 0000.0001) >  doinitxx = .FALSE.,
(PID.TID 0000.0001) >  doMainUnpack = .FALSE.,
(PID.TID 0000.0001) >#to start from given ecco_ctrl... files
(PID.TID 0000.0001) ># doinitxx = .FALSE.,
(PID.TID 0000.0001) >#
(PID.TID 0000.0001) >#doPackDiag = .TRUE.,
(PID.TID 0000.0001) > forcingPrecond=1.,
(PID.TID 0000.0001) >/
(PID.TID 0000.0001) >
(PID.TID 0000.0001) >#
(PID.TID 0000.0001) ># *********************
(PID.TID 0000.0001) ># names for ctrl_pack/unpack
(PID.TID 0000.0001) ># *********************
(PID.TID 0000.0001) > &ctrl_packnames
(PID.TID 0000.0001) > /
(PID.TID 0000.0001) >#
(PID.TID 0000.0001) ># *********************
(PID.TID 0000.0001) ># names for CTRL_GENARR, CTRL_GENTIM
(PID.TID 0000.0001) ># *********************
(PID.TID 0000.0001) > &CTRL_NML_GENARR
(PID.TID 0000.0001) >#
(PID.TID 0000.0001) > xx_genarr2d_weight(1) = 'SSH_weights_nonseasonal_rms_areascaled.bin',
(PID.TID 0000.0001) > xx_genarr2d_file(1)='xx_etan',
(PID.TID 0000.0001) > xx_genarr2d_bounds(1:5,1)=-9.0,-8.9,8.9,9.0,0.,
(PID.TID 0000.0001) > xx_genarr2d_preproc(1,1)='WC01',
(PID.TID 0000.0001) > xx_genarr2d_preproc_i(1,1)=1,
(PID.TID 0000.0001) > mult_genarr2d(1) = 1.,
(PID.TID 0000.0001) >#
(PID.TID 0000.0001) > xx_genarr3d_weight(1) = 'Theta_weights_nonseasonal_rmsv2_areascaled.bin',
(PID.TID 0000.0001) > xx_genarr3d_file(1)='xx_theta',
(PID.TID 0000.0001) > xx_genarr3d_bounds(1:5,1)=-2.0,-1.9,39.,40.,0.,
(PID.TID 0000.0001) > xx_genarr3d_preproc(1,1)='WC01',
(PID.TID 0000.0001) > xx_genarr3d_preproc_i(1,1)=1,
(PID.TID 0000.0001) > mult_genarr3d(1) = 1.,
(PID.TID 0000.0001) >#
(PID.TID 0000.0001) > xx_genarr3d_weight(2) = 'Salt_weights_nonseasonal_rmsv2_areascaled.bin',
(PID.TID 0000.0001) > xx_genarr3d_file(2)='xx_salt',
(PID.TID 0000.0001) > xx_genarr3d_bounds(1:5,2)=20.,20.5,40.5,41.,0.,
(PID.TID 0000.0001) > xx_genarr3d_preproc(1,2)='WC01',
(PID.TID 0000.0001) > xx_genarr3d_preproc_i(1,2)=1,
(PID.TID 0000.0001) > mult_genarr3d(2) = 1.,
(PID.TID 0000.0001) >#
(PID.TID 0000.0001) > xx_genarr3d_weight(3) = 'r2.wkapgmFldv2.data',
(PID.TID 0000.0001) > xx_genarr3d_file(3)='xx_kapgm',
(PID.TID 0000.0001) > xx_genarr3d_bounds(1:5,3)=1.E2,2.E2,0.9E4,1.E4,0.,
(PID.TID 0000.0001) > xx_genarr3d_preproc(1,3)='WC01',
(PID.TID 0000.0001) > xx_genarr3d_preproc_i(1,3)=1,
(PID.TID 0000.0001) > mult_genarr3d(3) = 1.,
(PID.TID 0000.0001) >#
(PID.TID 0000.0001) > xx_genarr3d_weight(4) = 'r2.wkaprediFldv2.data',
(PID.TID 0000.0001) > xx_genarr3d_file(4)='xx_kapredi',
(PID.TID 0000.0001) > xx_genarr3d_bounds(1:5,4)=1.E2,2.E2,0.9E4,1.E4,0.,
(PID.TID 0000.0001) > xx_genarr3d_preproc(1,4)='WC01',
(PID.TID 0000.0001) > xx_genarr3d_preproc_i(1,4)=1,
(PID.TID 0000.0001) > mult_genarr3d(4) = 1.,
(PID.TID 0000.0001) >#
(PID.TID 0000.0001) > xx_genarr3d_weight(5) = 'r2.wdiffkrFldv2.data',
(PID.TID 0000.0001) > xx_genarr3d_file(5)='xx_diffkr',
(PID.TID 0000.0001) > xx_genarr3d_bounds(1:5,5)=1.E-6,2.E-6,4.E-4,5.E-4,0.,
(PID.TID 0000.0001) > xx_genarr3d_preproc(1,5)='WC01',
(PID.TID 0000.0001) > xx_genarr3d_preproc_i(1,5)=1,
(PID.TID 0000.0001) > mult_genarr3d(5) = 1.,
(PID.TID 0000.0001) >#
(PID.TID 0000.0001) > xx_genarr3d_weight(6) = 'Uvel_weights_nonseasonal_rmsv2_areascaled.bin',
(PID.TID 0000.0001) > xx_genarr3d_file(6)='xx_uvel',
(PID.TID 0000.0001) > xx_genarr3d_bounds(1:5,6)=-3.,-2.9, 2.9,3.,0.,
(PID.TID 0000.0001) > xx_genarr3d_preproc(1,6)='WC01',
(PID.TID 0000.0001) > xx_genarr3d_preproc_i(1,6)=1,
(PID.TID 0000.0001) > mult_genarr3d(6) = 1.,
(PID.TID 0000.0001) >#
(PID.TID 0000.0001) > xx_genarr3d_weight(7) = 'Vvel_weights_nonseasonal_rmsv2_areascaled.bin',
(PID.TID 0000.0001) > xx_genarr3d_file(7)='xx_vvel',
(PID.TID 0000.0001) > xx_genarr3d_bounds(1:5,7)=-3.,-2.9, 2.9,3.,0.,
(PID.TID 0000.0001) > xx_genarr3d_preproc(1,7)='WC01',
(PID.TID 0000.0001) > xx_genarr3d_preproc_i(1,7)=1,
(PID.TID 0000.0001) > mult_genarr3d(7) = 1.,
(PID.TID 0000.0001) >#
(PID.TID 0000.0001) > /
(PID.TID 0000.0001) 
(PID.TID 0000.0001) CTRL_READPARMS: finished reading data.ctrl
(PID.TID 0000.0001) COST_READPARMS: opening data.cost
(PID.TID 0000.0001)  OPEN_COPY_DATA_FILE: opening file data.cost
(PID.TID 0000.0001) // =======================================================
(PID.TID 0000.0001) // Parameter file "data.cost"
(PID.TID 0000.0001) // =======================================================
(PID.TID 0000.0001) >#
(PID.TID 0000.0001) >#
(PID.TID 0000.0001) ># ******************
(PID.TID 0000.0001) ># cost function
(PID.TID 0000.0001) ># ******************
(PID.TID 0000.0001) > &COST_NML
(PID.TID 0000.0001) > /
(PID.TID 0000.0001) 
(PID.TID 0000.0001) COST_READPARMS: finished reading data.cost
(PID.TID 0000.0001) SMOOTH_READPARMS: opening data.smooth
(PID.TID 0000.0001)  OPEN_COPY_DATA_FILE: opening file data.smooth
(PID.TID 0000.0001) // =======================================================
(PID.TID 0000.0001) // Parameter file "data.smooth"
(PID.TID 0000.0001) // =======================================================
(PID.TID 0000.0001) > &SMOOTH_NML
(PID.TID 0000.0001) > smooth2Dnbt(1)=300
(PID.TID 0000.0001) > smooth2Dtype(1)=1
(PID.TID 0000.0001) > smooth2Dsize(1)=2
(PID.TID 0000.0001) > smooth2Dfilter(1)=0
(PID.TID 0000.0001) > smooth3Dnbt(1)=300
(PID.TID 0000.0001) > smooth3DtypeH(1)=1
(PID.TID 0000.0001) > smooth3DsizeH(1)=3
(PID.TID 0000.0001) > smooth3DtypeZ(1)=1
(PID.TID 0000.0001) > smooth3DsizeZ(1)=3
(PID.TID 0000.0001) > smooth3Dfilter(1)=0
(PID.TID 0000.0001) > /
(PID.TID 0000.0001) 
(PID.TID 0000.0001) SMOOTH_READPARMS: finished reading data.smooth
(PID.TID 0000.0001) // =======================================================
(PID.TID 0000.0001) // pkg/smooth configuration
(PID.TID 0000.0001) // =======================================================
(PID.TID 0000.0001) smooth 2D parameters:  1   300    0.    0.
(PID.TID 0000.0001) smooth 3D parameters:  1   300    0.    0.    0.
(PID.TID 0000.0001) // =======================================================
(PID.TID 0000.0001) // End of pkg/smooth config. summary
(PID.TID 0000.0001) // =======================================================
(PID.TID 0000.0001) 
(PID.TID 0000.0001) ECCO_READPARMS: opening data.ecco
(PID.TID 0000.0001)  OPEN_COPY_DATA_FILE: opening file data.ecco
(PID.TID 0000.0001) // =======================================================
(PID.TID 0000.0001) // Parameter file "data.ecco"
(PID.TID 0000.0001) // =======================================================
(PID.TID 0000.0001) >#
(PID.TID 0000.0001) >#
(PID.TID 0000.0001) ># ******************
(PID.TID 0000.0001) ># ECCO cost function
(PID.TID 0000.0001) ># ******************
(PID.TID 0000.0001) >#
(PID.TID 0000.0001) > &ECCO_COST_NML
(PID.TID 0000.0001) >#
(PID.TID 0000.0001) > data_errfile    = 'data.err',
(PID.TID 0000.0001) > temp0errfile     = 'Theta_sigma_smoothed_method_02_masked_merged_capped_areascaled.bin',
(PID.TID 0000.0001) > salt0errfile     = 'Salt_sigma_smoothed_method_02_masked_merged_capped_areascaled.bin',
(PID.TID 0000.0001) > cost_iprec  = 32,
(PID.TID 0000.0001) > cost_yftype = 'RL',
(PID.TID 0000.0001) >#
(PID.TID 0000.0001) > /
(PID.TID 0000.0001) >#
(PID.TID 0000.0001) > &ECCO_GENCOST_NML
(PID.TID 0000.0001) >#
(PID.TID 0000.0001) >  gencost_avgperiod(1)  = 'day',
(PID.TID 0000.0001) >  gencost_barfile(1) = 'gbar_area',
(PID.TID 0000.0001) >  gencost_datafile(1) = 'NOAA_NSIDC_DAILY_v3b_MAPPED_TO_LLC90',
(PID.TID 0000.0001) >  gencost_errfile(1) = 'sigma_iceconc_eccollc_coastalmask_areascaled.bin',
(PID.TID 0000.0001) >  gencost_name(1) = 'siv4-conc',
(PID.TID 0000.0001) >  gencost_spmin(1) = -999.,
(PID.TID 0000.0001) >  gencost_spmax(1) = 999.,
(PID.TID 0000.0001) >  gencost_spzero(1) = -9999.,
(PID.TID 0000.0001) >  gencost_outputlevel(1)=1,
(PID.TID 0000.0001) >  mult_gencost(1) = 0.,
(PID.TID 0000.0001) >#
(PID.TID 0000.0001) >  gencost_avgperiod(2)  = 'day',
(PID.TID 0000.0001) >  gencost_barfile(2) = 'gbar_deconc',
(PID.TID 0000.0001) >  gencost_name(2) = 'siv4-deconc',
(PID.TID 0000.0001) >  gencost_datafile(2) = 'NOAA_NSIDC_DAILY_v3b_MAPPED_TO_LLC90',
(PID.TID 0000.0001) >  gencost_errfile(2) = 'seaiceproxy_sigma_coastalmask_areascaled.bin',
(PID.TID 0000.0001) >  gencost_spmin(2) = -999.,
(PID.TID 0000.0001) >  gencost_spmax(2) = 999.,
(PID.TID 0000.0001) >  gencost_spzero(2) = -9999.,
(PID.TID 0000.0001) >  gencost_outputlevel(2)=1,
(PID.TID 0000.0001) >  mult_gencost(2) = 0.071,
(PID.TID 0000.0001) >#
(PID.TID 0000.0001) >  gencost_avgperiod(3)  = 'day',
(PID.TID 0000.0001) >  gencost_barfile(3) = 'gbar_exconc',
(PID.TID 0000.0001) >  gencost_name(3) = 'siv4-exconc',
(PID.TID 0000.0001) >  gencost_datafile(3) = 'NOAA_NSIDC_DAILY_v3b_MAPPED_TO_LLC90',
(PID.TID 0000.0001) >  gencost_errfile(3) = 'seaiceproxy_sigma_coastalmask_areascaled.bin',
(PID.TID 0000.0001) >  gencost_spmin(3) = -999.,
(PID.TID 0000.0001) >  gencost_spmax(3) = 999.,
(PID.TID 0000.0001) >  gencost_spzero(3) = -9999.,
(PID.TID 0000.0001) >  gencost_outputlevel(3)=1,
(PID.TID 0000.0001) >  mult_gencost(3) = 0.,
(PID.TID 0000.0001) >#
(PID.TID 0000.0001) >  gencost_avgperiod(4)  = 'month',
(PID.TID 0000.0001) >  gencost_barfile(4) = 'm_sstmon',
(PID.TID 0000.0001) >  gencost_datafile(4) = 'reynolds_oiv2_r1_mar2018_simasked',
(PID.TID 0000.0001) >  gencost_errfile(4) = 'sigma_half_areascaled.bin',
(PID.TID 0000.0001) >  gencost_name(4) = 'sst-reynoldsmean',
(PID.TID 0000.0001) >  gencost_spmin(4) = -1.8,
(PID.TID 0000.0001) >  gencost_spmax(4) = 40.,
(PID.TID 0000.0001) >  gencost_spzero(4) = 0.,
(PID.TID 0000.0001) >  gencost_preproc(1,4)='mean',
(PID.TID 0000.0001) >  gencost_outputlevel(4)=1,
(PID.TID 0000.0001) >  mult_gencost(4) = 1.,
(PID.TID 0000.0001) >#
(PID.TID 0000.0001) >  gencost_avgperiod(5)  = 'month',
(PID.TID 0000.0001) >  gencost_barfile(5) = 'm_sstmon',
(PID.TID 0000.0001) >  gencost_datafile(5) = 'reynolds_oiv2_r1_mar2018_simasked',
(PID.TID 0000.0001) >  gencost_errfile(5) = 'sigma_half_areascaled.bin',
(PID.TID 0000.0001) >  gencost_name(5) = 'sst-reynoldsanom',
(PID.TID 0000.0001) >  gencost_spmin(5) = -1.8,
(PID.TID 0000.0001) >  gencost_spmax(5) = 40.,
(PID.TID 0000.0001) >  gencost_spzero(5) = 0.,
(PID.TID 0000.0001) >  gencost_preproc(1,5)='anom',
(PID.TID 0000.0001) >  gencost_outputlevel(5)=1,
(PID.TID 0000.0001) >  mult_gencost(5) = 1.,
(PID.TID 0000.0001) >
(PID.TID 0000.0001) >#
(PID.TID 0000.0001) ># gencost_avgperiod(5)  = 'month',
(PID.TID 0000.0001) ># gencost_barfile(5) = 'sstmon',
(PID.TID 0000.0001) ># gencost_datafile(5) = 'tmi_amsre_oisst_r1',
(PID.TID 0000.0001) ># gencost_errfile(5) = 'sigma_half_areascaled.bin',
(PID.TID 0000.0001) ># gencost_name(5) = 'sst-tmi-amsre',
(PID.TID 0000.0001) ># gencost_startdate1(5) = 19980101,
(PID.TID 0000.0001) ># gencost_startdate2(5)= 00000,
(PID.TID 0000.0001) ># gencost_spmin(5) = -1.8,
(PID.TID 0000.0001) ># gencost_spmax(5) = 40.,
(PID.TID 0000.0001) ># gencost_spzero(5) = 0.,
(PID.TID 0000.0001) ># gencost_outputlevel(5)=1,
(PID.TID 0000.0001) ># mult_gencost(5) = 0.,
(PID.TID 0000.0001) >#
(PID.TID 0000.0001) >  gencost_avgperiod(6)  = 'month',
(PID.TID 0000.0001) >  gencost_barfile(6) = 'm_bp_nopabarmon',
(PID.TID 0000.0001) >  gencost_datafile(6) = 'GRACE_jpl_rl05m_20180122',
(PID.TID 0000.0001) >  gencost_errfile(6) = 'GRACE_jpl_rl05m_20180122_err_areascaled',
(PID.TID 0000.0001) >  gencost_name(6) = 'bpv4-grace',
(PID.TID 0000.0001) >  gencost_outputlevel(6)=1,
(PID.TID 0000.0001) >  mult_gencost(6) = 1.,
(PID.TID 0000.0001) >#
(PID.TID 0000.0001) >  gencost_avgperiod(7)  = 'month',
(PID.TID 0000.0001) >  gencost_barfile(7) = 'm_thetamon',
(PID.TID 0000.0001) >  gencost_datafile(7) = 'T_monthly_woa09_highlatnearsurface_masked',
(PID.TID 0000.0001) >  gencost_errfile(7) = 'Theta_sigma_smoothed_method_02_masked_merged_capped_areascaled.bin',
(PID.TID 0000.0001) >#  gencost_name(7) = 'thetaclim',
(PID.TID 0000.0001) >  gencost_name(7) = 'thetamean',
(PID.TID 0000.0001) >  gencost_spmin(7) = -1.8,
(PID.TID 0000.0001) >  gencost_spmax(7) = 40.,
(PID.TID 0000.0001) >  gencost_spzero(7) = 0.,
(PID.TID 0000.0001) >  gencost_is3d(7)=.TRUE.,
(PID.TID 0000.0001) >  gencost_preproc(1,7)='mean',
(PID.TID 0000.0001) >  gencost_outputlevel(7)=1,
(PID.TID 0000.0001) >  mult_gencost(7) = 1.,
(PID.TID 0000.0001) >#
(PID.TID 0000.0001) >  gencost_avgperiod(8)  = 'month',
(PID.TID 0000.0001) >  gencost_barfile(8) = 'm_saltmon',
(PID.TID 0000.0001) >  gencost_datafile(8) = 'S_monthly_woa09_highlatnearsurface_masked',
(PID.TID 0000.0001) >  gencost_errfile(8) = 'Salt_sigma_smoothed_method_02_masked_merged_capped_areascaled.bin',
(PID.TID 0000.0001) >#  gencost_name(8) = 'saltclim',
(PID.TID 0000.0001) >  gencost_name(8) = 'saltmean',
(PID.TID 0000.0001) >  gencost_spmin(8) = 25.,
(PID.TID 0000.0001) >  gencost_spmax(8) = 40.,
(PID.TID 0000.0001) >  gencost_spzero(8) = 0.,
(PID.TID 0000.0001) >  gencost_is3d(8)=.TRUE.,
(PID.TID 0000.0001) >  gencost_preproc(1,8)='mean',
(PID.TID 0000.0001) >  gencost_outputlevel(8)=1,
(PID.TID 0000.0001) >  mult_gencost(8) = 1.,
(PID.TID 0000.0001) >#
(PID.TID 0000.0001) > gencost_datafile(11) = 'mdt2_dtu17.bin',
(PID.TID 0000.0001) > gencost_startdate1(11) = 19930101,
(PID.TID 0000.0001) > gencost_startdate2(11) = 00000,
(PID.TID 0000.0001) > gencost_enddate1(11) = 20171231,
(PID.TID 0000.0001) > gencost_enddate2(11) = 00000,
(PID.TID 0000.0001) > gencost_errfile(11) = 'mdt_dtu13_error_m_areascaled.bin',
(PID.TID 0000.0001) > gencost_name(11) = 'sshv4-mdt',
(PID.TID 0000.0001) > gencost_posproc(1,11)='smooth',
(PID.TID 0000.0001) > gencost_posproc_c(1,11)='sshv4_scale_1p5points.bin',
(PID.TID 0000.0001) > gencost_posproc_i(1,11)=300,
(PID.TID 0000.0001) > gencost_outputlevel(11)=1,
(PID.TID 0000.0001) > mult_gencost(11) = 1.,
(PID.TID 0000.0001) >#
(PID.TID 0000.0001) > gencost_barfile(12) = 'm_eta_dynday',
(PID.TID 0000.0001) > gencost_datafile(12) = 'RADS_TJ_mar2018',
(PID.TID 0000.0001) > gencost_startdate1(12) = 19920101,
(PID.TID 0000.0001) > gencost_startdate2(12) = 00000,
(PID.TID 0000.0001) > gencost_avgperiod(12)  = 'day',
(PID.TID 0000.0001) > gencost_errfile(12) = 'slaerr_gridscale_r5_areascaled.err',
(PID.TID 0000.0001) > gencost_name(12) = 'sshv4-tp',
(PID.TID 0000.0001) > gencost_outputlevel(12)=1,
(PID.TID 0000.0001) > mult_gencost(12) = 0.,
(PID.TID 0000.0001) >#
(PID.TID 0000.0001) > gencost_datafile(13) = 'RADS_ERS_ENV_SA_mar2018',
(PID.TID 0000.0001) > gencost_startdate1(13) = 19920101,
(PID.TID 0000.0001) > gencost_startdate2(13) = 00000,
(PID.TID 0000.0001) > gencost_avgperiod(13)  = 'day',
(PID.TID 0000.0001) > gencost_errfile(13) = 'slaerr_gridscale_r5_areascaled.err',
(PID.TID 0000.0001) > gencost_name(13) = 'sshv4-ers',
(PID.TID 0000.0001) > gencost_outputlevel(13)=1,
(PID.TID 0000.0001) > mult_gencost(13) = 0.,
(PID.TID 0000.0001) >#
(PID.TID 0000.0001) > gencost_datafile(14) = 'RADS_GFO_C2_mar2018',
(PID.TID 0000.0001) > gencost_startdate1(14) = 19920101,
(PID.TID 0000.0001) > gencost_startdate2(14) = 00000,
(PID.TID 0000.0001) > gencost_avgperiod(14)  = 'day',
(PID.TID 0000.0001) > gencost_errfile(14) = 'slaerr_gridscale_r5_areascaled.err',
(PID.TID 0000.0001) > gencost_name(14) = 'sshv4-gfo',
(PID.TID 0000.0001) > gencost_outputlevel(14)=1,
(PID.TID 0000.0001) > mult_gencost(14) = 0.,
(PID.TID 0000.0001) >#
(PID.TID 0000.0001) > gencost_errfile(15) = 'slaerr_largescale_r5_areascaled.err',
(PID.TID 0000.0001) > gencost_name(15) = 'sshv4-lsc',
(PID.TID 0000.0001) >#gencost_scalefile(15) = 'sshv4_scale_3points.bin',
(PID.TID 0000.0001) > gencost_posproc(1,15)='smooth',
(PID.TID 0000.0001) > gencost_posproc_c(1,15)='sshv4_scale_3points.bin',
(PID.TID 0000.0001) > gencost_posproc_i(1,15)=300,
(PID.TID 0000.0001) > gencost_outputlevel(15)=1,
(PID.TID 0000.0001) > mult_gencost(15) = 0.001,
(PID.TID 0000.0001) >#
(PID.TID 0000.0001) >#gencost_name(16) = 'sshv4-gmsl',
(PID.TID 0000.0001) >#gencost_outputlevel(16)=1,
(PID.TID 0000.0001) >#mult_gencost(16) = 0.,
(PID.TID 0000.0001) >#
(PID.TID 0000.0001) >  gencost_avgperiod(17)  = 'month',
(PID.TID 0000.0001) >  gencost_barfile(17) = 'm_thetamon',
(PID.TID 0000.0001) >  gencost_datafile(17) = 'T_monthly_woa09_highlatnearsurface_masked',
(PID.TID 0000.0001) >  gencost_errfile(17) = 'Theta_sigma_smoothed_method_02_masked_merged_capped_areascaled.bin',
(PID.TID 0000.0001) >#  gencost_name(17) = 'thetaclim',
(PID.TID 0000.0001) >  gencost_name(17) = 'thetaanom',
(PID.TID 0000.0001) >  gencost_spmin(17) = -1.8,
(PID.TID 0000.0001) >  gencost_spmax(17) = 40.,
(PID.TID 0000.0001) >  gencost_spzero(17) = 0.,
(PID.TID 0000.0001) >  gencost_is3d(17)=.TRUE.,
(PID.TID 0000.0001) >  gencost_preproc(1,17)='clim',
(PID.TID 0000.0001) >  gencost_preproc_i(1,17)=12,
(PID.TID 0000.0001) >  gencost_preproc(2,17)='anom',
(PID.TID 0000.0001) >  gencost_outputlevel(17)=1,
(PID.TID 0000.0001) >  mult_gencost(17) = 1.,
(PID.TID 0000.0001) >#
(PID.TID 0000.0001) >  gencost_avgperiod(18)  = 'month',
(PID.TID 0000.0001) >  gencost_barfile(18) = 'm_saltmon',
(PID.TID 0000.0001) >  gencost_datafile(18) = 'S_monthly_woa09_highlatnearsurface_masked',
(PID.TID 0000.0001) >  gencost_errfile(18) = 'Salt_sigma_smoothed_method_02_masked_merged_capped_areascaled.bin',
(PID.TID 0000.0001) >#  gencost_name(18) = 'saltclim',
(PID.TID 0000.0001) >  gencost_name(18) = 'saltanom',
(PID.TID 0000.0001) >  gencost_spmin(18) = 25.,
(PID.TID 0000.0001) >  gencost_spmax(18) = 40.,
(PID.TID 0000.0001) >  gencost_spzero(18) = 0.,
(PID.TID 0000.0001) >  gencost_is3d(18)=.TRUE.,
(PID.TID 0000.0001) >  gencost_preproc(1,18)='clim',
(PID.TID 0000.0001) >  gencost_preproc_i(1,18)=12,
(PID.TID 0000.0001) >  gencost_preproc(2,18)='anom',
(PID.TID 0000.0001) >  gencost_outputlevel(18)=1,
(PID.TID 0000.0001) >  mult_gencost(18) = 1.,
(PID.TID 0000.0001) >#
(PID.TID 0000.0001) >  gencost_avgperiod(19)  = 'month',
(PID.TID 0000.0001) >  gencost_barfile(19) = 'm_sssmon',
(PID.TID 0000.0001) >  gencost_datafile(19) = 'monthlyL3v5_20180129',
(PID.TID 0000.0001) >  gencost_errfile(19) = 'errStdAQ_v3_llc_090_floored_areascaled',
(PID.TID 0000.0001) >  gencost_name(19) = 'sss_AQanom',
(PID.TID 0000.0001) >  gencost_spmin(19) = 25.,
(PID.TID 0000.0001) >  gencost_spmax(19) = 40.,
(PID.TID 0000.0001) >  gencost_spzero(19) = 0.,
(PID.TID 0000.0001) >  gencost_preproc(1,19) = 'anom',
(PID.TID 0000.0001) ># gencost_is3d(19)=.TRUE.,
(PID.TID 0000.0001) >  gencost_outputlevel(19)=1,
(PID.TID 0000.0001) >  mult_gencost(19) = 1.,
(PID.TID 0000.0001) >#
(PID.TID 0000.0001) >  gencost_avgperiod(20)  = 'month',
(PID.TID 0000.0001) >  gencost_barfile(20) = 'm_sssmon',
(PID.TID 0000.0001) >  gencost_datafile(20) = 'monthlyL3v5_20180129',
(PID.TID 0000.0001) >  gencost_errfile(20) = 'biasStdAQ_v3_llc_090_floored_areascaled',
(PID.TID 0000.0001) >  gencost_name(20) = 'sss_AQmean',
(PID.TID 0000.0001) >  gencost_spmin(20) = 25.,
(PID.TID 0000.0001) >  gencost_spmax(20) = 40.,
(PID.TID 0000.0001) >  gencost_spzero(20) = 0.,
(PID.TID 0000.0001) >  gencost_preproc(1,20) = 'mean',
(PID.TID 0000.0001) ># gencost_is3d(20)=.TRUE.,
(PID.TID 0000.0001) >  gencost_outputlevel(20)=1,
(PID.TID 0000.0001) >  mult_gencost(20) = 1.,
(PID.TID 0000.0001) >#
(PID.TID 0000.0001) >  gencost_avgperiod(21)  = 'month',
(PID.TID 0000.0001) >  gencost_barfile(21) = 'm_bp_nopabarmon',
(PID.TID 0000.0001) >  gencost_datafile(21) = 'GRACE_jpl_rl05m_20180122_SpatialMean.asc',
(PID.TID 0000.0001) >  gencost_name(21) = 'gmbp',
(PID.TID 0000.0001) >  gencost_wei1d(21) = 0.1583,
(PID.TID 0000.0001) >  gencost_spmin(21) = -990.,
(PID.TID 0000.0001) >  gencost_spmax(21) = 990.,
(PID.TID 0000.0001) >  gencost_spzero(21) = 0.,
(PID.TID 0000.0001) >  gencost_is1d(21)=.TRUE.,
(PID.TID 0000.0001) >  gencost_outputlevel(21)=1,
(PID.TID 0000.0001) >  mult_gencost(21) = 1.,
(PID.TID 0000.0001) >#
(PID.TID 0000.0001) >  gencost_avgperiod(22)  = 'month',
(PID.TID 0000.0001) >  gencost_barfile(22) = 'm_eta_dynmon',
(PID.TID 0000.0001) >  gencost_datafile(22) = '20180228_ensemble_average_gmsl_ref.asc',
(PID.TID 0000.0001) >  gencost_name(22) = 'gmsl',
(PID.TID 0000.0001) >  gencost_wei1d(22) = 0.00382,
(PID.TID 0000.0001) >  gencost_spmin(22) = -990.,
(PID.TID 0000.0001) >  gencost_spmax(22) = 990.,
(PID.TID 0000.0001) >  gencost_spzero(22) = 0.,
(PID.TID 0000.0001) >  gencost_is1d(22)=.TRUE.,
(PID.TID 0000.0001) >  gencost_outputlevel(22)=1,
(PID.TID 0000.0001) >  mult_gencost(22) = 1.,
(PID.TID 0000.0001) >#
(PID.TID 0000.0001) >  gencost_barfile(27) = 'm_etaday',
(PID.TID 0000.0001) >  gencost_datafile(27) = 'RADS_TJ_mar2018',
(PID.TID 0000.0001) >  gencost_startdate1(27) = 19920101,
(PID.TID 0000.0001) >  gencost_startdate2(27) = 00000,
(PID.TID 0000.0001) >  gencost_avgperiod(27)  = 'day',
(PID.TID 0000.0001) >  gencost_errfile(27) = 'slaerr_gridscale_r5_areascaled.err',
(PID.TID 0000.0001) >  gencost_spmin(27) = -990.,
(PID.TID 0000.0001) >  gencost_spmax(27) = 990.,
(PID.TID 0000.0001) >  gencost_spzero(27) = 0.,
(PID.TID 0000.0001) >  gencost_outputlevel(27)=1,
(PID.TID 0000.0001) >  mult_gencost(27) = 0.,
(PID.TID 0000.0001) >#
(PID.TID 0000.0001) >  gencost_avgperiod(28)  = 'month',
(PID.TID 0000.0001) >  gencost_barfile(28) = 'm_etamon',
(PID.TID 0000.0001) >  gencost_datafile(28) = '20180228_ensemble_average_gmsl_ref.asc',
(PID.TID 0000.0001) >  gencost_wei1d(28) = 0.00382,
(PID.TID 0000.0001) >  gencost_spmin(28) = -990.,
(PID.TID 0000.0001) >  gencost_spmax(28) = 990.,
(PID.TID 0000.0001) >  gencost_spzero(28) = 0.,
(PID.TID 0000.0001) >  gencost_is1d(28)=.TRUE.,
(PID.TID 0000.0001) >  gencost_outputlevel(28)=1,
(PID.TID 0000.0001) >  mult_gencost(28) = 0.,
(PID.TID 0000.0001) >#
(PID.TID 0000.0001) >  gencost_avgperiod(29)  = 'month',
(PID.TID 0000.0001) >  gencost_barfile(29) = 'm_bpmon',
(PID.TID 0000.0001) >  gencost_datafile(29) = 'GRACE_jpl_rl05m_20180122_SpatialMean.asc',
(PID.TID 0000.0001) >  gencost_wei1d(29) = 0.1583,
(PID.TID 0000.0001) >  gencost_spmin(29) = -990.,
(PID.TID 0000.0001) >  gencost_spmax(29) = 990.,
(PID.TID 0000.0001) >  gencost_spzero(29) = 0.,
(PID.TID 0000.0001) >  gencost_is1d(29)=.TRUE.,
(PID.TID 0000.0001) >  gencost_outputlevel(29)=1,
(PID.TID 0000.0001) >  mult_gencost(29) = 0.,
(PID.TID 0000.0001) >#
(PID.TID 0000.0001) >  gencost_avgperiod(30)  = 'day',
(PID.TID 0000.0001) >  gencost_barfile(30) = 'm_bpday',
(PID.TID 0000.0001) >  gencost_datafile(30) = 'GRACE_fake_daily',
(PID.TID 0000.0001) >  gencost_errfile(30) = 'GRACE_jpl_rl05m_20180122_err_areascaled',
(PID.TID 0000.0001) >  gencost_spmin(30) = -990.,
(PID.TID 0000.0001) >  gencost_spmax(30) = 990.,
(PID.TID 0000.0001) >  gencost_spzero(30) = 0.,
(PID.TID 0000.0001) >  gencost_outputlevel(30)=1,
(PID.TID 0000.0001) >  mult_gencost(30) = 0.,
(PID.TID 0000.0001) >#
(PID.TID 0000.0001) >  gencost_avgperiod(31)  = 'day',
(PID.TID 0000.0001) >  gencost_barfile(31) = 'm_bp_nopabarday',
(PID.TID 0000.0001) >  gencost_datafile(31) = 'GRACE_fake_daily'
(PID.TID 0000.0001) >  gencost_errfile(31) = 'GRACE_jpl_rl05m_20180122_err_areascaled',
(PID.TID 0000.0001) >  gencost_spmin(31) = -990.,
(PID.TID 0000.0001) >  gencost_spmax(31) = 990.,
(PID.TID 0000.0001) >  gencost_spzero(31) = 0.,
(PID.TID 0000.0001) >  gencost_outputlevel(31)=1,
(PID.TID 0000.0001) >  mult_gencost(31) = 0.,
(PID.TID 0000.0001) > /
(PID.TID 0000.0001) >#
(PID.TID 0000.0001) 
(PID.TID 0000.0001) ECCO_READPARMS: finished reading #1: ecco_cost_nml
(PID.TID 0000.0001) ECCO_READPARMS: finished reading #2: ecco_gencost_nml
(PID.TID 0000.0001) ECCO_READPARMS: done
(PID.TID 0000.0001) PROFILES_READPARMS: opening data.profiles
(PID.TID 0000.0001)  OPEN_COPY_DATA_FILE: opening file data.profiles
(PID.TID 0000.0001) // =======================================================
(PID.TID 0000.0001) // Parameter file "data.profiles"
(PID.TID 0000.0001) // =======================================================
(PID.TID 0000.0001) >#
(PID.TID 0000.0001) ># ******************
(PID.TID 0000.0001) ># PROFILES cost function
(PID.TID 0000.0001) ># ******************
(PID.TID 0000.0001) > &PROFILES_NML
(PID.TID 0000.0001) >#
(PID.TID 0000.0001) > profilesDir='profiles',
(PID.TID 0000.0001) > profilesDoGenGrid=.TRUE.,
(PID.TID 0000.0001) >#
(PID.TID 0000.0001) > profiles_mean_indsamples(1) = 9,
(PID.TID 0000.0001) > profiles_mean_indsamples(2) = 9,
(PID.TID 0000.0001) >
(PID.TID 0000.0001) > profilesfiles(1)= 'ARGO_20190131_95to13',
(PID.TID 0000.0001) > profilesfiles(2)= 'ARGO_20190131_14to17',
(PID.TID 0000.0001) > profilesfiles(3)= 'APB_20190131_97to04',
(PID.TID 0000.0001) > profilesfiles(4)= 'CTD_20190131_92to05',
(PID.TID 0000.0001) > profilesfiles(5)= 'GLD_20190131_02to11',
(PID.TID 0000.0001) > profilesfiles(6)= 'GLD_20190131_12to13',
(PID.TID 0000.0001) > profilesfiles(7)= 'GLD_20190131_14to15',
(PID.TID 0000.0001) > profilesfiles(8)= 'MRB_20190131_92to03',
(PID.TID 0000.0001) > profilesfiles(9)= 'MRB_20190131_04to04',
(PID.TID 0000.0001) > profilesfiles(10)= 'XBT_20190131_92to05',
(PID.TID 0000.0001) > profilesfiles(11)= 'XBT_20190131_06to17',
(PID.TID 0000.0001) > profilesfiles(12)= 'ITP_20190131_04to13',
(PID.TID 0000.0001) >#profilesfiles(13)= 'beaufortgyremooring_GAMMA_20150915',
(PID.TID 0000.0001) >#profilesfiles(14)= 'beringstraitmooring_GAMMA_20150915',
(PID.TID 0000.0001) >#profilesfiles(15)= 'framstraitmooring_GAMMA_20150915',
(PID.TID 0000.0001) >#profilesfiles(16)= 'climode_GAMMA_20150915',
(PID.TID 0000.0001) >#profilesfiles(17)= 'davisstraitmooring_GAMMA_20150915',
(PID.TID 0000.0001) > profilesfiles(18)= 'GLD_20190131_16to17',
(PID.TID 0000.0001) > profilesfiles(19)= 'GOSHIP_20190131_92to17',
(PID.TID 0000.0001) > profilesfiles(20)= 'MRB_20190131_05to05',
(PID.TID 0000.0001) > profilesfiles(21)= 'MRB_20190131_06to17',
(PID.TID 0000.0001) > profilesfiles(22)= 'CTD_20190131_06to17',
(PID.TID 0000.0001) > profilesfiles(23)= 'ITP_20190131_14to17',
(PID.TID 0000.0001) > profilesfiles(24)= 'APB_20190131_05to05',
(PID.TID 0000.0001) > profilesfiles(25)= 'APB_20190131_06to06',
(PID.TID 0000.0001) > profilesfiles(26)= 'APB_20190131_07to07',
(PID.TID 0000.0001) > profilesfiles(27)= 'APB_20190131_08to09',
(PID.TID 0000.0001) > profilesfiles(28)= 'APB_20190131_10to17',
(PID.TID 0000.0001) > profilesfiles(29)= 'CCHDO_20190131_92to17',
(PID.TID 0000.0001) >#
(PID.TID 0000.0001) > mult_profiles_mean(1)   = 1.,
(PID.TID 0000.0001) > mult_profiles_mean(2)   = 1.,
(PID.TID 0000.0001) >
(PID.TID 0000.0001) > mult_profiles(1,1)   = 1.,
(PID.TID 0000.0001) > mult_profiles(1,2)   = 1.,
(PID.TID 0000.0001) > mult_profiles(2,1)   = 1.,
(PID.TID 0000.0001) > mult_profiles(2,2)   = 1.,
(PID.TID 0000.0001) > mult_profiles(3,1)   = 1.,
(PID.TID 0000.0001) > mult_profiles(3,2)   = 1.,
(PID.TID 0000.0001) > mult_profiles(4,1)   = 1.,
(PID.TID 0000.0001) > mult_profiles(4,2)   = 1.,
(PID.TID 0000.0001) > mult_profiles(5,1)   = 1.,
(PID.TID 0000.0001) > mult_profiles(5,2)   = 1.,
(PID.TID 0000.0001) > mult_profiles(6,1)   = 1.,
(PID.TID 0000.0001) > mult_profiles(6,2)   = 1.,
(PID.TID 0000.0001) > mult_profiles(7,1)   = 1.,
(PID.TID 0000.0001) > mult_profiles(7,2)   = 1.,
(PID.TID 0000.0001) > mult_profiles(8,1)   = 1.,
(PID.TID 0000.0001) > mult_profiles(8,2)   = 1.,
(PID.TID 0000.0001) > mult_profiles(9,1)   = 1.,
(PID.TID 0000.0001) > mult_profiles(9,2)   = 1.,
(PID.TID 0000.0001) > mult_profiles(10,1)   = 1.,
(PID.TID 0000.0001) > mult_profiles(10,2)   = 1.,
(PID.TID 0000.0001) > mult_profiles(11,1)   = 1.,
(PID.TID 0000.0001) > mult_profiles(11,2)   = 1.,
(PID.TID 0000.0001) > mult_profiles(12,1)   = 1.,
(PID.TID 0000.0001) > mult_profiles(12,2)   = 1.,
(PID.TID 0000.0001) > mult_profiles(13,1)   = 0.2,
(PID.TID 0000.0001) > mult_profiles(13,2)   = 0.2,
(PID.TID 0000.0001) > mult_profiles(14,1)   = 1.,
(PID.TID 0000.0001) > mult_profiles(14,2)   = 1.,
(PID.TID 0000.0001) > mult_profiles(15,1)   = 0.013,
(PID.TID 0000.0001) > mult_profiles(15,2)   = 0.013,
(PID.TID 0000.0001) > mult_profiles(16,1)   = 1.,
(PID.TID 0000.0001) > mult_profiles(16,2)   = 1.,
(PID.TID 0000.0001) > mult_profiles(17,1)   = 0.0165,
(PID.TID 0000.0001) > mult_profiles(17,2)   = 0.0165,
(PID.TID 0000.0001) > mult_profiles(18,1)   = 1.,
(PID.TID 0000.0001) > mult_profiles(18,2)   = 1.,
(PID.TID 0000.0001) > mult_profiles(19,1)   = 1.,
(PID.TID 0000.0001) > mult_profiles(19,2)   = 1.,
(PID.TID 0000.0001) > mult_profiles(20,1)   = 1.,
(PID.TID 0000.0001) > mult_profiles(20,2)   = 1.,
(PID.TID 0000.0001) > mult_profiles(21,1)   = 1.,
(PID.TID 0000.0001) > mult_profiles(21,2)   = 1.,
(PID.TID 0000.0001) > mult_profiles(22,1)   = 1.,
(PID.TID 0000.0001) > mult_profiles(22,2)   = 1.,
(PID.TID 0000.0001) > mult_profiles(23,1)   = 1.,
(PID.TID 0000.0001) > mult_profiles(23,2)   = 1.,
(PID.TID 0000.0001) > mult_profiles(24,1)   = 1.,
(PID.TID 0000.0001) > mult_profiles(24,2)   = 1.,
(PID.TID 0000.0001) > mult_profiles(25,1)   = 1.,
(PID.TID 0000.0001) > mult_profiles(25,2)   = 1.,
(PID.TID 0000.0001) > mult_profiles(26,1)   = 1.,
(PID.TID 0000.0001) > mult_profiles(26,2)   = 1.,
(PID.TID 0000.0001) > mult_profiles(27,1)   = 1.,
(PID.TID 0000.0001) > mult_profiles(27,2)   = 1.,
(PID.TID 0000.0001) > mult_profiles(28,1)   = 1.,
(PID.TID 0000.0001) > mult_profiles(28,2)   = 1.,
(PID.TID 0000.0001) > mult_profiles(29,1)   = 1.,
(PID.TID 0000.0001) > mult_profiles(29,2)   = 1.,
(PID.TID 0000.0001) >
(PID.TID 0000.0001) >#
(PID.TID 0000.0001) > /
(PID.TID 0000.0001) 
(PID.TID 0000.0001) PROFILES_READPARMS: finished reading data.profiles
(PID.TID 0000.0001)  SBO_READPARMS: opening data.sbo
(PID.TID 0000.0001)  OPEN_COPY_DATA_FILE: opening file data.sbo
(PID.TID 0000.0001) // =======================================================
(PID.TID 0000.0001) // Parameter file "data.sbo"
(PID.TID 0000.0001) // =======================================================
(PID.TID 0000.0001) >#
(PID.TID 0000.0001) ># *******************
(PID.TID 0000.0001) ># SBO Parameters
(PID.TID 0000.0001) ># *******************
(PID.TID 0000.0001) > &SBO_PARM01
(PID.TID 0000.0001) > /
(PID.TID 0000.0001) 
(PID.TID 0000.0001)  SBO_READPARMS: finished reading data.sbo
(PID.TID 0000.0001)  DIAGNOSTICS_READPARMS: opening data.diagnostics
(PID.TID 0000.0001)  OPEN_COPY_DATA_FILE: opening file data.diagnostics
(PID.TID 0000.0001) // =======================================================
(PID.TID 0000.0001) // Parameter file "data.diagnostics"
(PID.TID 0000.0001) // =======================================================
(PID.TID 0000.0001) ># Diagnostic Package Choices
(PID.TID 0000.0001) >#-----------------
(PID.TID 0000.0001) ># for each output-stream:
(PID.TID 0000.0001) >#  filename(n) : prefix of the output file name (only 8.c long) for outp.stream n
(PID.TID 0000.0001) >#  frequency(n):< 0 : write snap-shot output every multiple of |frequency| (iter)
(PID.TID 0000.0001) >#               > 0 : write time-average output every multiple of frequency (iter)
(PID.TID 0000.0001) >#  levels(:,n) : list of levels to write to file (Notes: declared as REAL)
(PID.TID 0000.0001) >#                 when this entry is missing, select all common levels of this list
(PID.TID 0000.0001) >#  fields(:,n) : list of diagnostics fields (8.c) (see "available_diagnostics" file
(PID.TID 0000.0001) >#                 for the list of all available diag. in this particular config)
(PID.TID 0000.0001) >#--------------------------------------------------------------------
(PID.TID 0000.0001) >#
(PID.TID 0000.0001) > &diagnostics_list
(PID.TID 0000.0001) >#
(PID.TID 0000.0001) >    dumpatlast = .TRUE.,
(PID.TID 0000.0001) >#---
(PID.TID 0000.0001) > frequency(1) = 2635200.0,
(PID.TID 0000.0001) > fields(1,1) = 'ADVr_SLT',
(PID.TID 0000.0001) > filename(1) = 'diags/ADVr_SLT_mon_mean/ADVr_SLT_mon_mean',
(PID.TID 0000.0001) >#---
(PID.TID 0000.0001) > frequency(2) = 2635200.0,
(PID.TID 0000.0001) > fields(1,2) = 'ADVr_TH',
(PID.TID 0000.0001) > filename(2) = 'diags/ADVr_TH_mon_mean/ADVr_TH_mon_mean',
(PID.TID 0000.0001) >#---
(PID.TID 0000.0001) > frequency(3) = 2635200.0,
(PID.TID 0000.0001) > fields(1,3) = 'ADVxHEFF',
(PID.TID 0000.0001) > filename(3) = 'diags/ADVxHEFF_mon_mean/ADVxHEFF_mon_mean',
(PID.TID 0000.0001) >#---
(PID.TID 0000.0001) > frequency(4) = 2635200.0,
(PID.TID 0000.0001) > fields(1,4) = 'ADVx_SLT',
(PID.TID 0000.0001) > filename(4) = 'diags/ADVx_SLT_mon_mean/ADVx_SLT_mon_mean',
(PID.TID 0000.0001) >#---
(PID.TID 0000.0001) > frequency(5) = 2635200.0,
(PID.TID 0000.0001) > fields(1,5) = 'ADVxSNOW',
(PID.TID 0000.0001) > filename(5) = 'diags/ADVxSNOW_mon_mean/ADVxSNOW_mon_mean',
(PID.TID 0000.0001) >#---
(PID.TID 0000.0001) > frequency(6) = 2635200.0,
(PID.TID 0000.0001) > fields(1,6) = 'ADVx_TH',
(PID.TID 0000.0001) > filename(6) = 'diags/ADVx_TH_mon_mean/ADVx_TH_mon_mean',
(PID.TID 0000.0001) >#---
(PID.TID 0000.0001) > frequency(7) = 2635200.0,
(PID.TID 0000.0001) > fields(1,7) = 'ADVyHEFF',
(PID.TID 0000.0001) > filename(7) = 'diags/ADVyHEFF_mon_mean/ADVyHEFF_mon_mean',
(PID.TID 0000.0001) >#---
(PID.TID 0000.0001) > frequency(8) = 2635200.0,
(PID.TID 0000.0001) > fields(1,8) = 'ADVy_SLT',
(PID.TID 0000.0001) > filename(8) = 'diags/ADVy_SLT_mon_mean/ADVy_SLT_mon_mean',
(PID.TID 0000.0001) >#---
(PID.TID 0000.0001) > frequency(9) = 2635200.0,
(PID.TID 0000.0001) > fields(1,9) = 'ADVySNOW',
(PID.TID 0000.0001) > filename(9) = 'diags/ADVySNOW_mon_mean/ADVySNOW_mon_mean',
(PID.TID 0000.0001) >#---
(PID.TID 0000.0001) > frequency(10) = 2635200.0,
(PID.TID 0000.0001) > fields(1,10) = 'ADVy_TH',
(PID.TID 0000.0001) > filename(10) = 'diags/ADVy_TH_mon_mean/ADVy_TH_mon_mean',
(PID.TID 0000.0001) >#---
(PID.TID 0000.0001) > frequency(11) = 2635200.0,
(PID.TID 0000.0001) > fields(1,11) = 'DFrE_SLT',
(PID.TID 0000.0001) > filename(11) = 'diags/DFrE_SLT_mon_mean/DFrE_SLT_mon_mean',
(PID.TID 0000.0001) >#---
(PID.TID 0000.0001) > frequency(12) = 2635200.0,
(PID.TID 0000.0001) > fields(1,12) = 'DFrE_TH',
(PID.TID 0000.0001) > filename(12) = 'diags/DFrE_TH_mon_mean/DFrE_TH_mon_mean',
(PID.TID 0000.0001) >#---
(PID.TID 0000.0001) > frequency(13) = 2635200.0,
(PID.TID 0000.0001) > fields(1,13) = 'DFrI_SLT',
(PID.TID 0000.0001) > filename(13) = 'diags/DFrI_SLT_mon_mean/DFrI_SLT_mon_mean',
(PID.TID 0000.0001) >#---
(PID.TID 0000.0001) > frequency(14) = 2635200.0,
(PID.TID 0000.0001) > fields(1,14) = 'DFrI_TH',
(PID.TID 0000.0001) > filename(14) = 'diags/DFrI_TH_mon_mean/DFrI_TH_mon_mean',
(PID.TID 0000.0001) >#---
(PID.TID 0000.0001) > frequency(15) = 2635200.0,
(PID.TID 0000.0001) > fields(1,15) = 'DFxEHEFF',
(PID.TID 0000.0001) > filename(15) = 'diags/DFxEHEFF_mon_mean/DFxEHEFF_mon_mean',
(PID.TID 0000.0001) >#---
(PID.TID 0000.0001) > frequency(16) = 2635200.0,
(PID.TID 0000.0001) > fields(1,16) = 'DFxE_SLT',
(PID.TID 0000.0001) > filename(16) = 'diags/DFxE_SLT_mon_mean/DFxE_SLT_mon_mean',
(PID.TID 0000.0001) >#---
(PID.TID 0000.0001) > frequency(17) = 2635200.0,
(PID.TID 0000.0001) > fields(1,17) = 'DFxESNOW',
(PID.TID 0000.0001) > filename(17) = 'diags/DFxESNOW_mon_mean/DFxESNOW_mon_mean',
(PID.TID 0000.0001) >#---
(PID.TID 0000.0001) > frequency(18) = 2635200.0,
(PID.TID 0000.0001) > fields(1,18) = 'DFxE_TH',
(PID.TID 0000.0001) > filename(18) = 'diags/DFxE_TH_mon_mean/DFxE_TH_mon_mean',
(PID.TID 0000.0001) >#---
(PID.TID 0000.0001) > frequency(19) = 2635200.0,
(PID.TID 0000.0001) > fields(1,19) = 'DFyEHEFF',
(PID.TID 0000.0001) > filename(19) = 'diags/DFyEHEFF_mon_mean/DFyEHEFF_mon_mean',
(PID.TID 0000.0001) >#---
(PID.TID 0000.0001) > frequency(20) = 2635200.0,
(PID.TID 0000.0001) > fields(1,20) = 'DFyE_SLT',
(PID.TID 0000.0001) > filename(20) = 'diags/DFyE_SLT_mon_mean/DFyE_SLT_mon_mean',
(PID.TID 0000.0001) >#---
(PID.TID 0000.0001) > frequency(21) = 2635200.0,
(PID.TID 0000.0001) > fields(1,21) = 'DFyESNOW',
(PID.TID 0000.0001) > filename(21) = 'diags/DFyESNOW_mon_mean/DFyESNOW_mon_mean',
(PID.TID 0000.0001) >#---
(PID.TID 0000.0001) > frequency(22) = 2635200.0,
(PID.TID 0000.0001) > fields(1,22) = 'DFyE_TH',
(PID.TID 0000.0001) > filename(22) = 'diags/DFyE_TH_mon_mean/DFyE_TH_mon_mean',
(PID.TID 0000.0001) >#---
(PID.TID 0000.0001) > frequency(23) = 2635200.0,
(PID.TID 0000.0001) > fields(1,23) = 'DRHODR',
(PID.TID 0000.0001) > filename(23) = 'diags/DRHODR_mon_mean/DRHODR_mon_mean',
(PID.TID 0000.0001) >#---
(PID.TID 0000.0001) > frequency(24) = 2635200.0,
(PID.TID 0000.0001) > fields(1,24) = 'ETAN',
(PID.TID 0000.0001) > filename(24) = 'diags/ETAN_mon_mean/ETAN_mon_mean',
(PID.TID 0000.0001) >#---
(PID.TID 0000.0001) > frequency(25) = 2635200.0,
(PID.TID 0000.0001) > fields(1,25) = 'EXFaqh',
(PID.TID 0000.0001) > filename(25) = 'diags/EXFaqh_mon_mean/EXFaqh_mon_mean',
(PID.TID 0000.0001) >#---
(PID.TID 0000.0001) > frequency(26) = 2635200.0,
(PID.TID 0000.0001) > fields(1,26) = 'EXFatemp',
(PID.TID 0000.0001) > filename(26) = 'diags/EXFatemp_mon_mean/EXFatemp_mon_mean',
(PID.TID 0000.0001) >#---
(PID.TID 0000.0001) > frequency(27) = 2635200.0,
(PID.TID 0000.0001) > fields(1,27) = 'EXFempmr',
(PID.TID 0000.0001) > filename(27) = 'diags/EXFempmr_mon_mean/EXFempmr_mon_mean',
(PID.TID 0000.0001) >#---
(PID.TID 0000.0001) > frequency(28) = 2635200.0,
(PID.TID 0000.0001) > fields(1,28) = 'EXFevap',
(PID.TID 0000.0001) > filename(28) = 'diags/EXFevap_mon_mean/EXFevap_mon_mean',
(PID.TID 0000.0001) >#---
(PID.TID 0000.0001) > frequency(29) = 2635200.0,
(PID.TID 0000.0001) > fields(1,29) = 'EXFhl',
(PID.TID 0000.0001) > filename(29) = 'diags/EXFhl_mon_mean/EXFhl_mon_mean',
(PID.TID 0000.0001) >#---
(PID.TID 0000.0001) > frequency(30) = 2635200.0,
(PID.TID 0000.0001) > fields(1,30) = 'EXFhs',
(PID.TID 0000.0001) > filename(30) = 'diags/EXFhs_mon_mean/EXFhs_mon_mean',
(PID.TID 0000.0001) >#---
(PID.TID 0000.0001) > frequency(31) = 2635200.0,
(PID.TID 0000.0001) > fields(1,31) = 'EXFlwdn',
(PID.TID 0000.0001) > filename(31) = 'diags/EXFlwdn_mon_mean/EXFlwdn_mon_mean',
(PID.TID 0000.0001) >#---
(PID.TID 0000.0001) > frequency(32) = 2635200.0,
(PID.TID 0000.0001) > fields(1,32) = 'EXFlwnet',
(PID.TID 0000.0001) > filename(32) = 'diags/EXFlwnet_mon_mean/EXFlwnet_mon_mean',
(PID.TID 0000.0001) >#---
(PID.TID 0000.0001) > frequency(33) = 2635200.0,
(PID.TID 0000.0001) > fields(1,33) = 'EXFpreci',
(PID.TID 0000.0001) > filename(33) = 'diags/EXFpreci_mon_mean/EXFpreci_mon_mean',
(PID.TID 0000.0001) >#---
(PID.TID 0000.0001) > frequency(34) = 2635200.0,
(PID.TID 0000.0001) > fields(1,34) = 'EXFqnet',
(PID.TID 0000.0001) > filename(34) = 'diags/EXFqnet_mon_mean/EXFqnet_mon_mean',
(PID.TID 0000.0001) >#---
(PID.TID 0000.0001) > frequency(35) = 2635200.0,
(PID.TID 0000.0001) > fields(1,35) = 'EXFroff',
(PID.TID 0000.0001) > filename(35) = 'diags/EXFroff_mon_mean/EXFroff_mon_mean',
(PID.TID 0000.0001) >#---
(PID.TID 0000.0001) > frequency(36) = 2635200.0,
(PID.TID 0000.0001) > fields(1,36) = 'EXFswdn',
(PID.TID 0000.0001) > filename(36) = 'diags/EXFswdn_mon_mean/EXFswdn_mon_mean',
(PID.TID 0000.0001) >#---
(PID.TID 0000.0001) > frequency(37) = 2635200.0,
(PID.TID 0000.0001) > fields(1,37) = 'EXFswnet',
(PID.TID 0000.0001) > filename(37) = 'diags/EXFswnet_mon_mean/EXFswnet_mon_mean',
(PID.TID 0000.0001) >#---
(PID.TID 0000.0001) > frequency(38) = 2635200.0,
(PID.TID 0000.0001) > fields(1,38) = 'EXFtaux',
(PID.TID 0000.0001) > filename(38) = 'diags/EXFtaux_mon_mean/EXFtaux_mon_mean',
(PID.TID 0000.0001) >#---
(PID.TID 0000.0001) > frequency(39) = 2635200.0,
(PID.TID 0000.0001) > fields(1,39) = 'EXFtauy',
(PID.TID 0000.0001) > filename(39) = 'diags/EXFtauy_mon_mean/EXFtauy_mon_mean',
(PID.TID 0000.0001) >#---
(PID.TID 0000.0001) > frequency(40) = 2635200.0,
(PID.TID 0000.0001) > fields(1,40) = 'EXFuwind',
(PID.TID 0000.0001) > filename(40) = 'diags/EXFuwind_mon_mean/EXFuwind_mon_mean',
(PID.TID 0000.0001) >#---
(PID.TID 0000.0001) > frequency(41) = 2635200.0,
(PID.TID 0000.0001) > fields(1,41) = 'EXFvwind',
(PID.TID 0000.0001) > filename(41) = 'diags/EXFvwind_mon_mean/EXFvwind_mon_mean',
(PID.TID 0000.0001) >#---
(PID.TID 0000.0001) > frequency(42) = 2635200.0,
(PID.TID 0000.0001) > fields(1,42) = 'EXFwspee',
(PID.TID 0000.0001) > filename(42) = 'diags/EXFwspee_mon_mean/EXFwspee_mon_mean',
(PID.TID 0000.0001) >#---
(PID.TID 0000.0001) > frequency(43) = 2635200.0,
(PID.TID 0000.0001) > fields(1,43) = 'GM_PsiX',
(PID.TID 0000.0001) > filename(43) = 'diags/GM_PsiX_mon_mean/GM_PsiX_mon_mean',
(PID.TID 0000.0001) >#---
(PID.TID 0000.0001) > frequency(44) = 2635200.0,
(PID.TID 0000.0001) > fields(1,44) = 'GM_PsiY',
(PID.TID 0000.0001) > filename(44) = 'diags/GM_PsiY_mon_mean/GM_PsiY_mon_mean',
(PID.TID 0000.0001) >#---
(PID.TID 0000.0001) > frequency(45) = 2635200.0,
(PID.TID 0000.0001) > fields(1,45) = 'MXLDEPTH',
(PID.TID 0000.0001) > filename(45) = 'diags/MXLDEPTH_mon_mean/MXLDEPTH_mon_mean',
(PID.TID 0000.0001) >#---
(PID.TID 0000.0001) > frequency(46) = 2635200.0,
(PID.TID 0000.0001) > fields(1,46) = 'oceFWflx',
(PID.TID 0000.0001) > filename(46) = 'diags/oceFWflx_mon_mean/oceFWflx_mon_mean',
(PID.TID 0000.0001) >#---
(PID.TID 0000.0001) > frequency(47) = 2635200.0,
(PID.TID 0000.0001) > fields(1,47) = 'oceQnet',
(PID.TID 0000.0001) > filename(47) = 'diags/oceQnet_mon_mean/oceQnet_mon_mean',
(PID.TID 0000.0001) >#---
(PID.TID 0000.0001) > frequency(48) = 2635200.0,
(PID.TID 0000.0001) > fields(1,48) = 'oceQsw',
(PID.TID 0000.0001) > filename(48) = 'diags/oceQsw_mon_mean/oceQsw_mon_mean',
(PID.TID 0000.0001) >#---
(PID.TID 0000.0001) > frequency(49) = 2635200.0,
(PID.TID 0000.0001) > fields(1,49) = 'oceSPDep',
(PID.TID 0000.0001) > filename(49) = 'diags/oceSPDep_mon_mean/oceSPDep_mon_mean',
(PID.TID 0000.0001) >#---
(PID.TID 0000.0001) > frequency(50) = 2635200.0,
(PID.TID 0000.0001) > fields(1,50) = 'oceSPflx',
(PID.TID 0000.0001) > filename(50) = 'diags/oceSPflx_mon_mean/oceSPflx_mon_mean',
(PID.TID 0000.0001) >#---
(PID.TID 0000.0001) > frequency(51) = 2635200.0,
(PID.TID 0000.0001) > fields(1,51) = 'oceSPtnd',
(PID.TID 0000.0001) > filename(51) = 'diags/oceSPtnd_mon_mean/oceSPtnd_mon_mean',
(PID.TID 0000.0001) >#---
(PID.TID 0000.0001) > frequency(52) = 2635200.0,
(PID.TID 0000.0001) > fields(1,52) = 'oceTAUX',
(PID.TID 0000.0001) > filename(52) = 'diags/oceTAUX_mon_mean/oceTAUX_mon_mean',
(PID.TID 0000.0001) >#---
(PID.TID 0000.0001) > frequency(53) = 2635200.0,
(PID.TID 0000.0001) > fields(1,53) = 'oceTAUY',
(PID.TID 0000.0001) > filename(53) = 'diags/oceTAUY_mon_mean/oceTAUY_mon_mean',
(PID.TID 0000.0001) >#---
(PID.TID 0000.0001) > frequency(54) = 2635200.0,
(PID.TID 0000.0001) > fields(1,54) = 'PHIBOT',
(PID.TID 0000.0001) > filename(54) = 'diags/PHIBOT_mon_mean/PHIBOT_mon_mean',
(PID.TID 0000.0001) >#---
(PID.TID 0000.0001) > frequency(55) = 2635200.0,
(PID.TID 0000.0001) > fields(1,55) = 'PHIHYD',
(PID.TID 0000.0001) > filename(55) = 'diags/PHIHYD_mon_mean/PHIHYD_mon_mean',
(PID.TID 0000.0001) >#---
(PID.TID 0000.0001) > frequency(56) = 2635200.0,
(PID.TID 0000.0001) > fields(1,56) = 'PHIHYDcR',
(PID.TID 0000.0001) > filename(56) = 'diags/PHIHYDcR_mon_mean/PHIHYDcR_mon_mean',
(PID.TID 0000.0001) >#---
(PID.TID 0000.0001) > frequency(57) = 2635200.0,
(PID.TID 0000.0001) > fields(1,57) = 'RHOAnoma',
(PID.TID 0000.0001) > filename(57) = 'diags/RHOAnoma_mon_mean/RHOAnoma_mon_mean',
(PID.TID 0000.0001) >#---
(PID.TID 0000.0001) > frequency(58) = 2635200.0,
(PID.TID 0000.0001) > fields(1,58) = 'SALT',
(PID.TID 0000.0001) > filename(58) = 'diags/SALT_mon_mean/SALT_mon_mean',
(PID.TID 0000.0001) >#---
(PID.TID 0000.0001) > frequency(59) = 2635200.0,
(PID.TID 0000.0001) > fields(1,59) = 'SFLUX',
(PID.TID 0000.0001) > filename(59) = 'diags/SFLUX_mon_mean/SFLUX_mon_mean',
(PID.TID 0000.0001) >#---
(PID.TID 0000.0001) > frequency(60) = 2635200.0,
(PID.TID 0000.0001) > fields(1,60) = 'SIarea',
(PID.TID 0000.0001) > filename(60) = 'diags/SIarea_mon_mean/SIarea_mon_mean',
(PID.TID 0000.0001) >#---
(PID.TID 0000.0001) > frequency(61) = 2635200.0,
(PID.TID 0000.0001) > fields(1,61) = 'SIatmFW',
(PID.TID 0000.0001) > filename(61) = 'diags/SIatmFW_mon_mean/SIatmFW_mon_mean',
(PID.TID 0000.0001) >#---
(PID.TID 0000.0001) > frequency(62) = 2635200.0,
(PID.TID 0000.0001) > fields(1,62) = 'SIatmQnt',
(PID.TID 0000.0001) > filename(62) = 'diags/SIatmQnt_mon_mean/SIatmQnt_mon_mean',
(PID.TID 0000.0001) >#---
(PID.TID 0000.0001) > frequency(63) = 2635200.0,
(PID.TID 0000.0001) > fields(1,63) = 'sIceLoad',
(PID.TID 0000.0001) > filename(63) = 'diags/sIceLoad_mon_mean/sIceLoad_mon_mean',
(PID.TID 0000.0001) >#---
(PID.TID 0000.0001) > frequency(64) = 2635200.0,
(PID.TID 0000.0001) > fields(1,64) = 'SIheff',
(PID.TID 0000.0001) > filename(64) = 'diags/SIheff_mon_mean/SIheff_mon_mean',
(PID.TID 0000.0001) >#---
(PID.TID 0000.0001) > frequency(65) = 2635200.0,
(PID.TID 0000.0001) > fields(1,65) = 'SIhsnow',
(PID.TID 0000.0001) > filename(65) = 'diags/SIhsnow_mon_mean/SIhsnow_mon_mean',
(PID.TID 0000.0001) >#---
(PID.TID 0000.0001) >frequency(66) = 2635200.0,
(PID.TID 0000.0001) >fields(1,66) = 'SIsnPrcp',
(PID.TID 0000.0001) >filename(66) = 'diags/SIsnPrcp_mon_mean/SIsnPrcp_mon_mean',
(PID.TID 0000.0001) >#---
(PID.TID 0000.0001) >frequency(67) = 2635200.0,
(PID.TID 0000.0001) >fields(1,67) = 'SIuice',
(PID.TID 0000.0001) >filename(67) = 'diags/SIuice_mon_mean/SIuice_mon_mean',
(PID.TID 0000.0001) >#---
(PID.TID 0000.0001) >frequency(68) = 2635200.0,
(PID.TID 0000.0001) >fields(1,68) = 'SIvice',
(PID.TID 0000.0001) >filename(68) = 'diags/SIvice_mon_mean/SIvice_mon_mean',
(PID.TID 0000.0001) >#---
(PID.TID 0000.0001) >frequency(69) = 2635200.0,
(PID.TID 0000.0001) >fields(1,69) = 'TFLUX',
(PID.TID 0000.0001) >filename(69) = 'diags/TFLUX_mon_mean/TFLUX_mon_mean',
(PID.TID 0000.0001) >#---
(PID.TID 0000.0001) >frequency(70) = 2635200.0,
(PID.TID 0000.0001) >fields(1,70) = 'THETA',
(PID.TID 0000.0001) >filename(70) = 'diags/THETA_mon_mean/THETA_mon_mean',
(PID.TID 0000.0001) >#---
(PID.TID 0000.0001) >frequency(71) = 2635200.0,
(PID.TID 0000.0001) >fields(1,71) = 'Um_dPHdx',
(PID.TID 0000.0001) >filename(71) = 'diags/Um_dPHdx_mon_mean/Um_dPHdx_mon_mean',
(PID.TID 0000.0001) >#---
(PID.TID 0000.0001) >frequency(72) = 2635200.0,
(PID.TID 0000.0001) >fields(1,72) = 'UVEL',
(PID.TID 0000.0001) >filename(72) = 'diags/UVEL_mon_mean/UVEL_mon_mean',
(PID.TID 0000.0001) >#---
(PID.TID 0000.0001) >frequency(73) = 2635200.0,
(PID.TID 0000.0001) >fields(1,73) = 'UVELMASS',
(PID.TID 0000.0001) >filename(73) = 'diags/UVELMASS_mon_mean/UVELMASS_mon_mean',
(PID.TID 0000.0001) >#---
(PID.TID 0000.0001) >frequency(74) = 2635200.0,
(PID.TID 0000.0001) >fields(1,74) = 'Vm_dPHdy',
(PID.TID 0000.0001) >filename(74) = 'diags/Vm_dPHdy_mon_mean/Vm_dPHdy_mon_mean',
(PID.TID 0000.0001) >#---
(PID.TID 0000.0001) >frequency(75) = 2635200.0,
(PID.TID 0000.0001) >fields(1,75) = 'VVEL',
(PID.TID 0000.0001) >filename(75) = 'diags/VVEL_mon_mean/VVEL_mon_mean',
(PID.TID 0000.0001) >#---
(PID.TID 0000.0001) >frequency(76) = 2635200.0,
(PID.TID 0000.0001) >fields(1,76) = 'VVELMASS',
(PID.TID 0000.0001) >filename(76) = 'diags/VVELMASS_mon_mean/VVELMASS_mon_mean',
(PID.TID 0000.0001) >#---
(PID.TID 0000.0001) >frequency(77) = 2635200.0,
(PID.TID 0000.0001) >fields(1,77) = 'WVELMASS',
(PID.TID 0000.0001) >filename(77) = 'diags/WVELMASS_mon_mean/WVELMASS_mon_mean',
(PID.TID 0000.0001) >#---
(PID.TID 0000.0001) >frequency(86) = -2635200.0,
(PID.TID 0000.0001) >fields(1,86) = 'ETAN',
(PID.TID 0000.0001) >timePhase(86) = 0,
(PID.TID 0000.0001) >filename(86) = 'diags/ETAN_mon_inst/ETAN_mon_inst',
(PID.TID 0000.0001) >#---
(PID.TID 0000.0001) >frequency(87) = -2635200.0,
(PID.TID 0000.0001) >fields(1,87) = 'SALT',
(PID.TID 0000.0001) >timePhase(87) = 0,
(PID.TID 0000.0001) >filename(87) = 'diags/SALT_mon_inst/SALT_mon_inst',
(PID.TID 0000.0001) >#---
(PID.TID 0000.0001) >frequency(88) = -2635200.0,
(PID.TID 0000.0001) >fields(1,88) = 'THETA',
(PID.TID 0000.0001) >timePhase(88) = 0,
(PID.TID 0000.0001) >filename(88) = 'diags/THETA_mon_inst/THETA_mon_inst',
(PID.TID 0000.0001) >#---
(PID.TID 0000.0001) >frequency(89) = -2635200.0,
(PID.TID 0000.0001) >fields(1,89) = 'SIheff',
(PID.TID 0000.0001) >timePhase(89) = 0,
(PID.TID 0000.0001) >filename(89) = 'diags/SIheff_mon_inst/SIheff_mon_inst',
(PID.TID 0000.0001) >#---
(PID.TID 0000.0001) >frequency(90) = -2635200.0,
(PID.TID 0000.0001) >fields(1,90) = 'SIhsnow',
(PID.TID 0000.0001) >timePhase(90) = 0,
(PID.TID 0000.0001) >filename(90) = 'diags/SIhsnow_mon_inst/SIhsnow_mon_inst',
(PID.TID 0000.0001) >#---
(PID.TID 0000.0001) >frequency(91) = 2635200.0,
(PID.TID 0000.0001) >fields(1,91) = 'SSH',
(PID.TID 0000.0001) >filename(91) = 'diags/SSH_mon_mean/SSH_mon_mean',
(PID.TID 0000.0001) >#---
(PID.TID 0000.0001) >frequency(92) = 2635200.0,
(PID.TID 0000.0001) >fields(1,92) = 'SSHIBC',
(PID.TID 0000.0001) >filename(92) = 'diags/SSHIBC_mon_mean/SSHIBC_mon_mean',
(PID.TID 0000.0001) >#---
(PID.TID 0000.0001) >frequency(93) = 2635200.0,
(PID.TID 0000.0001) >fields(1,93) = 'SSHNOIBC',
(PID.TID 0000.0001) >filename(93) = 'diags/SSHNOIBC_mon_mean/SSHNOIBC_mon_mean',
(PID.TID 0000.0001) >#---
(PID.TID 0000.0001) >frequency(94) = 2635200.0,
(PID.TID 0000.0001) >fields(1,94) = 'OBP',
(PID.TID 0000.0001) >filename(94) = 'diags/OBP_mon_mean/OBP_mon_mean',
(PID.TID 0000.0001) >#---
(PID.TID 0000.0001) >frequency(95) = 2635200.0,
(PID.TID 0000.0001) >fields(1,95) = 'OBPGMAP',
(PID.TID 0000.0001) >filename(95) = 'diags/OBPGMAP_mon_mean/OBPGMAP_mon_mean',
(PID.TID 0000.0001) >#---
(PID.TID 0000.0001) >frequency(96) = 2635200.0,
(PID.TID 0000.0001) >fields(1,96) = 'EXFpress',
(PID.TID 0000.0001) >filename(96) = 'diags/EXFpress_mon_mean/EXFpress_mon_mean',
(PID.TID 0000.0001) >#---
(PID.TID 0000.0001) > /
(PID.TID 0000.0001) >#
(PID.TID 0000.0001) >#
(PID.TID 0000.0001) ># Parameter for Diagnostics of per level statistics:
(PID.TID 0000.0001) >#-----------------
(PID.TID 0000.0001) ># for each output-stream:
(PID.TID 0000.0001) >#  stat_fname(n) : prefix of the output file name (only 8.c long) for outp.stream n
(PID.TID 0000.0001) >#  stat_freq(n):< 0 : write snap-shot output every |stat_freq| seconds
(PID.TID 0000.0001) >#               > 0 : write time-average output every stat_freq seconds
(PID.TID 0000.0001) >#  stat_phase(n)    : write at time = stat_phase + multiple of |stat_freq|
(PID.TID 0000.0001) >#  stat_region(:,n) : list of "regions" (default: 1 region only=global)
(PID.TID 0000.0001) >#  stat_fields(:,n) : list of diagnostics fields (8.c) (see "available_diagnostics.log"
(PID.TID 0000.0001) >#                 file for the list of all available diag. in this particular config)
(PID.TID 0000.0001) >#-----------------
(PID.TID 0000.0001) > &DIAG_STATIS_PARMS
(PID.TID 0000.0001) ># diagSt_regMaskFile='basin_masks_eccollc_90x50.bin',
(PID.TID 0000.0001) ># nSetRegMskFile=1,
(PID.TID 0000.0001) ># set_regMask(1)= 1,  1,  1,  1,  1,  1,  1,  1,  1,
(PID.TID 0000.0001) >#                 1,  1,  1,  1,  1,  1,  1,  1
(PID.TID 0000.0001) ># val_regMask(1)= 1., 2., 3., 4., 5., 6., 7., 8., 9.,
(PID.TID 0000.0001) >#                10.,11.,12.,13.,14.,15.,16.,17.
(PID.TID 0000.0001) >##---
(PID.TID 0000.0001) ># stat_fields(1,1)= 'ETAN    ','ETANSQ  ','DETADT2 ',
(PID.TID 0000.0001) >#                   'UVEL    ','VVEL    ','WVEL    ',
(PID.TID 0000.0001) >#                   'THETA   ','SALT    ',
(PID.TID 0000.0001) >#    stat_fname(1)= 'dynStDiag',
(PID.TID 0000.0001) >#     stat_freq(1)= 3153600.,
(PID.TID 0000.0001) ># stat_region(1,1)=  1, 2, 3, 4, 5, 6, 7, 8, 9,
(PID.TID 0000.0001) >#                   10,11,12,13,14,15,16,17
(PID.TID 0000.0001) >##---
(PID.TID 0000.0001) ># stat_fields(1,2)= 'oceTAUX ','oceTAUY ',
(PID.TID 0000.0001) >#                   'surForcT','surForcS','TFLUX   ','SFLUX   ',
(PID.TID 0000.0001) >#                   'oceQnet ','oceSflux','oceFWflx',
(PID.TID 0000.0001) >#    stat_fname(2)= 'surfStDiag',
(PID.TID 0000.0001) >#     stat_freq(2)= 3153600.,
(PID.TID 0000.0001) ># stat_region(1,2)=  1, 2, 3, 4, 5, 6, 7, 8, 9,
(PID.TID 0000.0001) >#                   10,11,12,13,14,15,16,17
(PID.TID 0000.0001) > /
(PID.TID 0000.0001) 
(PID.TID 0000.0001) S/R DIAGNOSTICS_READPARMS, read namelist "diagnostics_list": start
(PID.TID 0000.0001) S/R DIAGNOSTICS_READPARMS, read namelist "diagnostics_list": OK
(PID.TID 0000.0001) S/R DIAGNOSTICS_READPARMS, read namelist "DIAG_STATIS_PARMS": start
(PID.TID 0000.0001) S/R DIAGNOSTICS_READPARMS, read namelist "DIAG_STATIS_PARMS": OK
(PID.TID 0000.0001)  DIAGNOSTICS_READPARMS: global parameter summary:
(PID.TID 0000.0001)  dumpAtLast = /* always write time-ave diags at the end */
(PID.TID 0000.0001)                   T
(PID.TID 0000.0001)     ;
(PID.TID 0000.0001)  diag_mnc =   /* write NetCDF output files */
(PID.TID 0000.0001)                   F
(PID.TID 0000.0001)     ;
(PID.TID 0000.0001)  useMissingValue = /* put MissingValue where mask = 0 */
(PID.TID 0000.0001)                   F
(PID.TID 0000.0001)     ;
(PID.TID 0000.0001)  diagCG_maxIters = /* max number of iters in diag_cg2d */
(PID.TID 0000.0001)                     300
(PID.TID 0000.0001)     ;
(PID.TID 0000.0001)  diagCG_resTarget = /* residual target for diag_cg2d */
(PID.TID 0000.0001)                 1.000000000000000E-07
(PID.TID 0000.0001)     ;
(PID.TID 0000.0001)  diagCG_pcOffDFac = /* preconditioner off-diagonal factor */
(PID.TID 0000.0001)                 9.611687812379854E-01
(PID.TID 0000.0001)     ;
(PID.TID 0000.0001) -----------------------------------------------------
(PID.TID 0000.0001)  DIAGNOSTICS_READPARMS: active diagnostics summary:
(PID.TID 0000.0001) -----------------------------------------------------
(PID.TID 0000.0001) Creating Output Stream: diags/ADVr_SLT_mon_mean/ADVr_SLT_mon_mean
(PID.TID 0000.0001) Output Frequency:    2635200.000000 ; Phase:           0.000000
(PID.TID 0000.0001)  Averaging Freq.:    2635200.000000 , Phase:           0.000000 , Cycle:   1
(PID.TID 0000.0001)  missing value: -9.990000000000E+02
(PID.TID 0000.0001)  Levels:    will be set later
(PID.TID 0000.0001)  Fields:    ADVr_SLT
(PID.TID 0000.0001) Creating Output Stream: diags/ADVr_TH_mon_mean/ADVr_TH_mon_mean
(PID.TID 0000.0001) Output Frequency:    2635200.000000 ; Phase:           0.000000
(PID.TID 0000.0001)  Averaging Freq.:    2635200.000000 , Phase:           0.000000 , Cycle:   1
(PID.TID 0000.0001)  missing value: -9.990000000000E+02
(PID.TID 0000.0001)  Levels:    will be set later
(PID.TID 0000.0001)  Fields:    ADVr_TH
(PID.TID 0000.0001) Creating Output Stream: diags/ADVxHEFF_mon_mean/ADVxHEFF_mon_mean
(PID.TID 0000.0001) Output Frequency:    2635200.000000 ; Phase:           0.000000
(PID.TID 0000.0001)  Averaging Freq.:    2635200.000000 , Phase:           0.000000 , Cycle:   1
(PID.TID 0000.0001)  missing value: -9.990000000000E+02
(PID.TID 0000.0001)  Levels:    will be set later
(PID.TID 0000.0001)  Fields:    ADVxHEFF
(PID.TID 0000.0001) Creating Output Stream: diags/ADVx_SLT_mon_mean/ADVx_SLT_mon_mean
(PID.TID 0000.0001) Output Frequency:    2635200.000000 ; Phase:           0.000000
(PID.TID 0000.0001)  Averaging Freq.:    2635200.000000 , Phase:           0.000000 , Cycle:   1
(PID.TID 0000.0001)  missing value: -9.990000000000E+02
(PID.TID 0000.0001)  Levels:    will be set later
(PID.TID 0000.0001)  Fields:    ADVx_SLT
(PID.TID 0000.0001) Creating Output Stream: diags/ADVxSNOW_mon_mean/ADVxSNOW_mon_mean
(PID.TID 0000.0001) Output Frequency:    2635200.000000 ; Phase:           0.000000
(PID.TID 0000.0001)  Averaging Freq.:    2635200.000000 , Phase:           0.000000 , Cycle:   1
(PID.TID 0000.0001)  missing value: -9.990000000000E+02
(PID.TID 0000.0001)  Levels:    will be set later
(PID.TID 0000.0001)  Fields:    ADVxSNOW
(PID.TID 0000.0001) Creating Output Stream: diags/ADVx_TH_mon_mean/ADVx_TH_mon_mean
(PID.TID 0000.0001) Output Frequency:    2635200.000000 ; Phase:           0.000000
(PID.TID 0000.0001)  Averaging Freq.:    2635200.000000 , Phase:           0.000000 , Cycle:   1
(PID.TID 0000.0001)  missing value: -9.990000000000E+02
(PID.TID 0000.0001)  Levels:    will be set later
(PID.TID 0000.0001)  Fields:    ADVx_TH
(PID.TID 0000.0001) Creating Output Stream: diags/ADVyHEFF_mon_mean/ADVyHEFF_mon_mean
(PID.TID 0000.0001) Output Frequency:    2635200.000000 ; Phase:           0.000000
(PID.TID 0000.0001)  Averaging Freq.:    2635200.000000 , Phase:           0.000000 , Cycle:   1
(PID.TID 0000.0001)  missing value: -9.990000000000E+02
(PID.TID 0000.0001)  Levels:    will be set later
(PID.TID 0000.0001)  Fields:    ADVyHEFF
(PID.TID 0000.0001) Creating Output Stream: diags/ADVy_SLT_mon_mean/ADVy_SLT_mon_mean
(PID.TID 0000.0001) Output Frequency:    2635200.000000 ; Phase:           0.000000
(PID.TID 0000.0001)  Averaging Freq.:    2635200.000000 , Phase:           0.000000 , Cycle:   1
(PID.TID 0000.0001)  missing value: -9.990000000000E+02
(PID.TID 0000.0001)  Levels:    will be set later
(PID.TID 0000.0001)  Fields:    ADVy_SLT
(PID.TID 0000.0001) Creating Output Stream: diags/ADVySNOW_mon_mean/ADVySNOW_mon_mean
(PID.TID 0000.0001) Output Frequency:    2635200.000000 ; Phase:           0.000000
(PID.TID 0000.0001)  Averaging Freq.:    2635200.000000 , Phase:           0.000000 , Cycle:   1
(PID.TID 0000.0001)  missing value: -9.990000000000E+02
(PID.TID 0000.0001)  Levels:    will be set later
(PID.TID 0000.0001)  Fields:    ADVySNOW
(PID.TID 0000.0001) Creating Output Stream: diags/ADVy_TH_mon_mean/ADVy_TH_mon_mean
(PID.TID 0000.0001) Output Frequency:    2635200.000000 ; Phase:           0.000000
(PID.TID 0000.0001)  Averaging Freq.:    2635200.000000 , Phase:           0.000000 , Cycle:   1
(PID.TID 0000.0001)  missing value: -9.990000000000E+02
(PID.TID 0000.0001)  Levels:    will be set later
(PID.TID 0000.0001)  Fields:    ADVy_TH
(PID.TID 0000.0001) Creating Output Stream: diags/DFrE_SLT_mon_mean/DFrE_SLT_mon_mean
(PID.TID 0000.0001) Output Frequency:    2635200.000000 ; Phase:           0.000000
(PID.TID 0000.0001)  Averaging Freq.:    2635200.000000 , Phase:           0.000000 , Cycle:   1
(PID.TID 0000.0001)  missing value: -9.990000000000E+02
(PID.TID 0000.0001)  Levels:    will be set later
(PID.TID 0000.0001)  Fields:    DFrE_SLT
(PID.TID 0000.0001) Creating Output Stream: diags/DFrE_TH_mon_mean/DFrE_TH_mon_mean
(PID.TID 0000.0001) Output Frequency:    2635200.000000 ; Phase:           0.000000
(PID.TID 0000.0001)  Averaging Freq.:    2635200.000000 , Phase:           0.000000 , Cycle:   1
(PID.TID 0000.0001)  missing value: -9.990000000000E+02
(PID.TID 0000.0001)  Levels:    will be set later
(PID.TID 0000.0001)  Fields:    DFrE_TH
(PID.TID 0000.0001) Creating Output Stream: diags/DFrI_SLT_mon_mean/DFrI_SLT_mon_mean
(PID.TID 0000.0001) Output Frequency:    2635200.000000 ; Phase:           0.000000
(PID.TID 0000.0001)  Averaging Freq.:    2635200.000000 , Phase:           0.000000 , Cycle:   1
(PID.TID 0000.0001)  missing value: -9.990000000000E+02
(PID.TID 0000.0001)  Levels:    will be set later
(PID.TID 0000.0001)  Fields:    DFrI_SLT
(PID.TID 0000.0001) Creating Output Stream: diags/DFrI_TH_mon_mean/DFrI_TH_mon_mean
(PID.TID 0000.0001) Output Frequency:    2635200.000000 ; Phase:           0.000000
(PID.TID 0000.0001)  Averaging Freq.:    2635200.000000 , Phase:           0.000000 , Cycle:   1
(PID.TID 0000.0001)  missing value: -9.990000000000E+02
(PID.TID 0000.0001)  Levels:    will be set later
(PID.TID 0000.0001)  Fields:    DFrI_TH
(PID.TID 0000.0001) Creating Output Stream: diags/DFxEHEFF_mon_mean/DFxEHEFF_mon_mean
(PID.TID 0000.0001) Output Frequency:    2635200.000000 ; Phase:           0.000000
(PID.TID 0000.0001)  Averaging Freq.:    2635200.000000 , Phase:           0.000000 , Cycle:   1
(PID.TID 0000.0001)  missing value: -9.990000000000E+02
(PID.TID 0000.0001)  Levels:    will be set later
(PID.TID 0000.0001)  Fields:    DFxEHEFF
(PID.TID 0000.0001) Creating Output Stream: diags/DFxE_SLT_mon_mean/DFxE_SLT_mon_mean
(PID.TID 0000.0001) Output Frequency:    2635200.000000 ; Phase:           0.000000
(PID.TID 0000.0001)  Averaging Freq.:    2635200.000000 , Phase:           0.000000 , Cycle:   1
(PID.TID 0000.0001)  missing value: -9.990000000000E+02
(PID.TID 0000.0001)  Levels:    will be set later
(PID.TID 0000.0001)  Fields:    DFxE_SLT
(PID.TID 0000.0001) Creating Output Stream: diags/DFxESNOW_mon_mean/DFxESNOW_mon_mean
(PID.TID 0000.0001) Output Frequency:    2635200.000000 ; Phase:           0.000000
(PID.TID 0000.0001)  Averaging Freq.:    2635200.000000 , Phase:           0.000000 , Cycle:   1
(PID.TID 0000.0001)  missing value: -9.990000000000E+02
(PID.TID 0000.0001)  Levels:    will be set later
(PID.TID 0000.0001)  Fields:    DFxESNOW
(PID.TID 0000.0001) Creating Output Stream: diags/DFxE_TH_mon_mean/DFxE_TH_mon_mean
(PID.TID 0000.0001) Output Frequency:    2635200.000000 ; Phase:           0.000000
(PID.TID 0000.0001)  Averaging Freq.:    2635200.000000 , Phase:           0.000000 , Cycle:   1
(PID.TID 0000.0001)  missing value: -9.990000000000E+02
(PID.TID 0000.0001)  Levels:    will be set later
(PID.TID 0000.0001)  Fields:    DFxE_TH
(PID.TID 0000.0001) Creating Output Stream: diags/DFyEHEFF_mon_mean/DFyEHEFF_mon_mean
(PID.TID 0000.0001) Output Frequency:    2635200.000000 ; Phase:           0.000000
(PID.TID 0000.0001)  Averaging Freq.:    2635200.000000 , Phase:           0.000000 , Cycle:   1
(PID.TID 0000.0001)  missing value: -9.990000000000E+02
(PID.TID 0000.0001)  Levels:    will be set later
(PID.TID 0000.0001)  Fields:    DFyEHEFF
(PID.TID 0000.0001) Creating Output Stream: diags/DFyE_SLT_mon_mean/DFyE_SLT_mon_mean
(PID.TID 0000.0001) Output Frequency:    2635200.000000 ; Phase:           0.000000
(PID.TID 0000.0001)  Averaging Freq.:    2635200.000000 , Phase:           0.000000 , Cycle:   1
(PID.TID 0000.0001)  missing value: -9.990000000000E+02
(PID.TID 0000.0001)  Levels:    will be set later
(PID.TID 0000.0001)  Fields:    DFyE_SLT
(PID.TID 0000.0001) Creating Output Stream: diags/DFyESNOW_mon_mean/DFyESNOW_mon_mean
(PID.TID 0000.0001) Output Frequency:    2635200.000000 ; Phase:           0.000000
(PID.TID 0000.0001)  Averaging Freq.:    2635200.000000 , Phase:           0.000000 , Cycle:   1
(PID.TID 0000.0001)  missing value: -9.990000000000E+02
(PID.TID 0000.0001)  Levels:    will be set later
(PID.TID 0000.0001)  Fields:    DFyESNOW
(PID.TID 0000.0001) Creating Output Stream: diags/DFyE_TH_mon_mean/DFyE_TH_mon_mean
(PID.TID 0000.0001) Output Frequency:    2635200.000000 ; Phase:           0.000000
(PID.TID 0000.0001)  Averaging Freq.:    2635200.000000 , Phase:           0.000000 , Cycle:   1
(PID.TID 0000.0001)  missing value: -9.990000000000E+02
(PID.TID 0000.0001)  Levels:    will be set later
(PID.TID 0000.0001)  Fields:    DFyE_TH
(PID.TID 0000.0001) Creating Output Stream: diags/DRHODR_mon_mean/DRHODR_mon_mean
(PID.TID 0000.0001) Output Frequency:    2635200.000000 ; Phase:           0.000000
(PID.TID 0000.0001)  Averaging Freq.:    2635200.000000 , Phase:           0.000000 , Cycle:   1
(PID.TID 0000.0001)  missing value: -9.990000000000E+02
(PID.TID 0000.0001)  Levels:    will be set later
(PID.TID 0000.0001)  Fields:    DRHODR
(PID.TID 0000.0001) Creating Output Stream: diags/ETAN_mon_mean/ETAN_mon_mean
(PID.TID 0000.0001) Output Frequency:    2635200.000000 ; Phase:           0.000000
(PID.TID 0000.0001)  Averaging Freq.:    2635200.000000 , Phase:           0.000000 , Cycle:   1
(PID.TID 0000.0001)  missing value: -9.990000000000E+02
(PID.TID 0000.0001)  Levels:    will be set later
(PID.TID 0000.0001)  Fields:    ETAN
(PID.TID 0000.0001) Creating Output Stream: diags/EXFaqh_mon_mean/EXFaqh_mon_mean
(PID.TID 0000.0001) Output Frequency:    2635200.000000 ; Phase:           0.000000
(PID.TID 0000.0001)  Averaging Freq.:    2635200.000000 , Phase:           0.000000 , Cycle:   1
(PID.TID 0000.0001)  missing value: -9.990000000000E+02
(PID.TID 0000.0001)  Levels:    will be set later
(PID.TID 0000.0001)  Fields:    EXFaqh
(PID.TID 0000.0001) Creating Output Stream: diags/EXFatemp_mon_mean/EXFatemp_mon_mean
(PID.TID 0000.0001) Output Frequency:    2635200.000000 ; Phase:           0.000000
(PID.TID 0000.0001)  Averaging Freq.:    2635200.000000 , Phase:           0.000000 , Cycle:   1
(PID.TID 0000.0001)  missing value: -9.990000000000E+02
(PID.TID 0000.0001)  Levels:    will be set later
(PID.TID 0000.0001)  Fields:    EXFatemp
(PID.TID 0000.0001) Creating Output Stream: diags/EXFempmr_mon_mean/EXFempmr_mon_mean
(PID.TID 0000.0001) Output Frequency:    2635200.000000 ; Phase:           0.000000
(PID.TID 0000.0001)  Averaging Freq.:    2635200.000000 , Phase:           0.000000 , Cycle:   1
(PID.TID 0000.0001)  missing value: -9.990000000000E+02
(PID.TID 0000.0001)  Levels:    will be set later
(PID.TID 0000.0001)  Fields:    EXFempmr
(PID.TID 0000.0001) Creating Output Stream: diags/EXFevap_mon_mean/EXFevap_mon_mean
(PID.TID 0000.0001) Output Frequency:    2635200.000000 ; Phase:           0.000000
(PID.TID 0000.0001)  Averaging Freq.:    2635200.000000 , Phase:           0.000000 , Cycle:   1
(PID.TID 0000.0001)  missing value: -9.990000000000E+02
(PID.TID 0000.0001)  Levels:    will be set later
(PID.TID 0000.0001)  Fields:    EXFevap
(PID.TID 0000.0001) Creating Output Stream: diags/EXFhl_mon_mean/EXFhl_mon_mean
(PID.TID 0000.0001) Output Frequency:    2635200.000000 ; Phase:           0.000000
(PID.TID 0000.0001)  Averaging Freq.:    2635200.000000 , Phase:           0.000000 , Cycle:   1
(PID.TID 0000.0001)  missing value: -9.990000000000E+02
(PID.TID 0000.0001)  Levels:    will be set later
(PID.TID 0000.0001)  Fields:    EXFhl
(PID.TID 0000.0001) Creating Output Stream: diags/EXFhs_mon_mean/EXFhs_mon_mean
(PID.TID 0000.0001) Output Frequency:    2635200.000000 ; Phase:           0.000000
(PID.TID 0000.0001)  Averaging Freq.:    2635200.000000 , Phase:           0.000000 , Cycle:   1
(PID.TID 0000.0001)  missing value: -9.990000000000E+02
(PID.TID 0000.0001)  Levels:    will be set later
(PID.TID 0000.0001)  Fields:    EXFhs
(PID.TID 0000.0001) Creating Output Stream: diags/EXFlwdn_mon_mean/EXFlwdn_mon_mean
(PID.TID 0000.0001) Output Frequency:    2635200.000000 ; Phase:           0.000000
(PID.TID 0000.0001)  Averaging Freq.:    2635200.000000 , Phase:           0.000000 , Cycle:   1
(PID.TID 0000.0001)  missing value: -9.990000000000E+02
(PID.TID 0000.0001)  Levels:    will be set later
(PID.TID 0000.0001)  Fields:    EXFlwdn
(PID.TID 0000.0001) Creating Output Stream: diags/EXFlwnet_mon_mean/EXFlwnet_mon_mean
(PID.TID 0000.0001) Output Frequency:    2635200.000000 ; Phase:           0.000000
(PID.TID 0000.0001)  Averaging Freq.:    2635200.000000 , Phase:           0.000000 , Cycle:   1
(PID.TID 0000.0001)  missing value: -9.990000000000E+02
(PID.TID 0000.0001)  Levels:    will be set later
(PID.TID 0000.0001)  Fields:    EXFlwnet
(PID.TID 0000.0001) Creating Output Stream: diags/EXFpreci_mon_mean/EXFpreci_mon_mean
(PID.TID 0000.0001) Output Frequency:    2635200.000000 ; Phase:           0.000000
(PID.TID 0000.0001)  Averaging Freq.:    2635200.000000 , Phase:           0.000000 , Cycle:   1
(PID.TID 0000.0001)  missing value: -9.990000000000E+02
(PID.TID 0000.0001)  Levels:    will be set later
(PID.TID 0000.0001)  Fields:    EXFpreci
(PID.TID 0000.0001) Creating Output Stream: diags/EXFqnet_mon_mean/EXFqnet_mon_mean
(PID.TID 0000.0001) Output Frequency:    2635200.000000 ; Phase:           0.000000
(PID.TID 0000.0001)  Averaging Freq.:    2635200.000000 , Phase:           0.000000 , Cycle:   1
(PID.TID 0000.0001)  missing value: -9.990000000000E+02
(PID.TID 0000.0001)  Levels:    will be set later
(PID.TID 0000.0001)  Fields:    EXFqnet
(PID.TID 0000.0001) Creating Output Stream: diags/EXFroff_mon_mean/EXFroff_mon_mean
(PID.TID 0000.0001) Output Frequency:    2635200.000000 ; Phase:           0.000000
(PID.TID 0000.0001)  Averaging Freq.:    2635200.000000 , Phase:           0.000000 , Cycle:   1
(PID.TID 0000.0001)  missing value: -9.990000000000E+02
(PID.TID 0000.0001)  Levels:    will be set later
(PID.TID 0000.0001)  Fields:    EXFroff
(PID.TID 0000.0001) Creating Output Stream: diags/EXFswdn_mon_mean/EXFswdn_mon_mean
(PID.TID 0000.0001) Output Frequency:    2635200.000000 ; Phase:           0.000000
(PID.TID 0000.0001)  Averaging Freq.:    2635200.000000 , Phase:           0.000000 , Cycle:   1
(PID.TID 0000.0001)  missing value: -9.990000000000E+02
(PID.TID 0000.0001)  Levels:    will be set later
(PID.TID 0000.0001)  Fields:    EXFswdn
(PID.TID 0000.0001) Creating Output Stream: diags/EXFswnet_mon_mean/EXFswnet_mon_mean
(PID.TID 0000.0001) Output Frequency:    2635200.000000 ; Phase:           0.000000
(PID.TID 0000.0001)  Averaging Freq.:    2635200.000000 , Phase:           0.000000 , Cycle:   1
(PID.TID 0000.0001)  missing value: -9.990000000000E+02
(PID.TID 0000.0001)  Levels:    will be set later
(PID.TID 0000.0001)  Fields:    EXFswnet
(PID.TID 0000.0001) Creating Output Stream: diags/EXFtaux_mon_mean/EXFtaux_mon_mean
(PID.TID 0000.0001) Output Frequency:    2635200.000000 ; Phase:           0.000000
(PID.TID 0000.0001)  Averaging Freq.:    2635200.000000 , Phase:           0.000000 , Cycle:   1
(PID.TID 0000.0001)  missing value: -9.990000000000E+02
(PID.TID 0000.0001)  Levels:    will be set later
(PID.TID 0000.0001)  Fields:    EXFtaux
(PID.TID 0000.0001) Creating Output Stream: diags/EXFtauy_mon_mean/EXFtauy_mon_mean
(PID.TID 0000.0001) Output Frequency:    2635200.000000 ; Phase:           0.000000
(PID.TID 0000.0001)  Averaging Freq.:    2635200.000000 , Phase:           0.000000 , Cycle:   1
(PID.TID 0000.0001)  missing value: -9.990000000000E+02
(PID.TID 0000.0001)  Levels:    will be set later
(PID.TID 0000.0001)  Fields:    EXFtauy
(PID.TID 0000.0001) Creating Output Stream: diags/EXFuwind_mon_mean/EXFuwind_mon_mean
(PID.TID 0000.0001) Output Frequency:    2635200.000000 ; Phase:           0.000000
(PID.TID 0000.0001)  Averaging Freq.:    2635200.000000 , Phase:           0.000000 , Cycle:   1
(PID.TID 0000.0001)  missing value: -9.990000000000E+02
(PID.TID 0000.0001)  Levels:    will be set later
(PID.TID 0000.0001)  Fields:    EXFuwind
(PID.TID 0000.0001) Creating Output Stream: diags/EXFvwind_mon_mean/EXFvwind_mon_mean
(PID.TID 0000.0001) Output Frequency:    2635200.000000 ; Phase:           0.000000
(PID.TID 0000.0001)  Averaging Freq.:    2635200.000000 , Phase:           0.000000 , Cycle:   1
(PID.TID 0000.0001)  missing value: -9.990000000000E+02
(PID.TID 0000.0001)  Levels:    will be set later
(PID.TID 0000.0001)  Fields:    EXFvwind
(PID.TID 0000.0001) Creating Output Stream: diags/EXFwspee_mon_mean/EXFwspee_mon_mean
(PID.TID 0000.0001) Output Frequency:    2635200.000000 ; Phase:           0.000000
(PID.TID 0000.0001)  Averaging Freq.:    2635200.000000 , Phase:           0.000000 , Cycle:   1
(PID.TID 0000.0001)  missing value: -9.990000000000E+02
(PID.TID 0000.0001)  Levels:    will be set later
(PID.TID 0000.0001)  Fields:    EXFwspee
(PID.TID 0000.0001) Creating Output Stream: diags/GM_PsiX_mon_mean/GM_PsiX_mon_mean
(PID.TID 0000.0001) Output Frequency:    2635200.000000 ; Phase:           0.000000
(PID.TID 0000.0001)  Averaging Freq.:    2635200.000000 , Phase:           0.000000 , Cycle:   1
(PID.TID 0000.0001)  missing value: -9.990000000000E+02
(PID.TID 0000.0001)  Levels:    will be set later
(PID.TID 0000.0001)  Fields:    GM_PsiX
(PID.TID 0000.0001) Creating Output Stream: diags/GM_PsiY_mon_mean/GM_PsiY_mon_mean
(PID.TID 0000.0001) Output Frequency:    2635200.000000 ; Phase:           0.000000
(PID.TID 0000.0001)  Averaging Freq.:    2635200.000000 , Phase:           0.000000 , Cycle:   1
(PID.TID 0000.0001)  missing value: -9.990000000000E+02
(PID.TID 0000.0001)  Levels:    will be set later
(PID.TID 0000.0001)  Fields:    GM_PsiY
(PID.TID 0000.0001) Creating Output Stream: diags/MXLDEPTH_mon_mean/MXLDEPTH_mon_mean
(PID.TID 0000.0001) Output Frequency:    2635200.000000 ; Phase:           0.000000
(PID.TID 0000.0001)  Averaging Freq.:    2635200.000000 , Phase:           0.000000 , Cycle:   1
(PID.TID 0000.0001)  missing value: -9.990000000000E+02
(PID.TID 0000.0001)  Levels:    will be set later
(PID.TID 0000.0001)  Fields:    MXLDEPTH
(PID.TID 0000.0001) Creating Output Stream: diags/oceFWflx_mon_mean/oceFWflx_mon_mean
(PID.TID 0000.0001) Output Frequency:    2635200.000000 ; Phase:           0.000000
(PID.TID 0000.0001)  Averaging Freq.:    2635200.000000 , Phase:           0.000000 , Cycle:   1
(PID.TID 0000.0001)  missing value: -9.990000000000E+02
(PID.TID 0000.0001)  Levels:    will be set later
(PID.TID 0000.0001)  Fields:    oceFWflx
(PID.TID 0000.0001) Creating Output Stream: diags/oceQnet_mon_mean/oceQnet_mon_mean
(PID.TID 0000.0001) Output Frequency:    2635200.000000 ; Phase:           0.000000
(PID.TID 0000.0001)  Averaging Freq.:    2635200.000000 , Phase:           0.000000 , Cycle:   1
(PID.TID 0000.0001)  missing value: -9.990000000000E+02
(PID.TID 0000.0001)  Levels:    will be set later
(PID.TID 0000.0001)  Fields:    oceQnet
(PID.TID 0000.0001) Creating Output Stream: diags/oceQsw_mon_mean/oceQsw_mon_mean
(PID.TID 0000.0001) Output Frequency:    2635200.000000 ; Phase:           0.000000
(PID.TID 0000.0001)  Averaging Freq.:    2635200.000000 , Phase:           0.000000 , Cycle:   1
(PID.TID 0000.0001)  missing value: -9.990000000000E+02
(PID.TID 0000.0001)  Levels:    will be set later
(PID.TID 0000.0001)  Fields:    oceQsw
(PID.TID 0000.0001) Creating Output Stream: diags/oceSPDep_mon_mean/oceSPDep_mon_mean
(PID.TID 0000.0001) Output Frequency:    2635200.000000 ; Phase:           0.000000
(PID.TID 0000.0001)  Averaging Freq.:    2635200.000000 , Phase:           0.000000 , Cycle:   1
(PID.TID 0000.0001)  missing value: -9.990000000000E+02
(PID.TID 0000.0001)  Levels:    will be set later
(PID.TID 0000.0001)  Fields:    oceSPDep
(PID.TID 0000.0001) Creating Output Stream: diags/oceSPflx_mon_mean/oceSPflx_mon_mean
(PID.TID 0000.0001) Output Frequency:    2635200.000000 ; Phase:           0.000000
(PID.TID 0000.0001)  Averaging Freq.:    2635200.000000 , Phase:           0.000000 , Cycle:   1
(PID.TID 0000.0001)  missing value: -9.990000000000E+02
(PID.TID 0000.0001)  Levels:    will be set later
(PID.TID 0000.0001)  Fields:    oceSPflx
(PID.TID 0000.0001) Creating Output Stream: diags/oceSPtnd_mon_mean/oceSPtnd_mon_mean
(PID.TID 0000.0001) Output Frequency:    2635200.000000 ; Phase:           0.000000
(PID.TID 0000.0001)  Averaging Freq.:    2635200.000000 , Phase:           0.000000 , Cycle:   1
(PID.TID 0000.0001)  missing value: -9.990000000000E+02
(PID.TID 0000.0001)  Levels:    will be set later
(PID.TID 0000.0001)  Fields:    oceSPtnd
(PID.TID 0000.0001) Creating Output Stream: diags/oceTAUX_mon_mean/oceTAUX_mon_mean
(PID.TID 0000.0001) Output Frequency:    2635200.000000 ; Phase:           0.000000
(PID.TID 0000.0001)  Averaging Freq.:    2635200.000000 , Phase:           0.000000 , Cycle:   1
(PID.TID 0000.0001)  missing value: -9.990000000000E+02
(PID.TID 0000.0001)  Levels:    will be set later
(PID.TID 0000.0001)  Fields:    oceTAUX
(PID.TID 0000.0001) Creating Output Stream: diags/oceTAUY_mon_mean/oceTAUY_mon_mean
(PID.TID 0000.0001) Output Frequency:    2635200.000000 ; Phase:           0.000000
(PID.TID 0000.0001)  Averaging Freq.:    2635200.000000 , Phase:           0.000000 , Cycle:   1
(PID.TID 0000.0001)  missing value: -9.990000000000E+02
(PID.TID 0000.0001)  Levels:    will be set later
(PID.TID 0000.0001)  Fields:    oceTAUY
(PID.TID 0000.0001) Creating Output Stream: diags/PHIBOT_mon_mean/PHIBOT_mon_mean
(PID.TID 0000.0001) Output Frequency:    2635200.000000 ; Phase:           0.000000
(PID.TID 0000.0001)  Averaging Freq.:    2635200.000000 , Phase:           0.000000 , Cycle:   1
(PID.TID 0000.0001)  missing value: -9.990000000000E+02
(PID.TID 0000.0001)  Levels:    will be set later
(PID.TID 0000.0001)  Fields:    PHIBOT
(PID.TID 0000.0001) Creating Output Stream: diags/PHIHYD_mon_mean/PHIHYD_mon_mean
(PID.TID 0000.0001) Output Frequency:    2635200.000000 ; Phase:           0.000000
(PID.TID 0000.0001)  Averaging Freq.:    2635200.000000 , Phase:           0.000000 , Cycle:   1
(PID.TID 0000.0001)  missing value: -9.990000000000E+02
(PID.TID 0000.0001)  Levels:    will be set later
(PID.TID 0000.0001)  Fields:    PHIHYD
(PID.TID 0000.0001) Creating Output Stream: diags/PHIHYDcR_mon_mean/PHIHYDcR_mon_mean
(PID.TID 0000.0001) Output Frequency:    2635200.000000 ; Phase:           0.000000
(PID.TID 0000.0001)  Averaging Freq.:    2635200.000000 , Phase:           0.000000 , Cycle:   1
(PID.TID 0000.0001)  missing value: -9.990000000000E+02
(PID.TID 0000.0001)  Levels:    will be set later
(PID.TID 0000.0001)  Fields:    PHIHYDcR
(PID.TID 0000.0001) Creating Output Stream: diags/RHOAnoma_mon_mean/RHOAnoma_mon_mean
(PID.TID 0000.0001) Output Frequency:    2635200.000000 ; Phase:           0.000000
(PID.TID 0000.0001)  Averaging Freq.:    2635200.000000 , Phase:           0.000000 , Cycle:   1
(PID.TID 0000.0001)  missing value: -9.990000000000E+02
(PID.TID 0000.0001)  Levels:    will be set later
(PID.TID 0000.0001)  Fields:    RHOAnoma
(PID.TID 0000.0001) Creating Output Stream: diags/SALT_mon_mean/SALT_mon_mean
(PID.TID 0000.0001) Output Frequency:    2635200.000000 ; Phase:           0.000000
(PID.TID 0000.0001)  Averaging Freq.:    2635200.000000 , Phase:           0.000000 , Cycle:   1
(PID.TID 0000.0001)  missing value: -9.990000000000E+02
(PID.TID 0000.0001)  Levels:    will be set later
(PID.TID 0000.0001)  Fields:    SALT
(PID.TID 0000.0001) Creating Output Stream: diags/SFLUX_mon_mean/SFLUX_mon_mean
(PID.TID 0000.0001) Output Frequency:    2635200.000000 ; Phase:           0.000000
(PID.TID 0000.0001)  Averaging Freq.:    2635200.000000 , Phase:           0.000000 , Cycle:   1
(PID.TID 0000.0001)  missing value: -9.990000000000E+02
(PID.TID 0000.0001)  Levels:    will be set later
(PID.TID 0000.0001)  Fields:    SFLUX
(PID.TID 0000.0001) Creating Output Stream: diags/SIarea_mon_mean/SIarea_mon_mean
(PID.TID 0000.0001) Output Frequency:    2635200.000000 ; Phase:           0.000000
(PID.TID 0000.0001)  Averaging Freq.:    2635200.000000 , Phase:           0.000000 , Cycle:   1
(PID.TID 0000.0001)  missing value: -9.990000000000E+02
(PID.TID 0000.0001)  Levels:    will be set later
(PID.TID 0000.0001)  Fields:    SIarea
(PID.TID 0000.0001) Creating Output Stream: diags/SIatmFW_mon_mean/SIatmFW_mon_mean
(PID.TID 0000.0001) Output Frequency:    2635200.000000 ; Phase:           0.000000
(PID.TID 0000.0001)  Averaging Freq.:    2635200.000000 , Phase:           0.000000 , Cycle:   1
(PID.TID 0000.0001)  missing value: -9.990000000000E+02
(PID.TID 0000.0001)  Levels:    will be set later
(PID.TID 0000.0001)  Fields:    SIatmFW
(PID.TID 0000.0001) Creating Output Stream: diags/SIatmQnt_mon_mean/SIatmQnt_mon_mean
(PID.TID 0000.0001) Output Frequency:    2635200.000000 ; Phase:           0.000000
(PID.TID 0000.0001)  Averaging Freq.:    2635200.000000 , Phase:           0.000000 , Cycle:   1
(PID.TID 0000.0001)  missing value: -9.990000000000E+02
(PID.TID 0000.0001)  Levels:    will be set later
(PID.TID 0000.0001)  Fields:    SIatmQnt
(PID.TID 0000.0001) Creating Output Stream: diags/sIceLoad_mon_mean/sIceLoad_mon_mean
(PID.TID 0000.0001) Output Frequency:    2635200.000000 ; Phase:           0.000000
(PID.TID 0000.0001)  Averaging Freq.:    2635200.000000 , Phase:           0.000000 , Cycle:   1
(PID.TID 0000.0001)  missing value: -9.990000000000E+02
(PID.TID 0000.0001)  Levels:    will be set later
(PID.TID 0000.0001)  Fields:    sIceLoad
(PID.TID 0000.0001) Creating Output Stream: diags/SIheff_mon_mean/SIheff_mon_mean
(PID.TID 0000.0001) Output Frequency:    2635200.000000 ; Phase:           0.000000
(PID.TID 0000.0001)  Averaging Freq.:    2635200.000000 , Phase:           0.000000 , Cycle:   1
(PID.TID 0000.0001)  missing value: -9.990000000000E+02
(PID.TID 0000.0001)  Levels:    will be set later
(PID.TID 0000.0001)  Fields:    SIheff
(PID.TID 0000.0001) Creating Output Stream: diags/SIhsnow_mon_mean/SIhsnow_mon_mean
(PID.TID 0000.0001) Output Frequency:    2635200.000000 ; Phase:           0.000000
(PID.TID 0000.0001)  Averaging Freq.:    2635200.000000 , Phase:           0.000000 , Cycle:   1
(PID.TID 0000.0001)  missing value: -9.990000000000E+02
(PID.TID 0000.0001)  Levels:    will be set later
(PID.TID 0000.0001)  Fields:    SIhsnow
(PID.TID 0000.0001) Creating Output Stream: diags/SIsnPrcp_mon_mean/SIsnPrcp_mon_mean
(PID.TID 0000.0001) Output Frequency:    2635200.000000 ; Phase:           0.000000
(PID.TID 0000.0001)  Averaging Freq.:    2635200.000000 , Phase:           0.000000 , Cycle:   1
(PID.TID 0000.0001)  missing value: -9.990000000000E+02
(PID.TID 0000.0001)  Levels:    will be set later
(PID.TID 0000.0001)  Fields:    SIsnPrcp
(PID.TID 0000.0001) Creating Output Stream: diags/SIuice_mon_mean/SIuice_mon_mean
(PID.TID 0000.0001) Output Frequency:    2635200.000000 ; Phase:           0.000000
(PID.TID 0000.0001)  Averaging Freq.:    2635200.000000 , Phase:           0.000000 , Cycle:   1
(PID.TID 0000.0001)  missing value: -9.990000000000E+02
(PID.TID 0000.0001)  Levels:    will be set later
(PID.TID 0000.0001)  Fields:    SIuice
(PID.TID 0000.0001) Creating Output Stream: diags/SIvice_mon_mean/SIvice_mon_mean
(PID.TID 0000.0001) Output Frequency:    2635200.000000 ; Phase:           0.000000
(PID.TID 0000.0001)  Averaging Freq.:    2635200.000000 , Phase:           0.000000 , Cycle:   1
(PID.TID 0000.0001)  missing value: -9.990000000000E+02
(PID.TID 0000.0001)  Levels:    will be set later
(PID.TID 0000.0001)  Fields:    SIvice
(PID.TID 0000.0001) Creating Output Stream: diags/TFLUX_mon_mean/TFLUX_mon_mean
(PID.TID 0000.0001) Output Frequency:    2635200.000000 ; Phase:           0.000000
(PID.TID 0000.0001)  Averaging Freq.:    2635200.000000 , Phase:           0.000000 , Cycle:   1
(PID.TID 0000.0001)  missing value: -9.990000000000E+02
(PID.TID 0000.0001)  Levels:    will be set later
(PID.TID 0000.0001)  Fields:    TFLUX
(PID.TID 0000.0001) Creating Output Stream: diags/THETA_mon_mean/THETA_mon_mean
(PID.TID 0000.0001) Output Frequency:    2635200.000000 ; Phase:           0.000000
(PID.TID 0000.0001)  Averaging Freq.:    2635200.000000 , Phase:           0.000000 , Cycle:   1
(PID.TID 0000.0001)  missing value: -9.990000000000E+02
(PID.TID 0000.0001)  Levels:    will be set later
(PID.TID 0000.0001)  Fields:    THETA
(PID.TID 0000.0001) Creating Output Stream: diags/Um_dPHdx_mon_mean/Um_dPHdx_mon_mean
(PID.TID 0000.0001) Output Frequency:    2635200.000000 ; Phase:           0.000000
(PID.TID 0000.0001)  Averaging Freq.:    2635200.000000 , Phase:           0.000000 , Cycle:   1
(PID.TID 0000.0001)  missing value: -9.990000000000E+02
(PID.TID 0000.0001)  Levels:    will be set later
(PID.TID 0000.0001)  Fields:    Um_dPHdx
(PID.TID 0000.0001) Creating Output Stream: diags/UVEL_mon_mean/UVEL_mon_mean
(PID.TID 0000.0001) Output Frequency:    2635200.000000 ; Phase:           0.000000
(PID.TID 0000.0001)  Averaging Freq.:    2635200.000000 , Phase:           0.000000 , Cycle:   1
(PID.TID 0000.0001)  missing value: -9.990000000000E+02
(PID.TID 0000.0001)  Levels:    will be set later
(PID.TID 0000.0001)  Fields:    UVEL
(PID.TID 0000.0001) Creating Output Stream: diags/UVELMASS_mon_mean/UVELMASS_mon_mean
(PID.TID 0000.0001) Output Frequency:    2635200.000000 ; Phase:           0.000000
(PID.TID 0000.0001)  Averaging Freq.:    2635200.000000 , Phase:           0.000000 , Cycle:   1
(PID.TID 0000.0001)  missing value: -9.990000000000E+02
(PID.TID 0000.0001)  Levels:    will be set later
(PID.TID 0000.0001)  Fields:    UVELMASS
(PID.TID 0000.0001) Creating Output Stream: diags/Vm_dPHdy_mon_mean/Vm_dPHdy_mon_mean
(PID.TID 0000.0001) Output Frequency:    2635200.000000 ; Phase:           0.000000
(PID.TID 0000.0001)  Averaging Freq.:    2635200.000000 , Phase:           0.000000 , Cycle:   1
(PID.TID 0000.0001)  missing value: -9.990000000000E+02
(PID.TID 0000.0001)  Levels:    will be set later
(PID.TID 0000.0001)  Fields:    Vm_dPHdy
(PID.TID 0000.0001) Creating Output Stream: diags/VVEL_mon_mean/VVEL_mon_mean
(PID.TID 0000.0001) Output Frequency:    2635200.000000 ; Phase:           0.000000
(PID.TID 0000.0001)  Averaging Freq.:    2635200.000000 , Phase:           0.000000 , Cycle:   1
(PID.TID 0000.0001)  missing value: -9.990000000000E+02
(PID.TID 0000.0001)  Levels:    will be set later
(PID.TID 0000.0001)  Fields:    VVEL
(PID.TID 0000.0001) Creating Output Stream: diags/VVELMASS_mon_mean/VVELMASS_mon_mean
(PID.TID 0000.0001) Output Frequency:    2635200.000000 ; Phase:           0.000000
(PID.TID 0000.0001)  Averaging Freq.:    2635200.000000 , Phase:           0.000000 , Cycle:   1
(PID.TID 0000.0001)  missing value: -9.990000000000E+02
(PID.TID 0000.0001)  Levels:    will be set later
(PID.TID 0000.0001)  Fields:    VVELMASS
(PID.TID 0000.0001) Creating Output Stream: diags/WVELMASS_mon_mean/WVELMASS_mon_mean
(PID.TID 0000.0001) Output Frequency:    2635200.000000 ; Phase:           0.000000
(PID.TID 0000.0001)  Averaging Freq.:    2635200.000000 , Phase:           0.000000 , Cycle:   1
(PID.TID 0000.0001)  missing value: -9.990000000000E+02
(PID.TID 0000.0001)  Levels:    will be set later
(PID.TID 0000.0001)  Fields:    WVELMASS
(PID.TID 0000.0001) Creating Output Stream: diags/ETAN_mon_inst/ETAN_mon_inst
(PID.TID 0000.0001) Output Frequency:   -2635200.000000 ; Phase:           0.000000
(PID.TID 0000.0001)  Averaging Freq.:          0.000000 , Phase:           0.000000 , Cycle:   1
(PID.TID 0000.0001)  missing value: -9.990000000000E+02
(PID.TID 0000.0001)  Levels:    will be set later
(PID.TID 0000.0001)  Fields:    ETAN
(PID.TID 0000.0001) Creating Output Stream: diags/SALT_mon_inst/SALT_mon_inst
(PID.TID 0000.0001) Output Frequency:   -2635200.000000 ; Phase:           0.000000
(PID.TID 0000.0001)  Averaging Freq.:          0.000000 , Phase:           0.000000 , Cycle:   1
(PID.TID 0000.0001)  missing value: -9.990000000000E+02
(PID.TID 0000.0001)  Levels:    will be set later
(PID.TID 0000.0001)  Fields:    SALT
(PID.TID 0000.0001) Creating Output Stream: diags/THETA_mon_inst/THETA_mon_inst
(PID.TID 0000.0001) Output Frequency:   -2635200.000000 ; Phase:           0.000000
(PID.TID 0000.0001)  Averaging Freq.:          0.000000 , Phase:           0.000000 , Cycle:   1
(PID.TID 0000.0001)  missing value: -9.990000000000E+02
(PID.TID 0000.0001)  Levels:    will be set later
(PID.TID 0000.0001)  Fields:    THETA
(PID.TID 0000.0001) Creating Output Stream: diags/SIheff_mon_inst/SIheff_mon_inst
(PID.TID 0000.0001) Output Frequency:   -2635200.000000 ; Phase:           0.000000
(PID.TID 0000.0001)  Averaging Freq.:          0.000000 , Phase:           0.000000 , Cycle:   1
(PID.TID 0000.0001)  missing value: -9.990000000000E+02
(PID.TID 0000.0001)  Levels:    will be set later
(PID.TID 0000.0001)  Fields:    SIheff
(PID.TID 0000.0001) Creating Output Stream: diags/SIhsnow_mon_inst/SIhsnow_mon_inst
(PID.TID 0000.0001) Output Frequency:   -2635200.000000 ; Phase:           0.000000
(PID.TID 0000.0001)  Averaging Freq.:          0.000000 , Phase:           0.000000 , Cycle:   1
(PID.TID 0000.0001)  missing value: -9.990000000000E+02
(PID.TID 0000.0001)  Levels:    will be set later
(PID.TID 0000.0001)  Fields:    SIhsnow
(PID.TID 0000.0001) Creating Output Stream: diags/SSH_mon_mean/SSH_mon_mean
(PID.TID 0000.0001) Output Frequency:    2635200.000000 ; Phase:           0.000000
(PID.TID 0000.0001)  Averaging Freq.:    2635200.000000 , Phase:           0.000000 , Cycle:   1
(PID.TID 0000.0001)  missing value: -9.990000000000E+02
(PID.TID 0000.0001)  Levels:    will be set later
(PID.TID 0000.0001)  Fields:    SSH
(PID.TID 0000.0001) Creating Output Stream: diags/SSHIBC_mon_mean/SSHIBC_mon_mean
(PID.TID 0000.0001) Output Frequency:    2635200.000000 ; Phase:           0.000000
(PID.TID 0000.0001)  Averaging Freq.:    2635200.000000 , Phase:           0.000000 , Cycle:   1
(PID.TID 0000.0001)  missing value: -9.990000000000E+02
(PID.TID 0000.0001)  Levels:    will be set later
(PID.TID 0000.0001)  Fields:    SSHIBC
(PID.TID 0000.0001) Creating Output Stream: diags/SSHNOIBC_mon_mean/SSHNOIBC_mon_mean
(PID.TID 0000.0001) Output Frequency:    2635200.000000 ; Phase:           0.000000
(PID.TID 0000.0001)  Averaging Freq.:    2635200.000000 , Phase:           0.000000 , Cycle:   1
(PID.TID 0000.0001)  missing value: -9.990000000000E+02
(PID.TID 0000.0001)  Levels:    will be set later
(PID.TID 0000.0001)  Fields:    SSHNOIBC
(PID.TID 0000.0001) Creating Output Stream: diags/OBP_mon_mean/OBP_mon_mean
(PID.TID 0000.0001) Output Frequency:    2635200.000000 ; Phase:           0.000000
(PID.TID 0000.0001)  Averaging Freq.:    2635200.000000 , Phase:           0.000000 , Cycle:   1
(PID.TID 0000.0001)  missing value: -9.990000000000E+02
(PID.TID 0000.0001)  Levels:    will be set later
(PID.TID 0000.0001)  Fields:    OBP
(PID.TID 0000.0001) Creating Output Stream: diags/OBPGMAP_mon_mean/OBPGMAP_mon_mean
(PID.TID 0000.0001) Output Frequency:    2635200.000000 ; Phase:           0.000000
(PID.TID 0000.0001)  Averaging Freq.:    2635200.000000 , Phase:           0.000000 , Cycle:   1
(PID.TID 0000.0001)  missing value: -9.990000000000E+02
(PID.TID 0000.0001)  Levels:    will be set later
(PID.TID 0000.0001)  Fields:    OBPGMAP
(PID.TID 0000.0001) Creating Output Stream: diags/EXFpress_mon_mean/EXFpress_mon_mean
(PID.TID 0000.0001) Output Frequency:    2635200.000000 ; Phase:           0.000000
(PID.TID 0000.0001)  Averaging Freq.:    2635200.000000 , Phase:           0.000000 , Cycle:   1
(PID.TID 0000.0001)  missing value: -9.990000000000E+02
(PID.TID 0000.0001)  Levels:    will be set later
(PID.TID 0000.0001)  Fields:    EXFpress
(PID.TID 0000.0001) -----------------------------------------------------
(PID.TID 0000.0001)  DIAGNOSTICS_READPARMS: statistics diags. summary:
(PID.TID 0000.0001) -----------------------------------------------------
(PID.TID 0000.0001) 
(PID.TID 0000.0001) SET_PARMS: done
==> SYSTEM CALL (from AUTODIFF_INI_MODEL_IO): > mkdir -p tapes <
==> SYSTEM CALL (from PROFILES_INI_IO): > mkdir -p profiles <
(PID.TID 0000.0001) Enter INI_VERTICAL_GRID: setInterFDr=    T ; setCenterDr=    F
(PID.TID 0000.0001) tile:   4 ; Read from file tile001.mitgrid
(PID.TID 0000.0001)   => xC yC dxF dyF rA xG yG dxV dyU rAz dxC dyC rAw rAs dxG dyG
(PID.TID 0000.0001) %MON XC_max                       =   1.7997758946678E+02
(PID.TID 0000.0001) %MON XC_min                       =  -1.7998895680928E+02
(PID.TID 0000.0001) %MON XC_mean                      =  -6.8997670631350E+00
(PID.TID 0000.0001) %MON XC_sd                        =   1.0548127462941E+02
(PID.TID 0000.0001) %MON XG_max                       =   1.8000000000000E+02
(PID.TID 0000.0001) %MON XG_min                       =  -1.7999919444240E+02
(PID.TID 0000.0001) %MON XG_mean                      =  -6.3521159278861E+00
(PID.TID 0000.0001) %MON XG_sd                        =   1.0549598176576E+02
(PID.TID 0000.0001) %MON DXC_max                      =   1.1117680031365E+05
(PID.TID 0000.0001) %MON DXC_min                      =   1.3362789164732E+04
(PID.TID 0000.0001) %MON DXC_mean                     =   7.1345115143606E+04
(PID.TID 0000.0001) %MON DXC_sd                       =   2.6107013089865E+04
(PID.TID 0000.0001) %MON DXF_max                      =   1.1117680031365E+05
(PID.TID 0000.0001) %MON DXF_min                      =   1.3491575949394E+04
(PID.TID 0000.0001) %MON DXF_mean                     =   7.1334806791260E+04
(PID.TID 0000.0001) %MON DXF_sd                       =   2.6121349328995E+04
(PID.TID 0000.0001) %MON DXG_max                      =   1.1117747335204E+05
(PID.TID 0000.0001) %MON DXG_min                      =   1.0930409249570E+04
(PID.TID 0000.0001) %MON DXG_mean                     =   7.1313583950284E+04
(PID.TID 0000.0001) %MON DXG_sd                       =   2.6131714747840E+04
(PID.TID 0000.0001) %MON DXV_max                      =   1.1117747335204E+05
(PID.TID 0000.0001) %MON DXV_min                      =   9.4742518926426E+03
(PID.TID 0000.0001) %MON DXV_mean                     =   7.1323777998314E+04
(PID.TID 0000.0001) %MON DXV_sd                       =   2.6117603792432E+04
(PID.TID 0000.0001) %MON YC_max                       =   8.9739397429324E+01
(PID.TID 0000.0001) %MON YC_min                       =  -8.1637173529390E+01
(PID.TID 0000.0001) %MON YC_mean                      =  -5.9338515025079E-01
(PID.TID 0000.0001) %MON YC_sd                        =   5.1058908630085E+01
(PID.TID 0000.0001) %MON YG_max                       =   9.0000000000000E+01
(PID.TID 0000.0001) %MON YG_min                       =  -8.1805478609906E+01
(PID.TID 0000.0001) %MON YG_mean                      =  -5.7357831765458E-01
(PID.TID 0000.0001) %MON YG_sd                        =   5.1060174609345E+01
(PID.TID 0000.0001) %MON DYC_max                      =   1.1117680031365E+05
(PID.TID 0000.0001) %MON DYC_min                      =   1.3362789164732E+04
(PID.TID 0000.0001) %MON DYC_mean                     =   7.0982792089666E+04
(PID.TID 0000.0001) %MON DYC_sd                       =   2.6607387075348E+04
(PID.TID 0000.0001) %MON DYF_max                      =   1.1117680031365E+05
(PID.TID 0000.0001) %MON DYF_min                      =   1.3491575949394E+04
(PID.TID 0000.0001) %MON DYF_mean                     =   7.1000127494934E+04
(PID.TID 0000.0001) %MON DYF_sd                       =   2.6603606017547E+04
(PID.TID 0000.0001) %MON DYG_max                      =   1.1117747335204E+05
(PID.TID 0000.0001) %MON DYG_min                      =   1.0930409249570E+04
(PID.TID 0000.0001) %MON DYG_mean                     =   7.1022116512585E+04
(PID.TID 0000.0001) %MON DYG_sd                       =   2.6571715830406E+04
(PID.TID 0000.0001) %MON DYU_max                      =   1.1117747335204E+05
(PID.TID 0000.0001) %MON DYU_min                      =   9.4742518926426E+03
(PID.TID 0000.0001) %MON DYU_mean                     =   7.1004694583927E+04
(PID.TID 0000.0001) %MON DYU_sd                       =   2.6575655787476E+04
(PID.TID 0000.0001) %MON RA_max                       =   1.1896090857160E+10
(PID.TID 0000.0001) %MON RA_min                       =   2.1263387742345E+08
(PID.TID 0000.0001) %MON RA_mean                      =   5.6344293572480E+09
(PID.TID 0000.0001) %MON RA_sd                        =   3.5929461176606E+09
(PID.TID 0000.0001) %MON RAW_max                      =   1.1896090856781E+10
(PID.TID 0000.0001) %MON RAW_min                      =   1.7369571508711E+08
(PID.TID 0000.0001) %MON RAW_mean                     =   5.6355850434318E+09
(PID.TID 0000.0001) %MON RAW_sd                       =   3.5915487677190E+09
(PID.TID 0000.0001) %MON RAS_max                      =   1.1896090856781E+10
(PID.TID 0000.0001) %MON RAS_min                      =   1.7369571508711E+08
(PID.TID 0000.0001) %MON RAS_mean                     =   5.6320332286162E+09
(PID.TID 0000.0001) %MON RAS_sd                       =   3.5937184228135E+09
(PID.TID 0000.0001) %MON RAZ_max                      =   1.1891903479271E+10
(PID.TID 0000.0001) %MON RAZ_min                      =   1.0413402423292E+08
(PID.TID 0000.0001) %MON RAZ_mean                     =   5.6331824674695E+09
(PID.TID 0000.0001) %MON RAZ_sd                       =   3.5923307220197E+09
(PID.TID 0000.0001) %MON AngleCS_max                  =   1.0000000000000E+00
(PID.TID 0000.0001) %MON AngleCS_min                  =  -9.9996641938864E-01
(PID.TID 0000.0001) %MON AngleCS_mean                 =   4.0572930529500E-01
(PID.TID 0000.0001) %MON AngleCS_sd                   =   5.3874397836718E-01
(PID.TID 0000.0001) %MON AngleSN_max                  =   9.9996641938864E-01
(PID.TID 0000.0001) %MON AngleSN_min                  =  -1.0000000000000E+00
(PID.TID 0000.0001) %MON AngleSN_mean                 =  -4.9986154624599E-01
(PID.TID 0000.0001) %MON AngleSN_sd                   =   5.4339404779819E-01
(PID.TID 0000.0001) 
(PID.TID 0000.0001) // =======================================================
(PID.TID 0000.0001) // Calendar configuration >>> START <<<
(PID.TID 0000.0001) // =======================================================
(PID.TID 0000.0001) 
(PID.TID 0000.0001) modelstart = /* Start time of the model integration [s] */
(PID.TID 0000.0001)                 3.600000000000000E+03
(PID.TID 0000.0001)     ;
(PID.TID 0000.0001) modelend  = /* End time of the model integration [s] */
(PID.TID 0000.0001)                 4.719960000000000E+07
(PID.TID 0000.0001)     ;
(PID.TID 0000.0001) modelStep = /* Time interval for a model forward step [s] */
(PID.TID 0000.0001)                 3.600000000000000E+03
(PID.TID 0000.0001)     ;
(PID.TID 0000.0001) usingGregorianCalendar= /* Calendar Type: Gregorian Calendar */
(PID.TID 0000.0001)                   T
(PID.TID 0000.0001)     ;
(PID.TID 0000.0001) usingJulianCalendar = /* Calendar Type: Julian Calendar */
(PID.TID 0000.0001)                   F
(PID.TID 0000.0001)     ;
(PID.TID 0000.0001) usingNoLeapYearCal  = /* Calendar Type: without Leap Year */
(PID.TID 0000.0001)                   F
(PID.TID 0000.0001)     ;
(PID.TID 0000.0001) usingModelCalendar  = /* Calendar Type: Model Calendar */
(PID.TID 0000.0001)                   F
(PID.TID 0000.0001)     ;
(PID.TID 0000.0001) modelStartDate YYYYMMDD = /* Model start date YYYY-MM-DD */
(PID.TID 0000.0001)                19920101
(PID.TID 0000.0001)     ;
(PID.TID 0000.0001)   modelStartDate HHMMSS = /* Model start date HH-MM-SS  */
(PID.TID 0000.0001)                  130000
(PID.TID 0000.0001)     ;
(PID.TID 0000.0001) modelEndDate   YYYYMMDD = /* Model end date YYYY-MM-DD */
(PID.TID 0000.0001)                19930630
(PID.TID 0000.0001)     ;
(PID.TID 0000.0001)   modelEndDate   HHMMSS = /* Model end date HH-MM-SS  */
(PID.TID 0000.0001)                  190000
(PID.TID 0000.0001)     ;
(PID.TID 0000.0001) intyears = /* Number of calendar years affected by the integration */
(PID.TID 0000.0001)                       2
(PID.TID 0000.0001)     ;
(PID.TID 0000.0001) intmonths= /* Number of calendar months affected by the integration */
(PID.TID 0000.0001)                      18
(PID.TID 0000.0001)     ;
(PID.TID 0000.0001) intdays = /* Number of calendar days affected by the integration */
(PID.TID 0000.0001)                     547
(PID.TID 0000.0001)     ;
(PID.TID 0000.0001) modelIter0 = /* Base timestep number  */
(PID.TID 0000.0001)                       1
(PID.TID 0000.0001)     ;
(PID.TID 0000.0001) modelIterEnd = /* Final timestep number  */
(PID.TID 0000.0001)                   13111
(PID.TID 0000.0001)     ;
(PID.TID 0000.0001) modelIntSteps= /* Number of model timesteps  */
(PID.TID 0000.0001)                   13110
(PID.TID 0000.0001)     ;
(PID.TID 0000.0001) 
(PID.TID 0000.0001) // =======================================================
(PID.TID 0000.0001) // Calendar configuration  >>> END <<<
(PID.TID 0000.0001) // =======================================================
(PID.TID 0000.0001) 
(PID.TID 0000.0001) GAD_INIT_FIXED: GAD_OlMinSize=  2  0  2
(PID.TID 0000.0001) 
(PID.TID 0000.0001) // ===================================
(PID.TID 0000.0001) // GAD parameters :
(PID.TID 0000.0001) // ===================================
(PID.TID 0000.0001) tempAdvScheme =   /* Temp. Horiz.Advection scheme selector */
(PID.TID 0000.0001)                      30
(PID.TID 0000.0001)     ;
(PID.TID 0000.0001) tempVertAdvScheme =   /* Temp. Vert. Advection scheme selector */
(PID.TID 0000.0001)                       3
(PID.TID 0000.0001)     ;
(PID.TID 0000.0001) tempMultiDimAdvec =   /* use Muti-Dim Advec method for Temp */
(PID.TID 0000.0001)                   T
(PID.TID 0000.0001)     ;
(PID.TID 0000.0001) tempSOM_Advection = /* use 2nd Order Moment Advection for Temp */
(PID.TID 0000.0001)                   F
(PID.TID 0000.0001)     ;
(PID.TID 0000.0001) AdamsBashforthGt = /* apply Adams-Bashforth extrapolation on Gt */
(PID.TID 0000.0001)                   F
(PID.TID 0000.0001)     ;
(PID.TID 0000.0001) AdamsBashforth_T = /* apply Adams-Bashforth extrapolation on Temp */
(PID.TID 0000.0001)                   F
(PID.TID 0000.0001)     ;
(PID.TID 0000.0001) saltAdvScheme =   /* Salt. Horiz.advection scheme selector */
(PID.TID 0000.0001)                      30
(PID.TID 0000.0001)     ;
(PID.TID 0000.0001) saltVertAdvScheme =   /* Salt. Vert. Advection scheme selector */
(PID.TID 0000.0001)                       3
(PID.TID 0000.0001)     ;
(PID.TID 0000.0001) saltMultiDimAdvec =   /* use Muti-Dim Advec method for Salt */
(PID.TID 0000.0001)                   T
(PID.TID 0000.0001)     ;
(PID.TID 0000.0001) saltSOM_Advection = /* use 2nd Order Moment Advection for Salt */
(PID.TID 0000.0001)                   F
(PID.TID 0000.0001)     ;
(PID.TID 0000.0001) AdamsBashforthGs = /* apply Adams-Bashforth extrapolation on Gs */
(PID.TID 0000.0001)                   F
(PID.TID 0000.0001)     ;
(PID.TID 0000.0001) AdamsBashforth_S = /* apply Adams-Bashforth extrapolation on Salt */
(PID.TID 0000.0001)                   F
(PID.TID 0000.0001)     ;
(PID.TID 0000.0001) // ===================================
(PID.TID 0000.0001) 
(PID.TID 0000.0001) // =======================================================
(PID.TID 0000.0001) // External forcing (EXF) configuration >>> START <<<
(PID.TID 0000.0001) // =======================================================
(PID.TID 0000.0001) 
(PID.TID 0000.0001)  EXF general parameters:
(PID.TID 0000.0001) 
(PID.TID 0000.0001) exf_iprec = /* exf file precision */
(PID.TID 0000.0001)                      32
(PID.TID 0000.0001)     ;
(PID.TID 0000.0001) useExfYearlyFields = /* add extension _YEAR to input file names */
(PID.TID 0000.0001)                   T
(PID.TID 0000.0001)     ;
(PID.TID 0000.0001) twoDigitYear = /* use 2-digit year extension */
(PID.TID 0000.0001)                   F
(PID.TID 0000.0001)     ;
(PID.TID 0000.0001) useExfCheckRange = /* check for fields range */
(PID.TID 0000.0001)                   F
(PID.TID 0000.0001)     ;
(PID.TID 0000.0001) exf_output_interp = /* output directly interpolation result */
(PID.TID 0000.0001)                   F
(PID.TID 0000.0001)     ;
(PID.TID 0000.0001) exf_debugLev = /* select EXF-debug printing level */
(PID.TID 0000.0001)                       1
(PID.TID 0000.0001)     ;
(PID.TID 0000.0001) exf_monFreq  = /* EXF monitor frequency [ s ] */
(PID.TID 0000.0001)                 6.307200000000000E+06
(PID.TID 0000.0001)     ;
(PID.TID 0000.0001) repeatPeriod = /* period for cycling forcing dataset [ s ] */
(PID.TID 0000.0001)                 0.000000000000000E+00
(PID.TID 0000.0001)     ;
(PID.TID 0000.0001) climTempFreeze= /* Minimum climatological temperature [deg.C] */
(PID.TID 0000.0001)                -1.900000000000000E+00
(PID.TID 0000.0001)     ;
(PID.TID 0000.0001) windStressMax = /* Maximum absolute windstress [ Pa ] */
(PID.TID 0000.0001)                 2.000000000000000E+00
(PID.TID 0000.0001)     ;
(PID.TID 0000.0001) stressIsOnCgrid = /* set u,v_stress on Arakawa C-grid */
(PID.TID 0000.0001)                   F
(PID.TID 0000.0001)     ;
(PID.TID 0000.0001) rotateStressOnAgrid = /* rotate u,v_stress on Arakawa A-grid */
(PID.TID 0000.0001)                   T
(PID.TID 0000.0001)     ;
(PID.TID 0000.0001) cen2kel = /* conversion of deg. Centigrade to Kelvin [K] */
(PID.TID 0000.0001)                 2.731500000000000E+02
(PID.TID 0000.0001)     ;
(PID.TID 0000.0001) gravity_mks= /* gravitational acceleration [m/s^2] */
(PID.TID 0000.0001)                 9.810000000000000E+00
(PID.TID 0000.0001)     ;
(PID.TID 0000.0001) atmrho =  /* mean atmospheric density [kg/m^3] */
(PID.TID 0000.0001)                 1.200000000000000E+00
(PID.TID 0000.0001)     ;
(PID.TID 0000.0001) atmcp =  /* mean atmospheric specific heat [J/kg/K] */
(PID.TID 0000.0001)                 1.005000000000000E+03
(PID.TID 0000.0001)     ;
(PID.TID 0000.0001) flamb =  /* latent heat of evaporation [J/kg] */
(PID.TID 0000.0001)                 2.500000000000000E+06
(PID.TID 0000.0001)     ;
(PID.TID 0000.0001) flami =  /* latent heat of pure-ice melting [J/kg] */
(PID.TID 0000.0001)                 3.340000000000000E+05
(PID.TID 0000.0001)     ;
(PID.TID 0000.0001) cvapor_fac = /* const. for Saturation calculation [?] */
(PID.TID 0000.0001)                 6.403800000000000E+05
(PID.TID 0000.0001)     ;
(PID.TID 0000.0001) cvapor_exp = /* const. for Saturation calculation [?] */
(PID.TID 0000.0001)                 5.107400000000000E+03
(PID.TID 0000.0001)     ;
(PID.TID 0000.0001) cvapor_fac_ice= /* const. for Saturation calculation [?] */
(PID.TID 0000.0001)                 1.163780000000000E+07
(PID.TID 0000.0001)     ;
(PID.TID 0000.0001) cvapor_exp_ice= /* const. for Saturation calculation [?] */
(PID.TID 0000.0001)                 5.897800000000000E+03
(PID.TID 0000.0001)     ;
(PID.TID 0000.0001) humid_fac = /* humidity coef. in virtual temp. [(kg/kg)^-1] */
(PID.TID 0000.0001)                 6.060000000000000E-01
(PID.TID 0000.0001)     ;
(PID.TID 0000.0001) gamma_blk = /* adiabatic lapse rate [?] */
(PID.TID 0000.0001)                 1.000000000000000E-02
(PID.TID 0000.0001)     ;
(PID.TID 0000.0001) saltsat = /* reduction of Qsat over salty water [-] */
(PID.TID 0000.0001)                 9.800000000000000E-01
(PID.TID 0000.0001)     ;
(PID.TID 0000.0001) noNegativeEvap = /* prevent negative Evaporation */
(PID.TID 0000.0001)                   F
(PID.TID 0000.0001)     ;
(PID.TID 0000.0001) sstExtrapol = /* extrapolation coeff from lev. 1 & 2 to surf [-] */
(PID.TID 0000.0001)                 0.000000000000000E+00
(PID.TID 0000.0001)     ;
(PID.TID 0000.0001) cDrag_1 = /* coef used in drag calculation [?] */
(PID.TID 0000.0001)                 2.700000000000000E-03
(PID.TID 0000.0001)     ;
(PID.TID 0000.0001) cDrag_2 = /* coef used in drag calculation [?] */
(PID.TID 0000.0001)                 1.420000000000000E-04
(PID.TID 0000.0001)     ;
(PID.TID 0000.0001) cDrag_3 = /* coef used in drag calculation [?] */
(PID.TID 0000.0001)                 7.640000000000000E-05
(PID.TID 0000.0001)     ;
(PID.TID 0000.0001) cStanton_1 = /* coef used in Stanton number calculation [?] */
(PID.TID 0000.0001)                 3.270000000000000E-02
(PID.TID 0000.0001)     ;
(PID.TID 0000.0001) cStanton_2 = /* coef used in Stanton number calculation [?] */
(PID.TID 0000.0001)                 1.800000000000000E-02
(PID.TID 0000.0001)     ;
(PID.TID 0000.0001) cDalton = /* coef used in Dalton number calculation [?] */
(PID.TID 0000.0001)                 3.460000000000000E-02
(PID.TID 0000.0001)     ;
(PID.TID 0000.0001) exf_scal_BulkCdn= /* Drag coefficient scaling factor [-] */
(PID.TID 0000.0001)                 1.000000000000000E+00
(PID.TID 0000.0001)     ;
(PID.TID 0000.0001) zolmin = /* minimum stability parameter [?] */
(PID.TID 0000.0001)                -1.000000000000000E+02
(PID.TID 0000.0001)     ;
(PID.TID 0000.0001) psim_fac = /* coef used in turbulent fluxes calculation [-] */
(PID.TID 0000.0001)                 5.000000000000000E+00
(PID.TID 0000.0001)     ;
(PID.TID 0000.0001) zref =  /* reference height [ m ] */
(PID.TID 0000.0001)                 1.000000000000000E+01
(PID.TID 0000.0001)     ;
(PID.TID 0000.0001) hu =  /* height of mean wind [ m ] */
(PID.TID 0000.0001)                 1.000000000000000E+01
(PID.TID 0000.0001)     ;
(PID.TID 0000.0001) ht =  /* height of mean temperature [ m ] */
(PID.TID 0000.0001)                 2.000000000000000E+00
(PID.TID 0000.0001)     ;
(PID.TID 0000.0001) hq =  /* height of mean spec.humidity [ m ] */
(PID.TID 0000.0001)                 2.000000000000000E+00
(PID.TID 0000.0001)     ;
(PID.TID 0000.0001) uMin = /* minimum wind speed [m/s] */
(PID.TID 0000.0001)                 5.000000000000000E-01
(PID.TID 0000.0001)     ;
(PID.TID 0000.0001) useStabilityFct_overIce= /* transfert Coeffs over sea-ice depend on stability */
(PID.TID 0000.0001)                   F
(PID.TID 0000.0001)     ;
(PID.TID 0000.0001) exf_iceCd = /* drag coefficient over sea-ice (fixed) [-] */
(PID.TID 0000.0001)                 1.630000000000000E-03
(PID.TID 0000.0001)     ;
(PID.TID 0000.0001) exf_iceCe = /* transfert coeff. over sea-ice, for Evap (fixed) [-] */
(PID.TID 0000.0001)                 1.630000000000000E-03
(PID.TID 0000.0001)     ;
(PID.TID 0000.0001) exf_iceCh = /* transfert coeff. over sea-ice, Sens.Heat.(fixed)[-] */
(PID.TID 0000.0001)                 1.630000000000000E-03
(PID.TID 0000.0001)     ;
(PID.TID 0000.0001) exf_albedo =  /* Sea-water albedo [-] */
(PID.TID 0000.0001)                 1.000000000000000E-01
(PID.TID 0000.0001)     ;
(PID.TID 0000.0001) useExfZenAlbedo = /* Sea-water albedo varies with zenith angle */
(PID.TID 0000.0001)                   T
(PID.TID 0000.0001)     ;
(PID.TID 0000.0001) select_ZenAlbedo = /* Sea-water albedo computation method */
(PID.TID 0000.0001)                       1
(PID.TID 0000.0001)     ;
(PID.TID 0000.0001) useExfZenIncoming = /* compute incoming solar radiation */
(PID.TID 0000.0001)                   T
(PID.TID 0000.0001)     ;
(PID.TID 0000.0001) ocean_emissivity = /* longwave ocean-surface emissivity [-] */
(PID.TID 0000.0001)                 9.700000000000000E-01
(PID.TID 0000.0001)     ;
(PID.TID 0000.0001) ice_emissivity = /* longwave seaice emissivity [-] */
(PID.TID 0000.0001)                 9.500000000000000E-01
(PID.TID 0000.0001)     ;
(PID.TID 0000.0001) snow_emissivity = /* longwave snow  emissivity [-] */
(PID.TID 0000.0001)                 9.500000000000000E-01
(PID.TID 0000.0001)     ;
(PID.TID 0000.0001) 
(PID.TID 0000.0001)  EXF main CPP flags:
(PID.TID 0000.0001) 
(PID.TID 0000.0001) // USE_EXF_INTERPOLATION:              defined
(PID.TID 0000.0001) // ALLOW_ATM_TEMP:                     defined
(PID.TID 0000.0001) // ALLOW_ATM_WIND (useAtmWind):    NOT defined
(PID.TID 0000.0001) // ALLOW_DOWNWARD_RADIATION:           defined
(PID.TID 0000.0001) // ALLOW_BULKFORMULAE:                 defined
(PID.TID 0000.0001) 
(PID.TID 0000.0001)    Zonal wind stress forcing starts at               10800.
(PID.TID 0000.0001)    Zonal wind stress forcing period is               21600.
(PID.TID 0000.0001)    Zonal wind stress forcing repeat-cycle is             0.
(PID.TID 0000.0001)    Zonal wind stress forcing is read from file:
(PID.TID 0000.0001)    >> eccov4r4_ustr <<
(PID.TID 0000.0001)    assume "ustress" on model-grid (no interpolation)
(PID.TID 0000.0001) 
(PID.TID 0000.0001)    Meridional wind stress forcing starts at          10800.
(PID.TID 0000.0001)    Meridional wind stress forcing period is          21600.
(PID.TID 0000.0001)    Meridional wind stress forcing rep-cycle is           0.
(PID.TID 0000.0001)    Meridional wind stress forcing is read from file:
(PID.TID 0000.0001)    >> eccov4r4_vstr <<
(PID.TID 0000.0001)    assume "vstress" on model-grid (no interpolation)
(PID.TID 0000.0001)     Interp. U & V comp. together: uvInterp_stress =    F
(PID.TID 0000.0001) 
(PID.TID 0000.0001)    Atmospheric temperature starts at                 10800.
(PID.TID 0000.0001)    Atmospheric temperature period is                 21600.
(PID.TID 0000.0001)    Atmospheric temperature repeat-cycle is               0.
(PID.TID 0000.0001)    Atmospheric temperature is read from file:
(PID.TID 0000.0001)    >> eccov4r4_tmp2m_degC <<
(PID.TID 0000.0001)    assume "atemp" on model-grid (no interpolation)
(PID.TID 0000.0001) 
(PID.TID 0000.0001)    Atmospheric specific humidity starts at           10800.
(PID.TID 0000.0001)    Atmospheric specific humidity period is           21600.
(PID.TID 0000.0001)    Atmospheric specific humidity rep-cycle is            0.
(PID.TID 0000.0001)    Atmospheric specific humidity is read from file:
(PID.TID 0000.0001)    >> eccov4r4_spfh2m <<
(PID.TID 0000.0001)    assume "aqh" on model-grid (no interpolation)
(PID.TID 0000.0001) 
(PID.TID 0000.0001) // ALLOW_READ_TURBFLUXES:          NOT defined
(PID.TID 0000.0001) // EXF_READ_EVAP:                  NOT defined
(PID.TID 0000.0001) 
(PID.TID 0000.0001)    Precipitation data starts at                      10800.
(PID.TID 0000.0001)    Precipitation data period is                      21600.
(PID.TID 0000.0001)    Precipitation data repeat-cycle is                    0.
(PID.TID 0000.0001)    Precipitation data is read from file:
(PID.TID 0000.0001)    >> eccov4r4_rain <<
(PID.TID 0000.0001)    assume "precip" on model-grid (no interpolation)
(PID.TID 0000.0001) 
(PID.TID 0000.0001) // ALLOW_RUNOFF:                       defined
(PID.TID 0000.0001)    Runoff data period is                               -12.
(PID.TID 0000.0001)    Runoff data is read from file:
(PID.TID 0000.0001)    >> runoff-2d-Fekete-1deg-mon-V4-SMOOTH.bin <<
(PID.TID 0000.0001)    assume "runoff" on model-grid (no interpolation)
(PID.TID 0000.0001) 
(PID.TID 0000.0001) // ALLOW_RUNOFTEMP:                NOT defined
(PID.TID 0000.0001) // ALLOW_SALTFLX:                      defined
(PID.TID 0000.0001) 
(PID.TID 0000.0001)    Downward shortwave flux starts at                 10800.
(PID.TID 0000.0001)    Downward shortwave flux period is                 21600.
(PID.TID 0000.0001)    Downward shortwave flux repeat-cycle is               0.
(PID.TID 0000.0001)    Downward shortwave flux is read from file:
(PID.TID 0000.0001)    >> eccov4r4_dsw <<
(PID.TID 0000.0001)    assume "swdown" on model-grid (no interpolation)
(PID.TID 0000.0001) 
(PID.TID 0000.0001)    Downward longwave flux starts at                  10800.
(PID.TID 0000.0001)    Downward longwave flux period is                  21600.
(PID.TID 0000.0001)    Downward longwave flux repeat-cycle is                0.
(PID.TID 0000.0001)    Downward longwave flux is read from file:
(PID.TID 0000.0001)    >> eccov4r4_dlw <<
(PID.TID 0000.0001)    assume "lwdown" on model-grid (no interpolation)
(PID.TID 0000.0001) 
(PID.TID 0000.0001)    Atmospheric pressure forcing starts at            10800.
(PID.TID 0000.0001)    Atmospheric pressure forcing period is            21600.
(PID.TID 0000.0001)    Atmospheric pressure forcing rep-cycle is             0.
(PID.TID 0000.0001)    Atmospheric pressure forcing is read from file:
(PID.TID 0000.0001)    >> eccov4r4_pres <<
(PID.TID 0000.0001)    assume "apressure" on model-grid (no interpolation)
(PID.TID 0000.0001) 
(PID.TID 0000.0001) // =======================================================
(PID.TID 0000.0001) // External forcing (EXF) climatology configuration :
(PID.TID 0000.0001) // =======================================================
(PID.TID 0000.0001) 
(PID.TID 0000.0001) // ALLOW_CLIMSST_RELAXATION:           defined
(PID.TID 0000.0001)    climsst relaxation is NOT used
(PID.TID 0000.0001) 
(PID.TID 0000.0001) // ALLOW_CLIMSSS_RELAXATION:           defined
(PID.TID 0000.0001)    climsss relaxation is NOT used
(PID.TID 0000.0001) 
(PID.TID 0000.0001) // =======================================================
(PID.TID 0000.0001) // External forcing (EXF) configuration  >>> END <<<
(PID.TID 0000.0001) // =======================================================
(PID.TID 0000.0001) 
(PID.TID 0000.0001)  OPEN_COPY_DATA_FILE: opening file GRACE_jpl_rl05m_20180122_SpatialMean.asc
(PID.TID 0000.0001) // =======================================================
(PID.TID 0000.0001) // Parameter file "GRACE_jpl_rl05m_20180122_SpatialMean.asc"
(PID.TID 0000.0001) // =======================================================
(PID.TID 0000.0001) >  -999.0000
(PID.TID 0000.0001) >  -999.0000
(PID.TID 0000.0001) >  -999.0000
(PID.TID 0000.0001) >  -999.0000
(PID.TID 0000.0001) >  -999.0000
(PID.TID 0000.0001) >  -999.0000
(PID.TID 0000.0001) >  -999.0000
(PID.TID 0000.0001) >  -999.0000
(PID.TID 0000.0001) >  -999.0000
(PID.TID 0000.0001) >  -999.0000
(PID.TID 0000.0001) >  -999.0000
(PID.TID 0000.0001) >  -999.0000
(PID.TID 0000.0001) >  -999.0000
(PID.TID 0000.0001) >  -999.0000
(PID.TID 0000.0001) >  -999.0000
(PID.TID 0000.0001) >  -999.0000
(PID.TID 0000.0001) >  -999.0000
(PID.TID 0000.0001) >  -999.0000
(PID.TID 0000.0001) >  -999.0000
(PID.TID 0000.0001) >  -999.0000
(PID.TID 0000.0001) >  -999.0000
(PID.TID 0000.0001) >  -999.0000
(PID.TID 0000.0001) >  -999.0000
(PID.TID 0000.0001) >  -999.0000
(PID.TID 0000.0001) >  -999.0000
(PID.TID 0000.0001) >  -999.0000
(PID.TID 0000.0001) >  -999.0000
(PID.TID 0000.0001) >  -999.0000
(PID.TID 0000.0001) >  -999.0000
(PID.TID 0000.0001) >  -999.0000
(PID.TID 0000.0001) >  -999.0000
(PID.TID 0000.0001) >  -999.0000
(PID.TID 0000.0001) >  -999.0000
(PID.TID 0000.0001) >  -999.0000
(PID.TID 0000.0001) >  -999.0000
(PID.TID 0000.0001) >  -999.0000
(PID.TID 0000.0001) >  -999.0000
(PID.TID 0000.0001) >  -999.0000
(PID.TID 0000.0001) >  -999.0000
(PID.TID 0000.0001) >  -999.0000
(PID.TID 0000.0001) >  -999.0000
(PID.TID 0000.0001) >  -999.0000
(PID.TID 0000.0001) >  -999.0000
(PID.TID 0000.0001) >  -999.0000
(PID.TID 0000.0001) >  -999.0000
(PID.TID 0000.0001) >  -999.0000
(PID.TID 0000.0001) >  -999.0000
(PID.TID 0000.0001) >  -999.0000
(PID.TID 0000.0001) >  -999.0000
(PID.TID 0000.0001) >  -999.0000
(PID.TID 0000.0001) >  -999.0000
(PID.TID 0000.0001) >  -999.0000
(PID.TID 0000.0001) >  -999.0000
(PID.TID 0000.0001) >  -999.0000
(PID.TID 0000.0001) >  -999.0000
(PID.TID 0000.0001) >  -999.0000
(PID.TID 0000.0001) >  -999.0000
(PID.TID 0000.0001) >  -999.0000
(PID.TID 0000.0001) >  -999.0000
(PID.TID 0000.0001) >  -999.0000
(PID.TID 0000.0001) >  -999.0000
(PID.TID 0000.0001) >  -999.0000
(PID.TID 0000.0001) >  -999.0000
(PID.TID 0000.0001) >  -999.0000
(PID.TID 0000.0001) >  -999.0000
(PID.TID 0000.0001) >  -999.0000
(PID.TID 0000.0001) >  -999.0000
(PID.TID 0000.0001) >  -999.0000
(PID.TID 0000.0001) >  -999.0000
(PID.TID 0000.0001) >  -999.0000
(PID.TID 0000.0001) >  -999.0000
(PID.TID 0000.0001) >  -999.0000
(PID.TID 0000.0001) >  -999.0000
(PID.TID 0000.0001) >  -999.0000
(PID.TID 0000.0001) >  -999.0000
(PID.TID 0000.0001) >  -999.0000
(PID.TID 0000.0001) >  -999.0000
(PID.TID 0000.0001) >  -999.0000
(PID.TID 0000.0001) >  -999.0000
(PID.TID 0000.0001) >  -999.0000
(PID.TID 0000.0001) >  -999.0000
(PID.TID 0000.0001) >  -999.0000
(PID.TID 0000.0001) >  -999.0000
(PID.TID 0000.0001) >  -999.0000
(PID.TID 0000.0001) >  -999.0000
(PID.TID 0000.0001) >  -999.0000
(PID.TID 0000.0001) >  -999.0000
(PID.TID 0000.0001) >  -999.0000
(PID.TID 0000.0001) >  -999.0000
(PID.TID 0000.0001) >  -999.0000
(PID.TID 0000.0001) >  -999.0000
(PID.TID 0000.0001) >  -999.0000
(PID.TID 0000.0001) >  -999.0000
(PID.TID 0000.0001) >  -999.0000
(PID.TID 0000.0001) >  -999.0000
(PID.TID 0000.0001) >  -999.0000
(PID.TID 0000.0001) >  -999.0000
(PID.TID 0000.0001) >  -999.0000
(PID.TID 0000.0001) >  -999.0000
(PID.TID 0000.0001) >  -999.0000
(PID.TID 0000.0001) >  -999.0000
(PID.TID 0000.0001) >  -999.0000
(PID.TID 0000.0001) >  -999.0000
(PID.TID 0000.0001) >  -999.0000
(PID.TID 0000.0001) >  -999.0000
(PID.TID 0000.0001) >  -999.0000
(PID.TID 0000.0001) >  -999.0000
(PID.TID 0000.0001) >  -999.0000
(PID.TID 0000.0001) >  -999.0000
(PID.TID 0000.0001) >  -999.0000
(PID.TID 0000.0001) >  -999.0000
(PID.TID 0000.0001) >  -999.0000
(PID.TID 0000.0001) >  -999.0000
(PID.TID 0000.0001) >  -999.0000
(PID.TID 0000.0001) >  -999.0000
(PID.TID 0000.0001) >  -999.0000
(PID.TID 0000.0001) >  -999.0000
(PID.TID 0000.0001) >  -999.0000
(PID.TID 0000.0001) >  -999.0000
(PID.TID 0000.0001) >  -999.0000
(PID.TID 0000.0001) >  -999.0000
(PID.TID 0000.0001) >  -999.0000
(PID.TID 0000.0001) >  -999.0000
(PID.TID 0000.0001) >    -1.5388
(PID.TID 0000.0001) >  -999.0000
(PID.TID 0000.0001) >  -999.0000
(PID.TID 0000.0001) >  -999.0000
(PID.TID 0000.0001) >    -0.0248
(PID.TID 0000.0001) >     0.2932
(PID.TID 0000.0001) >     0.3102
(PID.TID 0000.0001) >     0.0922
(PID.TID 0000.0001) >    -0.0298
(PID.TID 0000.0001) >    -0.4188
(PID.TID 0000.0001) >    -0.6158
(PID.TID 0000.0001) >    -0.9188
(PID.TID 0000.0001) >    -0.9888
(PID.TID 0000.0001) >  -999.0000
(PID.TID 0000.0001) >  -999.0000
(PID.TID 0000.0001) >    -0.3688
(PID.TID 0000.0001) >     0.1912
(PID.TID 0000.0001) >     0.2652
(PID.TID 0000.0001) >     0.4822
(PID.TID 0000.0001) >     0.2602
(PID.TID 0000.0001) >    -0.0588
(PID.TID 0000.0001) >  -999.0000
(PID.TID 0000.0001) >    -0.7528
(PID.TID 0000.0001) >    -0.8628
(PID.TID 0000.0001) >    -1.3578
(PID.TID 0000.0001) >    -1.2408
(PID.TID 0000.0001) >    -0.6928
(PID.TID 0000.0001) >    -0.3358
(PID.TID 0000.0001) >     0.0592
(PID.TID 0000.0001) >     0.2422
(PID.TID 0000.0001) >     0.4852
(PID.TID 0000.0001) >     0.2622
(PID.TID 0000.0001) >    -0.0378
(PID.TID 0000.0001) >    -0.2518
(PID.TID 0000.0001) >    -0.6918
(PID.TID 0000.0001) >    -1.0148
(PID.TID 0000.0001) >    -1.1048
(PID.TID 0000.0001) >    -0.9988
(PID.TID 0000.0001) >    -0.4218
(PID.TID 0000.0001) >    -0.0018
(PID.TID 0000.0001) >     0.2812
(PID.TID 0000.0001) >     0.4302
(PID.TID 0000.0001) >     0.6062
(PID.TID 0000.0001) >     0.6752
(PID.TID 0000.0001) >     0.1732
(PID.TID 0000.0001) >    -0.1758
(PID.TID 0000.0001) >    -0.6118
(PID.TID 0000.0001) >    -1.0758
(PID.TID 0000.0001) >    -1.2518
(PID.TID 0000.0001) >    -0.9708
(PID.TID 0000.0001) >    -0.7618
(PID.TID 0000.0001) >     0.0952
(PID.TID 0000.0001) >     0.3142
(PID.TID 0000.0001) >     0.7172
(PID.TID 0000.0001) >     1.0472
(PID.TID 0000.0001) >     0.5252
(PID.TID 0000.0001) >     0.0522
(PID.TID 0000.0001) >    -0.3888
(PID.TID 0000.0001) >    -0.5848
(PID.TID 0000.0001) >    -0.8598
(PID.TID 0000.0001) >    -0.9228
(PID.TID 0000.0001) >    -0.8378
(PID.TID 0000.0001) >    -0.4348
(PID.TID 0000.0001) >     0.0402
(PID.TID 0000.0001) >     0.4342
(PID.TID 0000.0001) >     0.7352
(PID.TID 0000.0001) >     0.9632
(PID.TID 0000.0001) >     0.8602
(PID.TID 0000.0001) >     0.5092
(PID.TID 0000.0001) >     0.2892
(PID.TID 0000.0001) >    -0.2408
(PID.TID 0000.0001) >    -0.7448
(PID.TID 0000.0001) >    -0.8738
(PID.TID 0000.0001) >    -0.6528
(PID.TID 0000.0001) >    -0.2038
(PID.TID 0000.0001) >     0.3092
(PID.TID 0000.0001) >     0.5212
(PID.TID 0000.0001) >     0.7532
(PID.TID 0000.0001) >     1.0612
(PID.TID 0000.0001) >     0.9722
(PID.TID 0000.0001) >     0.6242
(PID.TID 0000.0001) >     0.1832
(PID.TID 0000.0001) >    -0.1248
(PID.TID 0000.0001) >    -0.5758
(PID.TID 0000.0001) >    -0.7968
(PID.TID 0000.0001) >    -0.5058
(PID.TID 0000.0001) >    -0.0158
(PID.TID 0000.0001) >     0.3082
(PID.TID 0000.0001) >     0.7482
(PID.TID 0000.0001) >     1.0622
(PID.TID 0000.0001) >     1.3502
(PID.TID 0000.0001) >     1.2482
(PID.TID 0000.0001) >     0.8732
(PID.TID 0000.0001) >     0.2372
(PID.TID 0000.0001) >     0.0282
(PID.TID 0000.0001) >    -0.1598
(PID.TID 0000.0001) >    -0.2458
(PID.TID 0000.0001) >    -0.2478
(PID.TID 0000.0001) >     0.2942
(PID.TID 0000.0001) >     0.7142
(PID.TID 0000.0001) >     1.0932
(PID.TID 0000.0001) >     1.4212
(PID.TID 0000.0001) >     1.4302
(PID.TID 0000.0001) >     1.3282
(PID.TID 0000.0001) >     0.7382
(PID.TID 0000.0001) >  -999.0000
(PID.TID 0000.0001) >    -0.0198
(PID.TID 0000.0001) >    -0.3278
(PID.TID 0000.0001) >    -0.6478
(PID.TID 0000.0001) >    -0.3818
(PID.TID 0000.0001) >  -999.0000
(PID.TID 0000.0001) >     0.7452
(PID.TID 0000.0001) >     1.1822
(PID.TID 0000.0001) >     1.4902
(PID.TID 0000.0001) >     1.5122
(PID.TID 0000.0001) >  -999.0000
(PID.TID 0000.0001) >  -999.0000
(PID.TID 0000.0001) >     0.8362
(PID.TID 0000.0001) >     0.5392
(PID.TID 0000.0001) >     0.0162
(PID.TID 0000.0001) >  -999.0000
(PID.TID 0000.0001) >  -999.0000
(PID.TID 0000.0001) >     0.8882
(PID.TID 0000.0001) >     1.3982
(PID.TID 0000.0001) >     1.7702
(PID.TID 0000.0001) >     1.8042
(PID.TID 0000.0001) >  -999.0000
(PID.TID 0000.0001) >     1.8312
(PID.TID 0000.0001) >     1.7052
(PID.TID 0000.0001) >     1.3232
(PID.TID 0000.0001) >     1.0082
(PID.TID 0000.0001) >  -999.0000
(PID.TID 0000.0001) >  -999.0000
(PID.TID 0000.0001) >     0.5862
(PID.TID 0000.0001) >     0.9022
(PID.TID 0000.0001) >     1.4452
(PID.TID 0000.0001) >  -999.0000
(PID.TID 0000.0001) >  -999.0000
(PID.TID 0000.0001) >     2.0492
(PID.TID 0000.0001) >     1.7562
(PID.TID 0000.0001) >     1.4922
(PID.TID 0000.0001) >  -999.0000
(PID.TID 0000.0001) >  -999.0000
(PID.TID 0000.0001) >     0.4932
(PID.TID 0000.0001) >     0.4712
(PID.TID 0000.0001) >     0.4242
(PID.TID 0000.0001) >     0.7852
(PID.TID 0000.0001) >  -999.0000
(PID.TID 0000.0001) >     1.8622
(PID.TID 0000.0001) >     2.1782
(PID.TID 0000.0001) >     2.2842
(PID.TID 0000.0001) >     1.9402
(PID.TID 0000.0001) >  -999.0000
(PID.TID 0000.0001) >  -999.0000
(PID.TID 0000.0001) >     1.2932
(PID.TID 0000.0001) >     1.1872
(PID.TID 0000.0001) >     0.8952
(PID.TID 0000.0001) >  -999.0000
(PID.TID 0000.0001) >  -999.0000
(PID.TID 0000.0001) >     1.8022
(PID.TID 0000.0001) >     2.5012
(PID.TID 0000.0001) >     2.8002
(PID.TID 0000.0001) >  -999.0000
(PID.TID 0000.0001) >  -999.0000
(PID.TID 0000.0001) >  -999.0000
(PID.TID 0000.0001) >     2.2922
(PID.TID 0000.0001) >     1.7692
(PID.TID 0000.0001) >     1.3192
(PID.TID 0000.0001) >  -999.0000
(PID.TID 0000.0001) >  -999.0000
(PID.TID 0000.0001) >     1.7062
(PID.TID 0000.0001) >     2.0142
(PID.TID 0000.0001) >  -999.0000
(PID.TID 0000.0001) >  -999.0000
(PID.TID 0000.0001) >  -999.0000
(PID.TID 0000.0001) >  -999.0000
(PID.TID 0000.0001) >  -999.0000
(PID.TID 0000.0001) >  -999.0000
(PID.TID 0000.0001) >  -999.0000
(PID.TID 0000.0001) >  -999.0000
(PID.TID 0000.0001) >  -999.0000
(PID.TID 0000.0001) >  -999.0000
(PID.TID 0000.0001) >  -999.0000
(PID.TID 0000.0001) >  -999.0000
(PID.TID 0000.0001) >  -999.0000
(PID.TID 0000.0001) >  -999.0000
(PID.TID 0000.0001) >  -999.0000
(PID.TID 0000.0001) >  -999.0000
(PID.TID 0000.0001) >  -999.0000
(PID.TID 0000.0001) 
(PID.TID 0000.0001)  OPEN_COPY_DATA_FILE: opening file 20180228_ensemble_average_gmsl_ref.asc
(PID.TID 0000.0001) // =======================================================
(PID.TID 0000.0001) // Parameter file "20180228_ensemble_average_gmsl_ref.asc"
(PID.TID 0000.0001) // =======================================================
(PID.TID 0000.0001) >     -999.00000000
(PID.TID 0000.0001) >     -999.00000000
(PID.TID 0000.0001) >     -999.00000000
(PID.TID 0000.0001) >     -999.00000000
(PID.TID 0000.0001) >     -999.00000000
(PID.TID 0000.0001) >     -999.00000000
(PID.TID 0000.0001) >     -999.00000000
(PID.TID 0000.0001) >     -999.00000000
(PID.TID 0000.0001) >     -999.00000000
(PID.TID 0000.0001) >     -999.00000000
(PID.TID 0000.0001) >     -999.00000000
(PID.TID 0000.0001) >     -999.00000000
(PID.TID 0000.0001) >       -0.04147270
(PID.TID 0000.0001) >       -0.04237865
(PID.TID 0000.0001) >       -0.04097288
(PID.TID 0000.0001) >       -0.04090154
(PID.TID 0000.0001) >       -0.04112925
(PID.TID 0000.0001) >       -0.04106228
(PID.TID 0000.0001) >       -0.03907203
(PID.TID 0000.0001) >       -0.03618315
(PID.TID 0000.0001) >       -0.03250311
(PID.TID 0000.0001) >       -0.02982531
(PID.TID 0000.0001) >       -0.03084511
(PID.TID 0000.0001) >       -0.03170664
(PID.TID 0000.0001) >       -0.03477146
(PID.TID 0000.0001) >       -0.03727155
(PID.TID 0000.0001) >       -0.03671943
(PID.TID 0000.0001) >       -0.03633736
(PID.TID 0000.0001) >       -0.03893056
(PID.TID 0000.0001) >       -0.03990498
(PID.TID 0000.0001) >       -0.03901100
(PID.TID 0000.0001) >       -0.03510541
(PID.TID 0000.0001) >       -0.03136623
(PID.TID 0000.0001) >       -0.02858639
(PID.TID 0000.0001) >       -0.02847964
(PID.TID 0000.0001) >       -0.03107087
(PID.TID 0000.0001) >       -0.03199374
(PID.TID 0000.0001) >       -0.03270754
(PID.TID 0000.0001) >       -0.03356637
(PID.TID 0000.0001) >       -0.03534618
(PID.TID 0000.0001) >       -0.03607659
(PID.TID 0000.0001) >       -0.03615414
(PID.TID 0000.0001) >       -0.03647404
(PID.TID 0000.0001) >       -0.03376810
(PID.TID 0000.0001) >       -0.02786484
(PID.TID 0000.0001) >       -0.02478499
(PID.TID 0000.0001) >       -0.02488398
(PID.TID 0000.0001) >       -0.02710032
(PID.TID 0000.0001) >       -0.03092830
(PID.TID 0000.0001) >       -0.03130595
(PID.TID 0000.0001) >       -0.03171272
(PID.TID 0000.0001) >       -0.03196083
(PID.TID 0000.0001) >       -0.03180755
(PID.TID 0000.0001) >       -0.03187516
(PID.TID 0000.0001) >       -0.02950634
(PID.TID 0000.0001) >       -0.02781836
(PID.TID 0000.0001) >       -0.02399761
(PID.TID 0000.0001) >       -0.01780496
(PID.TID 0000.0001) >       -0.01720086
(PID.TID 0000.0001) >       -0.02412198
(PID.TID 0000.0001) >       -0.02897271
(PID.TID 0000.0001) >       -0.03068367
(PID.TID 0000.0001) >       -0.03020304
(PID.TID 0000.0001) >       -0.03016213
(PID.TID 0000.0001) >       -0.02944090
(PID.TID 0000.0001) >       -0.02861399
(PID.TID 0000.0001) >       -0.02572239
(PID.TID 0000.0001) >       -0.02144631
(PID.TID 0000.0001) >       -0.01591145
(PID.TID 0000.0001) >       -0.01305523
(PID.TID 0000.0001) >       -0.01522997
(PID.TID 0000.0001) >       -0.01967341
(PID.TID 0000.0001) >       -0.02261823
(PID.TID 0000.0001) >       -0.02340964
(PID.TID 0000.0001) >       -0.02382727
(PID.TID 0000.0001) >       -0.02408131
(PID.TID 0000.0001) >       -0.02546367
(PID.TID 0000.0001) >       -0.02656347
(PID.TID 0000.0001) >       -0.02483889
(PID.TID 0000.0001) >       -0.02215362
(PID.TID 0000.0001) >       -0.01922804
(PID.TID 0000.0001) >       -0.01714474
(PID.TID 0000.0001) >       -0.01734868
(PID.TID 0000.0001) >       -0.01971341
(PID.TID 0000.0001) >       -0.02252271
(PID.TID 0000.0001) >       -0.02418757
(PID.TID 0000.0001) >       -0.02435222
(PID.TID 0000.0001) >       -0.02415182
(PID.TID 0000.0001) >       -0.02626419
(PID.TID 0000.0001) >       -0.02637114
(PID.TID 0000.0001) >       -0.02377816
(PID.TID 0000.0001) >       -0.02027127
(PID.TID 0000.0001) >       -0.01640096
(PID.TID 0000.0001) >       -0.01271858
(PID.TID 0000.0001) >       -0.01329467
(PID.TID 0000.0001) >       -0.01365981
(PID.TID 0000.0001) >       -0.01571355
(PID.TID 0000.0001) >       -0.01793811
(PID.TID 0000.0001) >       -0.01976830
(PID.TID 0000.0001) >       -0.02152092
(PID.TID 0000.0001) >       -0.02392259
(PID.TID 0000.0001) >       -0.02386643
(PID.TID 0000.0001) >       -0.02168764
(PID.TID 0000.0001) >       -0.01918088
(PID.TID 0000.0001) >       -0.01430814
(PID.TID 0000.0001) >       -0.00882649
(PID.TID 0000.0001) >       -0.00901079
(PID.TID 0000.0001) >       -0.01193851
(PID.TID 0000.0001) >       -0.01312020
(PID.TID 0000.0001) >       -0.01614753
(PID.TID 0000.0001) >       -0.01635597
(PID.TID 0000.0001) >       -0.01723824
(PID.TID 0000.0001) >       -0.01849779
(PID.TID 0000.0001) >       -0.01771708
(PID.TID 0000.0001) >       -0.01381826
(PID.TID 0000.0001) >       -0.01138890
(PID.TID 0000.0001) >       -0.00656355
(PID.TID 0000.0001) >       -0.00462256
(PID.TID 0000.0001) >       -0.00466037
(PID.TID 0000.0001) >       -0.00768062
(PID.TID 0000.0001) >       -0.00979272
(PID.TID 0000.0001) >       -0.01125056
(PID.TID 0000.0001) >       -0.01299094
(PID.TID 0000.0001) >       -0.01538250
(PID.TID 0000.0001) >       -0.01580836
(PID.TID 0000.0001) >       -0.01490598
(PID.TID 0000.0001) >       -0.01094319
(PID.TID 0000.0001) >       -0.00688015
(PID.TID 0000.0001) >       -0.00454752
(PID.TID 0000.0001) >       -0.00163842
(PID.TID 0000.0001) >       -0.00120365
(PID.TID 0000.0001) >       -0.00330943
(PID.TID 0000.0001) >       -0.00578805
(PID.TID 0000.0001) >       -0.00737440
(PID.TID 0000.0001) >       -0.00914734
(PID.TID 0000.0001) >       -0.01022173
(PID.TID 0000.0001) >       -0.01066046
(PID.TID 0000.0001) >       -0.01151595
(PID.TID 0000.0001) >       -0.01057154
(PID.TID 0000.0001) >       -0.00683359
(PID.TID 0000.0001) >       -0.00140351
(PID.TID 0000.0001) >        0.00162164
(PID.TID 0000.0001) >        0.00082399
(PID.TID 0000.0001) >       -0.00158270
(PID.TID 0000.0001) >       -0.00384391
(PID.TID 0000.0001) >       -0.00644552
(PID.TID 0000.0001) >       -0.00665305
(PID.TID 0000.0001) >       -0.00722688
(PID.TID 0000.0001) >       -0.00877996
(PID.TID 0000.0001) >       -0.00827943
(PID.TID 0000.0001) >       -0.00662335
(PID.TID 0000.0001) >       -0.00434757
(PID.TID 0000.0001) >        0.00020843
(PID.TID 0000.0001) >        0.00271393
(PID.TID 0000.0001) >        0.00216869
(PID.TID 0000.0001) >        0.00091488
(PID.TID 0000.0001) >       -0.00119615
(PID.TID 0000.0001) >       -0.00197838
(PID.TID 0000.0001) >       -0.00326923
(PID.TID 0000.0001) >       -0.00493475
(PID.TID 0000.0001) >       -0.00516213
(PID.TID 0000.0001) >       -0.00463033
(PID.TID 0000.0001) >       -0.00342823
(PID.TID 0000.0001) >       -0.00036215
(PID.TID 0000.0001) >        0.00391399
(PID.TID 0000.0001) >        0.00727962
(PID.TID 0000.0001) >        0.00883675
(PID.TID 0000.0001) >        0.00708760
(PID.TID 0000.0001) >        0.00283303
(PID.TID 0000.0001) >       -0.00005775
(PID.TID 0000.0001) >       -0.00201734
(PID.TID 0000.0001) >       -0.00310832
(PID.TID 0000.0001) >       -0.00310899
(PID.TID 0000.0001) >       -0.00178046
(PID.TID 0000.0001) >       -0.00008680
(PID.TID 0000.0001) >        0.00243197
(PID.TID 0000.0001) >        0.00773053
(PID.TID 0000.0001) >        0.01033648
(PID.TID 0000.0001) >        0.00946383
(PID.TID 0000.0001) >        0.00660276
(PID.TID 0000.0001) >        0.00310204
(PID.TID 0000.0001) >        0.00066316
(PID.TID 0000.0001) >        0.00007108
(PID.TID 0000.0001) >        0.00011690
(PID.TID 0000.0001) >       -0.00081483
(PID.TID 0000.0001) >       -0.00162525
(PID.TID 0000.0001) >       -0.00148614
(PID.TID 0000.0001) >        0.00107289
(PID.TID 0000.0001) >        0.00538297
(PID.TID 0000.0001) >        0.00895235
(PID.TID 0000.0001) >        0.01047932
(PID.TID 0000.0001) >        0.00847417
(PID.TID 0000.0001) >        0.00539799
(PID.TID 0000.0001) >        0.00282624
(PID.TID 0000.0001) >        0.00163986
(PID.TID 0000.0001) >        0.00115355
(PID.TID 0000.0001) >        0.00275862
(PID.TID 0000.0001) >        0.00403121
(PID.TID 0000.0001) >        0.00519214
(PID.TID 0000.0001) >        0.00672258
(PID.TID 0000.0001) >        0.01032091
(PID.TID 0000.0001) >        0.01359020
(PID.TID 0000.0001) >        0.01467404
(PID.TID 0000.0001) >        0.01329685
(PID.TID 0000.0001) >        0.01009228
(PID.TID 0000.0001) >        0.00700790
(PID.TID 0000.0001) >        0.00642086
(PID.TID 0000.0001) >        0.00654674
(PID.TID 0000.0001) >        0.00602162
(PID.TID 0000.0001) >        0.00576382
(PID.TID 0000.0001) >        0.00719312
(PID.TID 0000.0001) >        0.01090523
(PID.TID 0000.0001) >        0.01579733
(PID.TID 0000.0001) >        0.01968412
(PID.TID 0000.0001) >        0.02046005
(PID.TID 0000.0001) >        0.01851100
(PID.TID 0000.0001) >        0.01409794
(PID.TID 0000.0001) >        0.01097860
(PID.TID 0000.0001) >        0.01031540
(PID.TID 0000.0001) >        0.00939064
(PID.TID 0000.0001) >        0.00911685
(PID.TID 0000.0001) >        0.01082404
(PID.TID 0000.0001) >        0.01224243
(PID.TID 0000.0001) >        0.01307233
(PID.TID 0000.0001) >        0.01448105
(PID.TID 0000.0001) >        0.01717605
(PID.TID 0000.0001) >        0.01748673
(PID.TID 0000.0001) >        0.01507983
(PID.TID 0000.0001) >        0.01184131
(PID.TID 0000.0001) >        0.00883508
(PID.TID 0000.0001) >        0.00667820
(PID.TID 0000.0001) >        0.00504999
(PID.TID 0000.0001) >        0.00470485
(PID.TID 0000.0001) >        0.00680446
(PID.TID 0000.0001) >        0.00886402
(PID.TID 0000.0001) >        0.01262384
(PID.TID 0000.0001) >        0.01677563
(PID.TID 0000.0001) >        0.02019074
(PID.TID 0000.0001) >        0.02063724
(PID.TID 0000.0001) >        0.02072811
(PID.TID 0000.0001) >        0.01962652
(PID.TID 0000.0001) >        0.01794813
(PID.TID 0000.0001) >        0.01633759
(PID.TID 0000.0001) >        0.01537694
(PID.TID 0000.0001) >        0.01567859
(PID.TID 0000.0001) >        0.01708372
(PID.TID 0000.0001) >        0.02037311
(PID.TID 0000.0001) >        0.02358307
(PID.TID 0000.0001) >        0.02751593
(PID.TID 0000.0001) >        0.03070397
(PID.TID 0000.0001) >        0.03126814
(PID.TID 0000.0001) >        0.03010550
(PID.TID 0000.0001) >        0.02798674
(PID.TID 0000.0001) >        0.02573000
(PID.TID 0000.0001) >        0.02398622
(PID.TID 0000.0001) >        0.02249828
(PID.TID 0000.0001) >        0.02141529
(PID.TID 0000.0001) >        0.02050706
(PID.TID 0000.0001) >        0.02144277
(PID.TID 0000.0001) >        0.02360970
(PID.TID 0000.0001) >        0.02668396
(PID.TID 0000.0001) >        0.03046590
(PID.TID 0000.0001) >        0.03212708
(PID.TID 0000.0001) >        0.03004662
(PID.TID 0000.0001) >        0.02712121
(PID.TID 0000.0001) >        0.02558150
(PID.TID 0000.0001) >        0.02507455
(PID.TID 0000.0001) >        0.02376230
(PID.TID 0000.0001) >        0.02194285
(PID.TID 0000.0001) >        0.02281129
(PID.TID 0000.0001) >        0.02530421
(PID.TID 0000.0001) >        0.02879413
(PID.TID 0000.0001) >        0.03253911
(PID.TID 0000.0001) >        0.03567068
(PID.TID 0000.0001) >        0.03528119
(PID.TID 0000.0001) >        0.03429798
(PID.TID 0000.0001) >        0.03285426
(PID.TID 0000.0001) >        0.03319703
(PID.TID 0000.0001) >        0.03280700
(PID.TID 0000.0001) >        0.03246718
(PID.TID 0000.0001) >        0.03151321
(PID.TID 0000.0001) >        0.03237005
(PID.TID 0000.0001) >        0.03467840
(PID.TID 0000.0001) >        0.03887486
(PID.TID 0000.0001) >        0.04425615
(PID.TID 0000.0001) >        0.04831862
(PID.TID 0000.0001) >        0.04858530
(PID.TID 0000.0001) >        0.04574655
(PID.TID 0000.0001) >        0.04201343
(PID.TID 0000.0001) >        0.04048565
(PID.TID 0000.0001) >        0.03938458
(PID.TID 0000.0001) >        0.03799471
(PID.TID 0000.0001) >        0.03686806
(PID.TID 0000.0001) >        0.03792774
(PID.TID 0000.0001) >        0.03851224
(PID.TID 0000.0001) >        0.04011639
(PID.TID 0000.0001) >        0.04388373
(PID.TID 0000.0001) >        0.04632144
(PID.TID 0000.0001) >        0.04848074
(PID.TID 0000.0001) >        0.04656891
(PID.TID 0000.0001) >        0.04165369
(PID.TID 0000.0001) >        0.03791665
(PID.TID 0000.0001) >        0.03815636
(PID.TID 0000.0001) >        0.03871958
(PID.TID 0000.0001) >        0.03753415
(PID.TID 0000.0001) >        0.03729899
(PID.TID 0000.0001) >        0.04003057
(PID.TID 0000.0001) >        0.04457429
(PID.TID 0000.0001) >        0.04814349
(PID.TID 0000.0001) >        0.05030210
(PID.TID 0000.0001) >        0.05236099
(PID.TID 0000.0001) >        0.05185569
(PID.TID 0000.0001) 
(PID.TID 0000.0001) etaday defined by gencost  28
(PID.TID 0000.0001) 
(PID.TID 0000.0001) // =======================================================
(PID.TID 0000.0001) // ECCO configuration >>> START <<<
(PID.TID 0000.0001) // =======================================================
(PID.TID 0000.0001) 
(PID.TID 0000.0001) gencost( 1) = siv4-conc
(PID.TID 0000.0001) -------------
(PID.TID 0000.0001)  data file = NOAA_NSIDC_DAILY_v3b_MAPPED_TO_LLC90
(PID.TID 0000.0001)   starts and ends at :
(PID.TID 0000.0001)   19920101  130000  2   6
(PID.TID 0000.0001)   19930630  190000  1   6
(PID.TID 0000.0001)   number of records =   547
(PID.TID 0000.0001)  model file = m_gbar_area
(PID.TID 0000.0001)  error file = sigma_iceconc_eccollc_coastalmask_areascaled.bin
(PID.TID 0000.0001)  gencost_flag =  2
(PID.TID 0000.0001)  gencost_outputlevel =  1
(PID.TID 0000.0001) 
(PID.TID 0000.0001) gencost( 2) = siv4-deconc
(PID.TID 0000.0001) -------------
(PID.TID 0000.0001)  data file = NOAA_NSIDC_DAILY_v3b_MAPPED_TO_LLC90
(PID.TID 0000.0001)   starts and ends at :
(PID.TID 0000.0001)   19920101  130000  2   6
(PID.TID 0000.0001)   19930630  190000  1   6
(PID.TID 0000.0001)   number of records =   547
(PID.TID 0000.0001)  model file = m_gbar_deconc
(PID.TID 0000.0001)  error file = seaiceproxy_sigma_coastalmask_areascaled.bin
(PID.TID 0000.0001)  gencost_flag =  2
(PID.TID 0000.0001)  gencost_outputlevel =  1
(PID.TID 0000.0001) 
(PID.TID 0000.0001) gencost( 3) = siv4-exconc
(PID.TID 0000.0001) -------------
(PID.TID 0000.0001)  data file = NOAA_NSIDC_DAILY_v3b_MAPPED_TO_LLC90
(PID.TID 0000.0001)   starts and ends at :
(PID.TID 0000.0001)   19920101  130000  2   6
(PID.TID 0000.0001)   19930630  190000  1   6
(PID.TID 0000.0001)   number of records =   547
(PID.TID 0000.0001)  model file = m_gbar_exconc
(PID.TID 0000.0001)  error file = seaiceproxy_sigma_coastalmask_areascaled.bin
(PID.TID 0000.0001)  gencost_flag =  2
(PID.TID 0000.0001)  gencost_outputlevel =  1
(PID.TID 0000.0001) 
(PID.TID 0000.0001) gencost( 4) = sst-reynoldsmean
(PID.TID 0000.0001) -------------
(PID.TID 0000.0001)  data file = reynolds_oiv2_r1_mar2018_simasked
(PID.TID 0000.0001)   starts and ends at :
(PID.TID 0000.0001)   19920101  130000  2   6
(PID.TID 0000.0001)   19930630  190000  1   6
(PID.TID 0000.0001)   number of records =    18
(PID.TID 0000.0001)  model file = m_sstmon
(PID.TID 0000.0001)  error file = sigma_half_areascaled.bin
(PID.TID 0000.0001)  preprocess = mean
(PID.TID 0000.0001)  gencost_flag =  1
(PID.TID 0000.0001)  gencost_outputlevel =  1
(PID.TID 0000.0001) 
(PID.TID 0000.0001) gencost( 5) = sst-reynoldsanom
(PID.TID 0000.0001) -------------
(PID.TID 0000.0001)  data file = reynolds_oiv2_r1_mar2018_simasked
(PID.TID 0000.0001)   starts and ends at :
(PID.TID 0000.0001)   19920101  130000  2   6
(PID.TID 0000.0001)   19930630  190000  1   6
(PID.TID 0000.0001)   number of records =    18
(PID.TID 0000.0001)  model file = m_sstmon
(PID.TID 0000.0001)  error file = sigma_half_areascaled.bin
(PID.TID 0000.0001)  preprocess = anom
(PID.TID 0000.0001)  gencost_flag =  1
(PID.TID 0000.0001)  gencost_outputlevel =  1
(PID.TID 0000.0001)  skip barfile write =  T
(PID.TID 0000.0001) 
(PID.TID 0000.0001) gencost( 6) = bpv4-grace
(PID.TID 0000.0001) -------------
(PID.TID 0000.0001)  data file = GRACE_jpl_rl05m_20180122
(PID.TID 0000.0001)   starts and ends at :
(PID.TID 0000.0001)   19920101  130000  2   6
(PID.TID 0000.0001)   19930630  190000  1   6
(PID.TID 0000.0001)   number of records =    18
(PID.TID 0000.0001)  model file = m_bp_nopabarmon
(PID.TID 0000.0001)  error file = GRACE_jpl_rl05m_20180122_err_areascaled
(PID.TID 0000.0001)  gencost_flag = -1
(PID.TID 0000.0001)  gencost_outputlevel =  1
(PID.TID 0000.0001) 
(PID.TID 0000.0001) gencost( 7) = thetamean
(PID.TID 0000.0001) -------------
(PID.TID 0000.0001)  data file = T_monthly_woa09_highlatnearsurface_masked
(PID.TID 0000.0001)   starts and ends at :
(PID.TID 0000.0001)   19920101  130000  2   6
(PID.TID 0000.0001)   19930630  190000  1   6
(PID.TID 0000.0001)   number of records =    18
(PID.TID 0000.0001)  model file = m_thetamon
(PID.TID 0000.0001)  error file = Theta_sigma_smoothed_method_02_masked_merged_capped_areascaled.bin
(PID.TID 0000.0001)  preprocess = mean
(PID.TID 0000.0001)  gencost_flag =  1
(PID.TID 0000.0001)  gencost_outputlevel =  1
(PID.TID 0000.0001)  gencost_pointer3d =  1
(PID.TID 0000.0001) 
(PID.TID 0000.0001) gencost( 8) = saltmean
(PID.TID 0000.0001) -------------
(PID.TID 0000.0001)  data file = S_monthly_woa09_highlatnearsurface_masked
(PID.TID 0000.0001)   starts and ends at :
(PID.TID 0000.0001)   19920101  130000  2   6
(PID.TID 0000.0001)   19930630  190000  1   6
(PID.TID 0000.0001)   number of records =    18
(PID.TID 0000.0001)  model file = m_saltmon
(PID.TID 0000.0001)  error file = Salt_sigma_smoothed_method_02_masked_merged_capped_areascaled.bin
(PID.TID 0000.0001)  preprocess = mean
(PID.TID 0000.0001)  gencost_flag =  1
(PID.TID 0000.0001)  gencost_outputlevel =  1
(PID.TID 0000.0001)  gencost_pointer3d =  2
(PID.TID 0000.0001) 
(PID.TID 0000.0001) gencost(11) = sshv4-mdt
(PID.TID 0000.0001) -------------
(PID.TID 0000.0001)  data file = mdt2_dtu17.bin
(PID.TID 0000.0001)  model file =
(PID.TID 0000.0001)  error file = mdt_dtu13_error_m_areascaled.bin
(PID.TID 0000.0001)  posprocess = smooth
(PID.TID 0000.0001)  gencost_flag = -1
(PID.TID 0000.0001)  gencost_outputlevel =  1
(PID.TID 0000.0001)  skip barfile write =  T
(PID.TID 0000.0001) 
(PID.TID 0000.0001) gencost(12) = sshv4-tp
(PID.TID 0000.0001) -------------
(PID.TID 0000.0001)  data file = RADS_TJ_mar2018
(PID.TID 0000.0001)   starts and ends at :
(PID.TID 0000.0001)   19920101       0  2   6
(PID.TID 0000.0001)   19930630  190000  1   6
(PID.TID 0000.0001)   number of records =   547
(PID.TID 0000.0001)  model file = m_eta_dynday
(PID.TID 0000.0001)  error file = slaerr_gridscale_r5_areascaled.err
(PID.TID 0000.0001)  gencost_flag = -1
(PID.TID 0000.0001)  gencost_outputlevel =  1
(PID.TID 0000.0001) 
(PID.TID 0000.0001) gencost(13) = sshv4-ers
(PID.TID 0000.0001) -------------
(PID.TID 0000.0001)  data file = RADS_ERS_ENV_SA_mar2018
(PID.TID 0000.0001)   starts and ends at :
(PID.TID 0000.0001)   19920101       0  2   6
(PID.TID 0000.0001)   19930630  190000  1   6
(PID.TID 0000.0001)   number of records =   547
(PID.TID 0000.0001)  model file =
(PID.TID 0000.0001)  error file = slaerr_gridscale_r5_areascaled.err
(PID.TID 0000.0001)  gencost_flag = -1
(PID.TID 0000.0001)  gencost_outputlevel =  1
(PID.TID 0000.0001)  skip barfile write =  T
(PID.TID 0000.0001) 
(PID.TID 0000.0001) gencost(14) = sshv4-gfo
(PID.TID 0000.0001) -------------
(PID.TID 0000.0001)  data file = RADS_GFO_C2_mar2018
(PID.TID 0000.0001)   starts and ends at :
(PID.TID 0000.0001)   19920101       0  2   6
(PID.TID 0000.0001)   19930630  190000  1   6
(PID.TID 0000.0001)   number of records =   547
(PID.TID 0000.0001)  model file =
(PID.TID 0000.0001)  error file = slaerr_gridscale_r5_areascaled.err
(PID.TID 0000.0001)  gencost_flag = -1
(PID.TID 0000.0001)  gencost_outputlevel =  1
(PID.TID 0000.0001)  skip barfile write =  T
(PID.TID 0000.0001) 
(PID.TID 0000.0001) gencost(15) = sshv4-lsc
(PID.TID 0000.0001) -------------
(PID.TID 0000.0001)  model file =
(PID.TID 0000.0001)  error file = slaerr_largescale_r5_areascaled.err
(PID.TID 0000.0001)  posprocess = smooth
(PID.TID 0000.0001)  gencost_flag = -1
(PID.TID 0000.0001)  gencost_outputlevel =  1
(PID.TID 0000.0001)  skip barfile write =  T
(PID.TID 0000.0001) 
(PID.TID 0000.0001) gencost(17) = thetaanom
(PID.TID 0000.0001) -------------
(PID.TID 0000.0001)  data file = T_monthly_woa09_highlatnearsurface_masked
(PID.TID 0000.0001)   starts and ends at :
(PID.TID 0000.0001)   19920101  130000  2   6
(PID.TID 0000.0001)   19930630  190000  1   6
(PID.TID 0000.0001)   number of records =    18
(PID.TID 0000.0001)  model file = m_thetamon
(PID.TID 0000.0001)  error file = Theta_sigma_smoothed_method_02_masked_merged_capped_areascaled.bin
(PID.TID 0000.0001)  preprocess = clim
(PID.TID 0000.0001)  preprocess = anom
(PID.TID 0000.0001)  gencost_flag =  1
(PID.TID 0000.0001)  gencost_outputlevel =  1
(PID.TID 0000.0001)  gencost_pointer3d =  3
(PID.TID 0000.0001)  skip barfile write =  T
(PID.TID 0000.0001) 
(PID.TID 0000.0001) gencost(18) = saltanom
(PID.TID 0000.0001) -------------
(PID.TID 0000.0001)  data file = S_monthly_woa09_highlatnearsurface_masked
(PID.TID 0000.0001)   starts and ends at :
(PID.TID 0000.0001)   19920101  130000  2   6
(PID.TID 0000.0001)   19930630  190000  1   6
(PID.TID 0000.0001)   number of records =    18
(PID.TID 0000.0001)  model file = m_saltmon
(PID.TID 0000.0001)  error file = Salt_sigma_smoothed_method_02_masked_merged_capped_areascaled.bin
(PID.TID 0000.0001)  preprocess = clim
(PID.TID 0000.0001)  preprocess = anom
(PID.TID 0000.0001)  gencost_flag =  1
(PID.TID 0000.0001)  gencost_outputlevel =  1
(PID.TID 0000.0001)  gencost_pointer3d =  4
(PID.TID 0000.0001)  skip barfile write =  T
(PID.TID 0000.0001) 
(PID.TID 0000.0001) gencost(19) = sss_AQanom
(PID.TID 0000.0001) -------------
(PID.TID 0000.0001)  data file = monthlyL3v5_20180129
(PID.TID 0000.0001)   starts and ends at :
(PID.TID 0000.0001)   19920101  130000  2   6
(PID.TID 0000.0001)   19930630  190000  1   6
(PID.TID 0000.0001)   number of records =    18
(PID.TID 0000.0001)  model file = m_sssmon
(PID.TID 0000.0001)  error file = errStdAQ_v3_llc_090_floored_areascaled
(PID.TID 0000.0001)  preprocess = anom
(PID.TID 0000.0001)  gencost_flag =  1
(PID.TID 0000.0001)  gencost_outputlevel =  1
(PID.TID 0000.0001) 
(PID.TID 0000.0001) gencost(20) = sss_AQmean
(PID.TID 0000.0001) -------------
(PID.TID 0000.0001)  data file = monthlyL3v5_20180129
(PID.TID 0000.0001)   starts and ends at :
(PID.TID 0000.0001)   19920101  130000  2   6
(PID.TID 0000.0001)   19930630  190000  1   6
(PID.TID 0000.0001)   number of records =    18
(PID.TID 0000.0001)  model file = m_sssmon
(PID.TID 0000.0001)  error file = biasStdAQ_v3_llc_090_floored_areascaled
(PID.TID 0000.0001)  preprocess = mean
(PID.TID 0000.0001)  gencost_flag =  1
(PID.TID 0000.0001)  gencost_outputlevel =  1
(PID.TID 0000.0001)  skip barfile write =  T
(PID.TID 0000.0001) 
(PID.TID 0000.0001) gencost(21) = gmbp
(PID.TID 0000.0001) -------------
(PID.TID 0000.0001)  data file = GRACE_jpl_rl05m_20180122_SpatialMean.asc
(PID.TID 0000.0001)   starts and ends at :
(PID.TID 0000.0001)   19920101  130000  2   6
(PID.TID 0000.0001)   19930630  190000  1   6
(PID.TID 0000.0001)   number of records =    18
(PID.TID 0000.0001)  model file = m_bp_nopabarmon
(PID.TID 0000.0001)  error file =
(PID.TID 0000.0001)  gencost_flag =  1
(PID.TID 0000.0001)  gencost_outputlevel =  1
(PID.TID 0000.0001)  skip barfile write =  T
(PID.TID 0000.0001) 
(PID.TID 0000.0001) gencost(22) = gmsl
(PID.TID 0000.0001) -------------
(PID.TID 0000.0001)  data file = 20180228_ensemble_average_gmsl_ref.asc
(PID.TID 0000.0001)   starts and ends at :
(PID.TID 0000.0001)   19920101  130000  2   6
(PID.TID 0000.0001)   19930630  190000  1   6
(PID.TID 0000.0001)   number of records =    18
(PID.TID 0000.0001)  model file = m_eta_dynmon
(PID.TID 0000.0001)  error file =
(PID.TID 0000.0001)  gencost_flag =  1
(PID.TID 0000.0001)  gencost_outputlevel =  1
(PID.TID 0000.0001) 
(PID.TID 0000.0001) gencost(27) = RADS_TJ_mar2018
(PID.TID 0000.0001) -------------
(PID.TID 0000.0001)  data file = RADS_TJ_mar2018
(PID.TID 0000.0001)   starts and ends at :
(PID.TID 0000.0001)   19920101       0  2   6
(PID.TID 0000.0001)   19930630  190000  1   6
(PID.TID 0000.0001)   number of records =   547
(PID.TID 0000.0001)  model file = m_etaday
(PID.TID 0000.0001)  error file = slaerr_gridscale_r5_areascaled.err
(PID.TID 0000.0001)  gencost_flag =  1
(PID.TID 0000.0001)  gencost_outputlevel =  1
(PID.TID 0000.0001) 
(PID.TID 0000.0001) gencost(28) = 20180228_ensemble_average_gmsl_ref.asc
(PID.TID 0000.0001) -------------
(PID.TID 0000.0001)  data file = 20180228_ensemble_average_gmsl_ref.asc
(PID.TID 0000.0001)   starts and ends at :
(PID.TID 0000.0001)   19920101  130000  2   6
(PID.TID 0000.0001)   19930630  190000  1   6
(PID.TID 0000.0001)   number of records =    18
(PID.TID 0000.0001)  model file = m_etamon
(PID.TID 0000.0001)  error file =
(PID.TID 0000.0001)  gencost_flag =  1
(PID.TID 0000.0001)  gencost_outputlevel =  1
(PID.TID 0000.0001) 
(PID.TID 0000.0001) gencost(29) = GRACE_jpl_rl05m_20180122_SpatialMean.asc
(PID.TID 0000.0001) -------------
(PID.TID 0000.0001)  data file = GRACE_jpl_rl05m_20180122_SpatialMean.asc
(PID.TID 0000.0001)   starts and ends at :
(PID.TID 0000.0001)   19920101  130000  2   6
(PID.TID 0000.0001)   19930630  190000  1   6
(PID.TID 0000.0001)   number of records =    18
(PID.TID 0000.0001)  model file = m_bpmon
(PID.TID 0000.0001)  error file =
(PID.TID 0000.0001)  gencost_flag =  1
(PID.TID 0000.0001)  gencost_outputlevel =  1
(PID.TID 0000.0001) 
(PID.TID 0000.0001) gencost(30) = GRACE_fake_daily
(PID.TID 0000.0001) -------------
(PID.TID 0000.0001)  data file = GRACE_fake_daily
(PID.TID 0000.0001)   starts and ends at :
(PID.TID 0000.0001)   19920101  130000  2   6
(PID.TID 0000.0001)   19930630  190000  1   6
(PID.TID 0000.0001)   number of records =   547
(PID.TID 0000.0001)  model file = m_bpday
(PID.TID 0000.0001)  error file = GRACE_jpl_rl05m_20180122_err_areascaled
(PID.TID 0000.0001)  gencost_flag =  1
(PID.TID 0000.0001)  gencost_outputlevel =  1
(PID.TID 0000.0001) 
(PID.TID 0000.0001) gencost(31) = GRACE_fake_daily
(PID.TID 0000.0001) -------------
(PID.TID 0000.0001)  data file = GRACE_fake_daily
(PID.TID 0000.0001)   starts and ends at :
(PID.TID 0000.0001)   19920101  130000  2   6
(PID.TID 0000.0001)   19930630  190000  1   6
(PID.TID 0000.0001)   number of records =   547
(PID.TID 0000.0001)  model file = m_bp_nopabarday
(PID.TID 0000.0001)  error file = GRACE_jpl_rl05m_20180122_err_areascaled
(PID.TID 0000.0001)  gencost_flag =  1
(PID.TID 0000.0001)  gencost_outputlevel =  1
(PID.TID 0000.0001) 
(PID.TID 0000.0001) 
(PID.TID 0000.0001) 
(PID.TID 0000.0001) // =======================================================
(PID.TID 0000.0001) // ECCO configuration  >>> END <<<
(PID.TID 0000.0001) // =======================================================
(PID.TID 0000.0001) 
(PID.TID 0000.0001) 
(PID.TID 0000.0001) // =======================================================
(PID.TID 0000.0001) // insitu profiles model sampling >>> START <<<
(PID.TID 0000.0001) // =======================================================
(PID.TID 0000.0001) 
(PID.TID 0000.0001) 
(PID.TID 0000.0001)   profilesDir profiles/
(PID.TID 0000.0001)   profilesDoGenGrid      T
(PID.TID 0000.0001)   profilesDoNcOutput     F
(PID.TID 0000.0001) 
(PID.TID 0000.0001) 
(PID.TID 0000.0001) profiles file #  1 is ARGO_20190131_95to13
(PID.TID 0000.0001)   current tile is bi,bj                      =   1,   1
(PID.TID 0000.0001)   # of depth levels in file                  =       55
(PID.TID 0000.0001)   # of profiles in file                      =  1069993
(PID.TID 0000.0001)   # of profiles with erroneous HHMMSS values =        0
(PID.TID 0000.0001)   # of profiles within tile and time period  =        0
(PID.TID 0000.0001)   variable #  1 is            prof_T and theta
(PID.TID 0000.0001)   variable #  2 is            prof_S and salt
(PID.TID 0000.0001) 
(PID.TID 0000.0001) profiles file #  2 is ARGO_20190131_14to17
(PID.TID 0000.0001)   current tile is bi,bj                      =   1,   1
(PID.TID 0000.0001)   # of depth levels in file                  =       55
(PID.TID 0000.0001)   # of profiles in file                      =   616384
(PID.TID 0000.0001)   # of profiles with erroneous HHMMSS values =        0
(PID.TID 0000.0001)   # of profiles within tile and time period  =        0
(PID.TID 0000.0001)   variable #  1 is            prof_T and theta
(PID.TID 0000.0001)   variable #  2 is            prof_S and salt
(PID.TID 0000.0001) 
(PID.TID 0000.0001) profiles file #  3 is APB_20190131_97to04
(PID.TID 0000.0001)   current tile is bi,bj                      =   1,   1
(PID.TID 0000.0001)   # of depth levels in file                  =       55
(PID.TID 0000.0001)   # of profiles in file                      =    28422
(PID.TID 0000.0001)   # of profiles with erroneous HHMMSS values =        0
(PID.TID 0000.0001)   # of profiles within tile and time period  =        0
(PID.TID 0000.0001)   variable #  1 is            prof_T and theta
(PID.TID 0000.0001)   variable #  2 is            prof_S and salt
(PID.TID 0000.0001) 
(PID.TID 0000.0001) profiles file #  4 is CTD_20190131_92to05
(PID.TID 0000.0001)   current tile is bi,bj                      =   1,   1
(PID.TID 0000.0001)   # of depth levels in file                  =      102
(PID.TID 0000.0001)   # of profiles in file                      =   321615
(PID.TID 0000.0001)   # of profiles with erroneous HHMMSS values =        0
(PID.TID 0000.0001)   # of profiles within tile and time period  =       13
(PID.TID 0000.0001)   variable #  1 is            prof_T and theta
(PID.TID 0000.0001)   variable #  2 is            prof_S and salt
(PID.TID 0000.0001) 
(PID.TID 0000.0001) profiles file #  5 is GLD_20190131_02to11
(PID.TID 0000.0001)   current tile is bi,bj                      =   1,   1
(PID.TID 0000.0001)   # of depth levels in file                  =       98
(PID.TID 0000.0001)   # of profiles in file                      =    18190
(PID.TID 0000.0001)   # of profiles with erroneous HHMMSS values =        0
(PID.TID 0000.0001)   # of profiles within tile and time period  =        0
(PID.TID 0000.0001)   variable #  1 is            prof_T and theta
(PID.TID 0000.0001)   variable #  2 is            prof_S and salt
(PID.TID 0000.0001) 
(PID.TID 0000.0001) profiles file #  6 is GLD_20190131_12to13
(PID.TID 0000.0001)   current tile is bi,bj                      =   1,   1
(PID.TID 0000.0001)   # of depth levels in file                  =       98
(PID.TID 0000.0001)   # of profiles in file                      =     5507
(PID.TID 0000.0001)   # of profiles with erroneous HHMMSS values =        0
(PID.TID 0000.0001)   # of profiles within tile and time period  =        0
(PID.TID 0000.0001)   variable #  1 is            prof_T and theta
(PID.TID 0000.0001)   variable #  2 is            prof_S and salt
(PID.TID 0000.0001) 
(PID.TID 0000.0001) profiles file #  7 is GLD_20190131_14to15
(PID.TID 0000.0001)   current tile is bi,bj                      =   1,   1
(PID.TID 0000.0001)   # of depth levels in file                  =       98
(PID.TID 0000.0001)   # of profiles in file                      =    14876
(PID.TID 0000.0001)   # of profiles with erroneous HHMMSS values =        0
(PID.TID 0000.0001)   # of profiles within tile and time period  =        0
(PID.TID 0000.0001)   variable #  1 is            prof_T and theta
(PID.TID 0000.0001)   variable #  2 is            prof_S and salt
(PID.TID 0000.0001) 
(PID.TID 0000.0001) profiles file #  8 is MRB_20190131_92to03
(PID.TID 0000.0001)   current tile is bi,bj                      =   1,   1
(PID.TID 0000.0001)   # of depth levels in file                  =       42
(PID.TID 0000.0001)   # of profiles in file                      =   118013
(PID.TID 0000.0001)   # of profiles with erroneous HHMMSS values =        0
(PID.TID 0000.0001)   # of profiles within tile and time period  =        0
(PID.TID 0000.0001)   variable #  1 is            prof_T and theta
(PID.TID 0000.0001)   variable #  2 is            prof_S and salt
(PID.TID 0000.0001) 
(PID.TID 0000.0001) profiles file #  9 is MRB_20190131_04to04
(PID.TID 0000.0001)   current tile is bi,bj                      =   1,   1
(PID.TID 0000.0001)   # of depth levels in file                  =       42
(PID.TID 0000.0001)   # of profiles in file                      =    20634
(PID.TID 0000.0001)   # of profiles with erroneous HHMMSS values =        0
(PID.TID 0000.0001)   # of profiles within tile and time period  =        0
(PID.TID 0000.0001)   variable #  1 is            prof_T and theta
(PID.TID 0000.0001)   variable #  2 is            prof_S and salt
(PID.TID 0000.0001) 
(PID.TID 0000.0001) profiles file # 10 is XBT_20190131_92to05
(PID.TID 0000.0001)   current tile is bi,bj                      =   1,   1
(PID.TID 0000.0001)   # of depth levels in file                  =       77
(PID.TID 0000.0001)   # of profiles in file                      =   631537
(PID.TID 0000.0001)   # of profiles with erroneous HHMMSS values =        0
(PID.TID 0000.0001)   # of profiles within tile and time period  =       14
(PID.TID 0000.0001)   variable #  1 is            prof_T and theta
(PID.TID 0000.0001)   variable #  2 is            prof_S and salt
(PID.TID 0000.0001) 
(PID.TID 0000.0001) profiles file # 11 is XBT_20190131_06to17
(PID.TID 0000.0001)   current tile is bi,bj                      =   1,   1
(PID.TID 0000.0001)   # of depth levels in file                  =       77
(PID.TID 0000.0001)   # of profiles in file                      =   219966
(PID.TID 0000.0001)   # of profiles with erroneous HHMMSS values =        0
(PID.TID 0000.0001)   # of profiles within tile and time period  =        0
(PID.TID 0000.0001)   variable #  1 is            prof_T and theta
(PID.TID 0000.0001)   variable #  2 is            prof_S and salt
(PID.TID 0000.0001) 
(PID.TID 0000.0001) profiles file # 12 is ITP_20190131_04to13
(PID.TID 0000.0001)   current tile is bi,bj                      =   1,   1
(PID.TID 0000.0001)   # of depth levels in file                  =       61
(PID.TID 0000.0001)   # of profiles in file                      =    15843
(PID.TID 0000.0001)   # of profiles with erroneous HHMMSS values =        0
(PID.TID 0000.0001)   # of profiles within tile and time period  =        0
(PID.TID 0000.0001)   variable #  1 is            prof_T and theta
(PID.TID 0000.0001)   variable #  2 is            prof_S and salt
(PID.TID 0000.0001) 
(PID.TID 0000.0001) profiles file # 18 is GLD_20190131_16to17
(PID.TID 0000.0001)   current tile is bi,bj                      =   1,   1
(PID.TID 0000.0001)   # of depth levels in file                  =       98
(PID.TID 0000.0001)   # of profiles in file                      =    13165
(PID.TID 0000.0001)   # of profiles with erroneous HHMMSS values =        0
(PID.TID 0000.0001)   # of profiles within tile and time period  =        0
(PID.TID 0000.0001)   variable #  1 is            prof_T and theta
(PID.TID 0000.0001)   variable #  2 is            prof_S and salt
(PID.TID 0000.0001) 
(PID.TID 0000.0001) profiles file # 19 is GOSHIP_20190131_92to17
(PID.TID 0000.0001)   current tile is bi,bj                      =   1,   1
(PID.TID 0000.0001)   # of depth levels in file                  =       94
(PID.TID 0000.0001)   # of profiles in file                      =    26976
(PID.TID 0000.0001)   # of profiles with erroneous HHMMSS values =        0
(PID.TID 0000.0001)   # of profiles within tile and time period  =        4
(PID.TID 0000.0001)   variable #  1 is            prof_T and theta
(PID.TID 0000.0001)   variable #  2 is            prof_S and salt
(PID.TID 0000.0001) 
(PID.TID 0000.0001) profiles file # 20 is MRB_20190131_05to05
(PID.TID 0000.0001)   current tile is bi,bj                      =   1,   1
(PID.TID 0000.0001)   # of depth levels in file                  =       42
(PID.TID 0000.0001)   # of profiles in file                      =    22143
(PID.TID 0000.0001)   # of profiles with erroneous HHMMSS values =        0
(PID.TID 0000.0001)   # of profiles within tile and time period  =        0
(PID.TID 0000.0001)   variable #  1 is            prof_T and theta
(PID.TID 0000.0001)   variable #  2 is            prof_S and salt
(PID.TID 0000.0001) 
(PID.TID 0000.0001) profiles file # 21 is MRB_20190131_06to17
(PID.TID 0000.0001)   current tile is bi,bj                      =   1,   1
(PID.TID 0000.0001)   # of depth levels in file                  =       42
(PID.TID 0000.0001)   # of profiles in file                      =   332880
(PID.TID 0000.0001)   # of profiles with erroneous HHMMSS values =        0
(PID.TID 0000.0001)   # of profiles within tile and time period  =        0
(PID.TID 0000.0001)   variable #  1 is            prof_T and theta
(PID.TID 0000.0001)   variable #  2 is            prof_S and salt
(PID.TID 0000.0001) 
(PID.TID 0000.0001) profiles file # 22 is CTD_20190131_06to17
(PID.TID 0000.0001)   current tile is bi,bj                      =   1,   1
(PID.TID 0000.0001)   # of depth levels in file                  =      102
(PID.TID 0000.0001)   # of profiles in file                      =   239089
(PID.TID 0000.0001)   # of profiles with erroneous HHMMSS values =        0
(PID.TID 0000.0001)   # of profiles within tile and time period  =        0
(PID.TID 0000.0001)   variable #  1 is            prof_T and theta
(PID.TID 0000.0001)   variable #  2 is            prof_S and salt
(PID.TID 0000.0001) 
(PID.TID 0000.0001) profiles file # 23 is ITP_20190131_14to17
(PID.TID 0000.0001)   current tile is bi,bj                      =   1,   1
(PID.TID 0000.0001)   # of depth levels in file                  =       61
(PID.TID 0000.0001)   # of profiles in file                      =     6421
(PID.TID 0000.0001)   # of profiles with erroneous HHMMSS values =        0
(PID.TID 0000.0001)   # of profiles within tile and time period  =        0
(PID.TID 0000.0001)   variable #  1 is            prof_T and theta
(PID.TID 0000.0001)   variable #  2 is            prof_S and salt
(PID.TID 0000.0001) 
(PID.TID 0000.0001) profiles file # 24 is APB_20190131_05to05
(PID.TID 0000.0001)   current tile is bi,bj                      =   1,   1
(PID.TID 0000.0001)   # of depth levels in file                  =       55
(PID.TID 0000.0001)   # of profiles in file                      =    23163
(PID.TID 0000.0001)   # of profiles with erroneous HHMMSS values =        0
(PID.TID 0000.0001)   # of profiles within tile and time period  =        0
(PID.TID 0000.0001)   variable #  1 is            prof_T and theta
(PID.TID 0000.0001)   variable #  2 is            prof_S and salt
(PID.TID 0000.0001) 
(PID.TID 0000.0001) profiles file # 25 is APB_20190131_06to06
(PID.TID 0000.0001)   current tile is bi,bj                      =   1,   1
(PID.TID 0000.0001)   # of depth levels in file                  =       55
(PID.TID 0000.0001)   # of profiles in file                      =     8594
(PID.TID 0000.0001)   # of profiles with erroneous HHMMSS values =        0
(PID.TID 0000.0001)   # of profiles within tile and time period  =        0
(PID.TID 0000.0001)   variable #  1 is            prof_T and theta
(PID.TID 0000.0001)   variable #  2 is            prof_S and salt
(PID.TID 0000.0001) 
(PID.TID 0000.0001) profiles file # 26 is APB_20190131_07to07
(PID.TID 0000.0001)   current tile is bi,bj                      =   1,   1
(PID.TID 0000.0001)   # of depth levels in file                  =       55
(PID.TID 0000.0001)   # of profiles in file                      =    24983
(PID.TID 0000.0001)   # of profiles with erroneous HHMMSS values =        0
(PID.TID 0000.0001)   # of profiles within tile and time period  =        0
(PID.TID 0000.0001)   variable #  1 is            prof_T and theta
(PID.TID 0000.0001)   variable #  2 is            prof_S and salt
(PID.TID 0000.0001) 
(PID.TID 0000.0001) profiles file # 27 is APB_20190131_08to09
(PID.TID 0000.0001)   current tile is bi,bj                      =   1,   1
(PID.TID 0000.0001)   # of depth levels in file                  =       55
(PID.TID 0000.0001)   # of profiles in file                      =    81905
(PID.TID 0000.0001)   # of profiles with erroneous HHMMSS values =        0
(PID.TID 0000.0001)   # of profiles within tile and time period  =        0
(PID.TID 0000.0001)   variable #  1 is            prof_T and theta
(PID.TID 0000.0001)   variable #  2 is            prof_S and salt
(PID.TID 0000.0001) 
(PID.TID 0000.0001) profiles file # 28 is APB_20190131_10to17
(PID.TID 0000.0001)   current tile is bi,bj                      =   1,   1
(PID.TID 0000.0001)   # of depth levels in file                  =       55
(PID.TID 0000.0001)   # of profiles in file                      =   202245
(PID.TID 0000.0001)   # of profiles with erroneous HHMMSS values =        0
(PID.TID 0000.0001)   # of profiles within tile and time period  =        0
(PID.TID 0000.0001)   variable #  1 is            prof_T and theta
(PID.TID 0000.0001)   variable #  2 is            prof_S and salt
(PID.TID 0000.0001) 
(PID.TID 0000.0001) profiles file # 29 is CCHDO_20190131_92to17
(PID.TID 0000.0001)   current tile is bi,bj                      =   1,   1
(PID.TID 0000.0001)   # of depth levels in file                  =       94
(PID.TID 0000.0001)   # of profiles in file                      =    26976
(PID.TID 0000.0001)   # of profiles with erroneous HHMMSS values =        0
(PID.TID 0000.0001)   # of profiles within tile and time period  =        4
(PID.TID 0000.0001)   variable #  1 is            prof_T and theta
(PID.TID 0000.0001)   variable #  2 is            prof_S and salt
(PID.TID 0000.0001) NLEVELCOMB =    139
(PID.TID 0000.0001) 
(PID.TID 0000.0001) // =======================================================
(PID.TID 0000.0001) // insitu profiles model sampling >>> END <<<
(PID.TID 0000.0001) // =======================================================
(PID.TID 0000.0001) 
(PID.TID 0000.0001) // =======================================================
(PID.TID 0000.0001) // Seaice configuration (SEAICE_PARM01) >>> START <<<
(PID.TID 0000.0001) // =======================================================
(PID.TID 0000.0001) 
(PID.TID 0000.0001)    Seaice time stepping configuration   > START <
(PID.TID 0000.0001)    ----------------------------------------------
(PID.TID 0000.0001) SEAICE_deltaTtherm= /* thermodynamic timestep */
(PID.TID 0000.0001)                 3.600000000000000E+03
(PID.TID 0000.0001)     ;
(PID.TID 0000.0001) SEAICE_deltaTdyn  = /* dynamic timestep */
(PID.TID 0000.0001)                 3.600000000000000E+03
(PID.TID 0000.0001)     ;
(PID.TID 0000.0001) SEAICE_deltaTevp  = /* EVP timestep */
(PID.TID 0000.0001)                 1.234567000000000E+05
(PID.TID 0000.0001)     ;
(PID.TID 0000.0001) SEAICEuseBDF2  = /* use backw. differencing for mom. eq. */
(PID.TID 0000.0001)                   F
(PID.TID 0000.0001)     ;
(PID.TID 0000.0001) SEAICErestoreUnderIce  = /* restore T and S under ice */
(PID.TID 0000.0001)                   T
(PID.TID 0000.0001)     ;
(PID.TID 0000.0001) 
(PID.TID 0000.0001)    Seaice dynamics configuration   > START <
(PID.TID 0000.0001)    ------------------------------------------
(PID.TID 0000.0001) SEAICEuseDYNAMICS = /* use dynamics */
(PID.TID 0000.0001)                   T
(PID.TID 0000.0001)     ;
(PID.TID 0000.0001) model grid type   = /* type of sea ice model grid */
(PID.TID 0000.0001)               'C-GRID'
(PID.TID 0000.0001)     ;
(PID.TID 0000.0001) SEAICEuseStrImpCpl = /* use strongly implicit coupling */
(PID.TID 0000.0001)                   F
(PID.TID 0000.0001)     ;
(PID.TID 0000.0001) SEAICEusePicardAsPrecon = /* Picard as preconditioner */
(PID.TID 0000.0001)                   F
(PID.TID 0000.0001)     ;
(PID.TID 0000.0001) SEAICEuseLSR      = /* use default Picard-LSR solver */
(PID.TID 0000.0001)                   T
(PID.TID 0000.0001)     ;
(PID.TID 0000.0001) SEAICEuseKrylov   = /* use Picard-Krylov solver */
(PID.TID 0000.0001)                   F
(PID.TID 0000.0001)     ;
(PID.TID 0000.0001) SEAICEuseEVP      = /* use EVP solver rather than LSR */
(PID.TID 0000.0001)                   F
(PID.TID 0000.0001)     ;
(PID.TID 0000.0001) SEAICEuseJFNK     = /* use JFNK solver */
(PID.TID 0000.0001)                   F
(PID.TID 0000.0001)     ;
(PID.TID 0000.0001) SEAICEuseFREEDRIFT = /* use free drift solution */
(PID.TID 0000.0001)                   F
(PID.TID 0000.0001)     ;
(PID.TID 0000.0001) OCEAN_drag        = /* air-ocean drag coefficient */
(PID.TID 0000.0001)                 1.000000000000000E-03
(PID.TID 0000.0001)     ;
(PID.TID 0000.0001) SEAICE_drag       = /* air-ice drag coefficient */
(PID.TID 0000.0001)                 1.000000000000000E-03
(PID.TID 0000.0001)     ;
(PID.TID 0000.0001) SEAICE_drag_south      = /* Southern Ocean SEAICE_drag */
(PID.TID 0000.0001)                 1.000000000000000E-03
(PID.TID 0000.0001)     ;
(PID.TID 0000.0001) SEAICE_waterDrag  = /* water-ice drag * density */
(PID.TID 0000.0001)                 5.500000000000000E+00
(PID.TID 0000.0001)     ;
(PID.TID 0000.0001) SEAICE_waterDrag_south = /* Southern Ocean waterDrag */
(PID.TID 0000.0001)                 5.500000000000000E+00
(PID.TID 0000.0001)     ;
(PID.TID 0000.0001) SEAICEuseTilt     = /* include surface tilt in dyna. */
(PID.TID 0000.0001)                   F
(PID.TID 0000.0001)     ;
(PID.TID 0000.0001) SEAICEuseTEM      = /* use truncated ellipse rheology */
(PID.TID 0000.0001)                   F
(PID.TID 0000.0001)     ;
(PID.TID 0000.0001) SEAICE_strength   = /* sea-ice strength Pstar */
(PID.TID 0000.0001)                 2.250000000000000E+04
(PID.TID 0000.0001)     ;
(PID.TID 0000.0001) SEAICE_cStar      = /* sea-ice strength parameter cStar */
(PID.TID 0000.0001)                 2.000000000000000E+01
(PID.TID 0000.0001)     ;
(PID.TID 0000.0001) SEAICEpressReplFac= /* press. replacement method factor */
(PID.TID 0000.0001)                 1.000000000000000E+00
(PID.TID 0000.0001)     ;
(PID.TID 0000.0001) SEAICE_tensilFac  = /* sea-ice tensile strength factor */
(PID.TID 0000.0001)                 0.000000000000000E+00
(PID.TID 0000.0001)     ;
(PID.TID 0000.0001) SEAICE_tensilDepth= /* crit. depth for tensile strength */
(PID.TID 0000.0001)                 0.000000000000000E+00
(PID.TID 0000.0001)     ;
(PID.TID 0000.0001) SEAICEpresH0   = /* sea-ice strength Heff threshold */
(PID.TID 0000.0001)                 2.000000000000000E+00
(PID.TID 0000.0001)     ;
(PID.TID 0000.0001) SEAICEpresPow0 = /* exponent for Heff<SEAICEpresH0 */
(PID.TID 0000.0001)                       1
(PID.TID 0000.0001)     ;
(PID.TID 0000.0001) SEAICEpresPow1 = /* exponent for Heff>SEAICEpresH0 */
(PID.TID 0000.0001)                       1
(PID.TID 0000.0001)     ;
(PID.TID 0000.0001) SEAICEetaZmethod = /* method computing eta at Z-point */
(PID.TID 0000.0001)                       0
(PID.TID 0000.0001)     ;
(PID.TID 0000.0001) SEAICE_zetaMin    = /* lower bound for viscosity */
(PID.TID 0000.0001)                 0.000000000000000E+00
(PID.TID 0000.0001)     ;
(PID.TID 0000.0001) SEAICE_eccen    = /* elliptical yield curve eccent */
(PID.TID 0000.0001)                 2.000000000000000E+00
(PID.TID 0000.0001)     ;
(PID.TID 0000.0001) SEAICEstressFactor    = /* wind stress scaling factor */
(PID.TID 0000.0001)                 1.000000000000000E+00
(PID.TID 0000.0001)     ;
(PID.TID 0000.0001) SEAICE_airTurnAngle    = /* air-ice turning angle */
(PID.TID 0000.0001)                 0.000000000000000E+00
(PID.TID 0000.0001)     ;
(PID.TID 0000.0001) SEAICE_waterTurnAngle  = /* ice-water turning angle */
(PID.TID 0000.0001)                 0.000000000000000E+00
(PID.TID 0000.0001)     ;
(PID.TID 0000.0001) SEAICEuseMetricTerms = /* use metric terms */
(PID.TID 0000.0001)                   T
(PID.TID 0000.0001)     ;
(PID.TID 0000.0001) SEAICE_no_slip    = /* no slip boundary conditions */
(PID.TID 0000.0001)                   T
(PID.TID 0000.0001)     ;
(PID.TID 0000.0001) SEAICE_clipVeloctities = /* impose max. vels. */
(PID.TID 0000.0001)                   T
(PID.TID 0000.0001)     ;
(PID.TID 0000.0001) useHB87stressCoupling  = /* altern. ice-ocean stress */
(PID.TID 0000.0001)                   F
(PID.TID 0000.0001)     ;
(PID.TID 0000.0001) SEAICEscaleSurfStress  = /* scale atm. and ocean-surface stress with AREA */
(PID.TID 0000.0001)                   F
(PID.TID 0000.0001)     ;
(PID.TID 0000.0001) SEAICE_maskRHS    = /* mask RHS of solver */
(PID.TID 0000.0001)                   F
(PID.TID 0000.0001)     ;
(PID.TID 0000.0001) SEAICEaddSnowMass = /* add snow mass to seaiceMassC/U/V */
(PID.TID 0000.0001)                   F
(PID.TID 0000.0001)     ;
(PID.TID 0000.0001) LSR_mixIniGuess = /* mix free-drift sol. into LSR initial Guess */
(PID.TID 0000.0001)                       0
(PID.TID 0000.0001)     ;
(PID.TID 0000.0001) SEAICE_LSRrelaxU  = /* LSR solver: relaxation parameter */
(PID.TID 0000.0001)                 9.500000000000000E-01
(PID.TID 0000.0001)     ;
(PID.TID 0000.0001) SEAICE_LSRrelaxV  = /* LSR solver: relaxation parameter */
(PID.TID 0000.0001)                 9.500000000000000E-01
(PID.TID 0000.0001)     ;
(PID.TID 0000.0001) LSR_ERROR         = /* sets accuracy of LSR solver */
(PID.TID 0000.0001)                 2.000000000000000E-04
(PID.TID 0000.0001)     ;
(PID.TID 0000.0001) SOLV_NCHECK       = /* test interval for LSR solver */
(PID.TID 0000.0001)                       2
(PID.TID 0000.0001)     ;
(PID.TID 0000.0001) SEAICEuseMultiTileSolver = /* use full domain tri-diag solver */
(PID.TID 0000.0001)                   F
(PID.TID 0000.0001)     ;
(PID.TID 0000.0001) SEAICE_OLx = /* overlap for LSR/preconditioner */
(PID.TID 0000.0001)                       0
(PID.TID 0000.0001)     ;
(PID.TID 0000.0001) SEAICE_OLy = /* overlap for LSR/preconditioner */
(PID.TID 0000.0001)                       0
(PID.TID 0000.0001)     ;
(PID.TID 0000.0001) SEAICEnonLinIterMax = /* max. number of nonlinear solver steps */
(PID.TID 0000.0001)                       2
(PID.TID 0000.0001)     ;
(PID.TID 0000.0001) SEAICElinearIterMax = /* max. number of linear solver steps */
(PID.TID 0000.0001)                    1500
(PID.TID 0000.0001)     ;
(PID.TID 0000.0001) SEAICEnonLinTol     = /* non-linear solver tolerance */
(PID.TID 0000.0001)                 0.000000000000000E+00
(PID.TID 0000.0001)     ;
(PID.TID 0000.0001) 
(PID.TID 0000.0001)    Seaice advection diffusion config,   > START <
(PID.TID 0000.0001)    -----------------------------------------------
(PID.TID 0000.0001) SEAICEadvHeff = /* advect effective ice thickness */
(PID.TID 0000.0001)                   T
(PID.TID 0000.0001)     ;
(PID.TID 0000.0001) SEAICEadvArea = /* advect fractional ice area */
(PID.TID 0000.0001)                   T
(PID.TID 0000.0001)     ;
(PID.TID 0000.0001) SEAICEadvSnow = /* advect snow layer together with ice */
(PID.TID 0000.0001)                   T
(PID.TID 0000.0001)     ;
(PID.TID 0000.0001) SEAICEadvScheme   = /* advection scheme for ice */
(PID.TID 0000.0001)                      33
(PID.TID 0000.0001)     ;
(PID.TID 0000.0001) SEAICEadvSchArea   = /* advection scheme for area */
(PID.TID 0000.0001)                      33
(PID.TID 0000.0001)     ;
(PID.TID 0000.0001) SEAICEadvSchHeff   = /* advection scheme for thickness */
(PID.TID 0000.0001)                      33
(PID.TID 0000.0001)     ;
(PID.TID 0000.0001) SEAICEadvSchSnow   = /* advection scheme for snow */
(PID.TID 0000.0001)                      33
(PID.TID 0000.0001)     ;
(PID.TID 0000.0001) SEAICEdiffKhArea   = /* diffusivity (m^2/s) for area */
(PID.TID 0000.0001)                 4.000000000000000E+02
(PID.TID 0000.0001)     ;
(PID.TID 0000.0001) SEAICEdiffKhHeff   = /* diffusivity (m^2/s) for heff */
(PID.TID 0000.0001)                 4.000000000000000E+02
(PID.TID 0000.0001)     ;
(PID.TID 0000.0001) SEAICEdiffKhSnow   = /* diffusivity (m^2/s) for snow */
(PID.TID 0000.0001)                 4.000000000000000E+02
(PID.TID 0000.0001)     ;
(PID.TID 0000.0001) DIFF1             = /* parameter used in advect.F [m/s] */
(PID.TID 0000.0001)                 0.000000000000000E+00
(PID.TID 0000.0001)     ;
(PID.TID 0000.0001) 
(PID.TID 0000.0001)    Seaice thermodynamics configuration   > START <
(PID.TID 0000.0001)    -----------------------------------------------
(PID.TID 0000.0001) SEAICE_rhoIce     = /* density of sea ice (kg/m3) */
(PID.TID 0000.0001)                 9.100000000000000E+02
(PID.TID 0000.0001)     ;
(PID.TID 0000.0001) SEAICE_rhoSnow    = /* density of snow (kg/m3) */
(PID.TID 0000.0001)                 3.300000000000000E+02
(PID.TID 0000.0001)     ;
(PID.TID 0000.0001) SEAICE_rhoAir     = /* density of air (kg/m3) */
(PID.TID 0000.0001)                 1.200000000000000E+00
(PID.TID 0000.0001)     ;
(PID.TID 0000.0001) usePW79thermodynamics  = /* default 0-layer TD */
(PID.TID 0000.0001)                   T
(PID.TID 0000.0001)     ;
(PID.TID 0000.0001) SEAICE_lhEvap     = /* latent heat of evaporation */
(PID.TID 0000.0001)                 2.500000000000000E+06
(PID.TID 0000.0001)     ;
(PID.TID 0000.0001) SEAICE_lhFusion   = /* latent heat of fusion */
(PID.TID 0000.0001)                 3.340000000000000E+05
(PID.TID 0000.0001)     ;
(PID.TID 0000.0001) SEAICE_mcPheePiston = /* turbulent flux "piston velocity" a la McPhee (m/s) */
(PID.TID 0000.0001)                 3.858024691358025E-05
(PID.TID 0000.0001)     ;
(PID.TID 0000.0001) SEAICE_mcPheeTaper = /* tapering of turbulent flux (0.< <1.) for AREA=1. */
(PID.TID 0000.0001)                 0.000000000000000E+00
(PID.TID 0000.0001)     ;
(PID.TID 0000.0001) SEAICE_mcPheeStepFunc = /* replace linear tapering with step funct. */
(PID.TID 0000.0001)                   F
(PID.TID 0000.0001)     ;
(PID.TID 0000.0001) SEAICE_frazilFrac = /* frazil (T<tempFrz) to seaice conversion rate (0.< <1.) */
(PID.TID 0000.0001)                 1.000000000000000E+00
(PID.TID 0000.0001)     ;
(PID.TID 0000.0001) SEAICE_tempFrz0   = /* freezing temp. of sea water (intercept) */
(PID.TID 0000.0001)                -1.960000000000000E+00
(PID.TID 0000.0001)     ;
(PID.TID 0000.0001) SEAICE_dTempFrz_dS= /* freezing temp. of sea water (slope) */
(PID.TID 0000.0001)                 0.000000000000000E+00
(PID.TID 0000.0001)     ;
(PID.TID 0000.0001) SEAICE_growMeltByConv  = /* grow,melt by vert. conv. */
(PID.TID 0000.0001)                   F
(PID.TID 0000.0001)     ;
(PID.TID 0000.0001) SEAICE_doOpenWaterGrowth = /* grow by open water */
(PID.TID 0000.0001)                   T
(PID.TID 0000.0001)     ;
(PID.TID 0000.0001) SEAICE_doOpenWaterMelt = /* melt by open water */
(PID.TID 0000.0001)                   F
(PID.TID 0000.0001)     ;
(PID.TID 0000.0001) SEAICE_areaGainFormula = /* ice cover gain formula (1,2)*/
(PID.TID 0000.0001)                       1
(PID.TID 0000.0001)     1=from growth by ATM
(PID.TID 0000.0001)     2=from predicted growth by ATM
(PID.TID 0000.0001)     ;
(PID.TID 0000.0001) SEAICE_areaLossFormula = /* ice cover loss formula (1,2)*/
(PID.TID 0000.0001)                       2
(PID.TID 0000.0001)     1=from all but only melt conributions by ATM and OCN
(PID.TID 0000.0001)     2=from net melt-grow>0 by ATM and OCN
(PID.TID 0000.0001)     3=from predicted melt by ATM
(PID.TID 0000.0001)     ;
(PID.TID 0000.0001) HO                = /* nominal thickness of new ice */
(PID.TID 0000.0001)                 5.000000000000000E-01
(PID.TID 0000.0001)     ;
(PID.TID 0000.0001) HO_south               = /* Southern Ocean HO */
(PID.TID 0000.0001)                 5.000000000000000E-01
(PID.TID 0000.0001)     ;
(PID.TID 0000.0001) SEAICE_area_max        = /* set to les than 1. to mimic open leads */
(PID.TID 0000.0001)                 9.700000000000000E-01
(PID.TID 0000.0001)     ;
(PID.TID 0000.0001) SEAICE_salt0   = /* constant sea ice salinity */
(PID.TID 0000.0001)                 4.000000000000000E+00
(PID.TID 0000.0001)     ;
(PID.TID 0000.0001) SEAICE_salinityTracer = /* test SITR varia. salinity */
(PID.TID 0000.0001)                   F
(PID.TID 0000.0001)     ;
(PID.TID 0000.0001) SEAICEuseFlooding = /* turn submerged snow into ice */
(PID.TID 0000.0001)                   T
(PID.TID 0000.0001)     ;
(PID.TID 0000.0001) 
(PID.TID 0000.0001)    Seaice air-sea fluxes configuration,   > START <
(PID.TID 0000.0001)    -----------------------------------------------
(PID.TID 0000.0001) SEAICEheatConsFix  = /* accound for ocn<->seaice advect. heat flux */
(PID.TID 0000.0001)                   T
(PID.TID 0000.0001)     ;
(PID.TID 0000.0001) SEAICE_multDim    = /* number of ice categories (1 or 7) */
(PID.TID 0000.0001)                       1
(PID.TID 0000.0001)     ;
(PID.TID 0000.0001) SEAICE_PDF        = /* sea-ice distribution (-) */
(PID.TID 0000.0001)                 1.000000000000000E+00,      /* K =  1 */
(PID.TID 0000.0001)     6 @  0.000000000000000E+00              /* K =  2:  7 */
(PID.TID 0000.0001)     ;
(PID.TID 0000.0001) IMAX_TICE         = /* iterations for ice surface temp */
(PID.TID 0000.0001)                      10
(PID.TID 0000.0001)     ;
(PID.TID 0000.0001) postSolvTempIter= /* flux calculation after surf. temp iter */
(PID.TID 0000.0001)                       2
(PID.TID 0000.0001)     ;
(PID.TID 0000.0001) SEAICE_dryIceAlb  = /* winter albedo */
(PID.TID 0000.0001)                 8.400000000000000E-01
(PID.TID 0000.0001)     ;
(PID.TID 0000.0001) SEAICE_wetIceAlb  = /* summer albedo */
(PID.TID 0000.0001)                 7.800000000000000E-01
(PID.TID 0000.0001)     ;
(PID.TID 0000.0001) SEAICE_drySnowAlb = /* dry snow albedo */
(PID.TID 0000.0001)                 9.000000000000000E-01
(PID.TID 0000.0001)     ;
(PID.TID 0000.0001) SEAICE_wetSnowAlb = /* wet snow albedo */
(PID.TID 0000.0001)                 8.000000000000000E-01
(PID.TID 0000.0001)     ;
(PID.TID 0000.0001) SEAICE_dryIceAlb_south = /* Southern Ocean dryIceAlb */
(PID.TID 0000.0001)                 7.500000000000000E-01
(PID.TID 0000.0001)     ;
(PID.TID 0000.0001) SEAICE_wetIceAlb_south = /* Southern Ocean wetIceAlb */
(PID.TID 0000.0001)                 6.600000000000000E-01
(PID.TID 0000.0001)     ;
(PID.TID 0000.0001) SEAICE_drySnowAlb_south= /* Southern Ocean drySnowAlb */
(PID.TID 0000.0001)                 8.400000000000000E-01
(PID.TID 0000.0001)     ;
(PID.TID 0000.0001) SEAICE_wetSnowAlb_south= /* Southern Ocean wetSnowAlb */
(PID.TID 0000.0001)                 7.000000000000000E-01
(PID.TID 0000.0001)     ;
(PID.TID 0000.0001) SEAICE_wetAlbTemp= /* Temp (o.C) threshold for wet-albedo */
(PID.TID 0000.0001)                -1.000000000000000E-03
(PID.TID 0000.0001)     ;
(PID.TID 0000.0001) SEAICE_snow_emiss = /* snow emissivity */
(PID.TID 0000.0001)                 9.500000000000000E-01
(PID.TID 0000.0001)     ;
(PID.TID 0000.0001) SEAICE_ice_emiss = /* seaice emissivity */
(PID.TID 0000.0001)                 9.500000000000000E-01
(PID.TID 0000.0001)     ;
(PID.TID 0000.0001) SEAICE_cpAir      = /* heat capacity of air */
(PID.TID 0000.0001)                 1.005000000000000E+03
(PID.TID 0000.0001)     ;
(PID.TID 0000.0001) SEAICE_dalton     = /* constant dalton number */
(PID.TID 0000.0001)                 1.750000000000000E-03
(PID.TID 0000.0001)     ;
(PID.TID 0000.0001) SEAICE_iceConduct = /* sea-ice conductivity */
(PID.TID 0000.0001)                 2.165600000000000E+00
(PID.TID 0000.0001)     ;
(PID.TID 0000.0001) SEAICE_snowConduct= /* snow conductivity */
(PID.TID 0000.0001)                 3.100000000000000E-01
(PID.TID 0000.0001)     ;
(PID.TID 0000.0001) SEAICE_snowThick  = /* cutoff snow thickness (for albedo) */
(PID.TID 0000.0001)                 1.500000000000000E-01
(PID.TID 0000.0001)     ;
(PID.TID 0000.0001) SEAICE_shortwave  = /* penetration shortwave radiation */
(PID.TID 0000.0001)                 3.000000000000000E-01
(PID.TID 0000.0001)     ;
(PID.TID 0000.0001) useMaykutSatVapPoly = /* use Maykut Polynomial for Sat.Vap.Pr */
(PID.TID 0000.0001)                   F
(PID.TID 0000.0001)     ;
(PID.TID 0000.0001) MIN_ATEMP         = /* minimum air temperature */
(PID.TID 0000.0001)                -4.000000000000000E+01
(PID.TID 0000.0001)     ;
(PID.TID 0000.0001) MIN_LWDOWN        = /* minimum downward longwave */
(PID.TID 0000.0001)                 6.000000000000000E+01
(PID.TID 0000.0001)     ;
(PID.TID 0000.0001) MIN_TICE          = /* minimum ice temperature */
(PID.TID 0000.0001)                -4.000000000000000E+01
(PID.TID 0000.0001)     ;
(PID.TID 0000.0001) 
(PID.TID 0000.0001)    Seaice initialization and IO config.,   > START <
(PID.TID 0000.0001)    -------------------------------------------------
(PID.TID 0000.0001) SEAICE_initialHEFF= /* initial sea-ice thickness */
(PID.TID 0000.0001)                 0.000000000000000E+00
(PID.TID 0000.0001)     ;
(PID.TID 0000.0001) AreaFile = /* Initial ice concentration File */
(PID.TID 0000.0001)               ''
(PID.TID 0000.0001)     ;
(PID.TID 0000.0001) HeffFile = /* Initial effective ice thickness File */
(PID.TID 0000.0001)               ''
(PID.TID 0000.0001)     ;
(PID.TID 0000.0001) HsnowFile = /* Initial snow thickness File */
(PID.TID 0000.0001)               ''
(PID.TID 0000.0001)     ;
(PID.TID 0000.0001) uIceFile = /* Initial U-ice velocity File */
(PID.TID 0000.0001)               ''
(PID.TID 0000.0001)     ;
(PID.TID 0000.0001) vIceFile = /* Initial V-ice velocity File */
(PID.TID 0000.0001)               ''
(PID.TID 0000.0001)     ;
(PID.TID 0000.0001) SEAICEwriteState  = /* write sea ice state to file */
(PID.TID 0000.0001)                   F
(PID.TID 0000.0001)     ;
(PID.TID 0000.0001) SEAICE_monFreq  = /* monitor frequency */
(PID.TID 0000.0001)                 6.307200000000000E+06
(PID.TID 0000.0001)     ;
(PID.TID 0000.0001) SEAICE_dumpFreq   = /* dump frequency */
(PID.TID 0000.0001)                 0.000000000000000E+00
(PID.TID 0000.0001)     ;
(PID.TID 0000.0001) SEAICE_taveFreq   = /* time-averaging frequency */
(PID.TID 0000.0001)                 0.000000000000000E+00
(PID.TID 0000.0001)     ;
(PID.TID 0000.0001) SEAICE_mon_stdio  = /* write monitor to std-outp */
(PID.TID 0000.0001)                   T
(PID.TID 0000.0001)     ;
(PID.TID 0000.0001) SEAICE_dump_mdsio = /* write snap-shot   using MDSIO */
(PID.TID 0000.0001)                   T
(PID.TID 0000.0001)     ;
(PID.TID 0000.0001) SEAICE_tave_mdsio = /* write TimeAverage using MDSIO */
(PID.TID 0000.0001)                   T
(PID.TID 0000.0001)     ;
(PID.TID 0000.0001) 
(PID.TID 0000.0001)    Seaice regularization numbers,   > START <
(PID.TID 0000.0001)    -----------------------------------------------
(PID.TID 0000.0001) SEAICE_deltaMin   = /* reduce singularities in Delta */
(PID.TID 0000.0001)                 1.000000000000000E-10
(PID.TID 0000.0001)     ;
(PID.TID 0000.0001) SEAICE_EPS        = /* small number */
(PID.TID 0000.0001)                 1.000000000000000E-10
(PID.TID 0000.0001)     ;
(PID.TID 0000.0001) SEAICE_EPS_SQ     = /* small number squared */
(PID.TID 0000.0001)                 1.000000000000000E-20
(PID.TID 0000.0001)     ;
(PID.TID 0000.0001) SEAICE_area_reg   = /* reduce derivative singularities */
(PID.TID 0000.0001)                 1.000000000000000E-05
(PID.TID 0000.0001)     ;
(PID.TID 0000.0001) SEAICE_hice_reg   = /* reduce derivative singularities */
(PID.TID 0000.0001)                 5.000000000000000E-02
(PID.TID 0000.0001)     ;
(PID.TID 0000.0001) SEAICE_area_floor = /* reduce derivative singularities */
(PID.TID 0000.0001)                 1.000000000000000E-05
(PID.TID 0000.0001)     ;
(PID.TID 0000.0001) 
(PID.TID 0000.0001) // =======================================================
(PID.TID 0000.0001) // Seaice configuration (SEAICE_PARM01) >>> END <<<
(PID.TID 0000.0001) // =======================================================
(PID.TID 0000.0001) 
(PID.TID 0000.0001) ctrl-wet 1:    nvarlength =        81120
(PID.TID 0000.0001) ctrl-wet 2: surface wet C =          312
(PID.TID 0000.0001) ctrl-wet 3: surface wet W =          312
(PID.TID 0000.0001) ctrl-wet 4: surface wet S =          283
(PID.TID 0000.0001) ctrl-wet 4a:surface wet V =            0
(PID.TID 0000.0001) ctrl-wet 5: 3D wet points =        11544
(PID.TID 0000.0001) ctrl-wet 6: no recs for i =     1           0
(PID.TID 0000.0001) ctrl-wet 6: no recs for i =     2           0
(PID.TID 0000.0001) ctrl-wet 6: no recs for i =     3           0
(PID.TID 0000.0001) ctrl-wet 6: no recs for i =     4           0
(PID.TID 0000.0001) ctrl-wet 6: no recs for i =     5           0
(PID.TID 0000.0001) ctrl-wet 6: no recs for i =     6           0
(PID.TID 0000.0001) ctrl-wet 6: no recs for i =     7           0
(PID.TID 0000.0001) ctrl-wet 6: no recs for i =     8           0
(PID.TID 0000.0001) ctrl-wet 6: no recs for i =     9           0
(PID.TID 0000.0001) ctrl-wet 6: no recs for i =    10           0
(PID.TID 0000.0001) ctrl-wet 6: no recs for i =    11           0
(PID.TID 0000.0001) ctrl-wet 6: no recs for i =    12           0
(PID.TID 0000.0001) ctrl-wet 6: no recs for i =    13           0
(PID.TID 0000.0001) ctrl-wet 6: no recs for i =    14           0
(PID.TID 0000.0001) ctrl-wet 6: no recs for i =    15           0
(PID.TID 0000.0001) ctrl-wet 6: no recs for i =    16           0
(PID.TID 0000.0001) ctrl-wet 6: no recs for i =    17           0
(PID.TID 0000.0001) ctrl-wet 6: no recs for i =    18           0
(PID.TID 0000.0001) ctrl-wet 6: no recs for i =    19           0
(PID.TID 0000.0001) ctrl-wet 6: no recs for i =    20           0
(PID.TID 0000.0001) ctrl-wet 6: no recs for i =    21           0
(PID.TID 0000.0001) ctrl-wet 6: no recs for i =    22           0
(PID.TID 0000.0001) ctrl-wet 6: no recs for i =    23           0
(PID.TID 0000.0001) ctrl-wet 6: no recs for i =    24           0
(PID.TID 0000.0001) ctrl-wet 6: no recs for i =    25           0
(PID.TID 0000.0001) ctrl-wet 6: no recs for i =    26           0
(PID.TID 0000.0001) ctrl-wet 6: no recs for i =    27           0
(PID.TID 0000.0001) ctrl-wet 6: no recs for i =    28           0
(PID.TID 0000.0001) ctrl-wet 6: no recs for i =    29           0
(PID.TID 0000.0001) ctrl-wet 6: no recs for i =    30           0
(PID.TID 0000.0001) ctrl-wet 6: no recs for i =    31           0
(PID.TID 0000.0001) ctrl-wet 6: no recs for i =    32           0
(PID.TID 0000.0001) ctrl-wet 6: no recs for i =    33           0
(PID.TID 0000.0001) ctrl-wet 6: no recs for i =    34           0
(PID.TID 0000.0001) ctrl-wet 6: no recs for i =    35           0
(PID.TID 0000.0001) ctrl-wet 6: no recs for i =    36           0
(PID.TID 0000.0001) ctrl-wet 6: no recs for i =    37           0
(PID.TID 0000.0001) ctrl-wet 6: no recs for i =    38           0
(PID.TID 0000.0001) ctrl-wet 6: no recs for i =    39           0
(PID.TID 0000.0001) ctrl-wet 6: no recs for i =    40           0
(PID.TID 0000.0001) ctrl-wet 6: no recs for i =    41           0
(PID.TID 0000.0001) ctrl-wet 6: no recs for i =    42           0
(PID.TID 0000.0001) ctrl-wet 6: no recs for i =    43           0
(PID.TID 0000.0001) ctrl-wet 6: no recs for i =    44           0
(PID.TID 0000.0001) ctrl-wet 6: no recs for i =    45           0
(PID.TID 0000.0001) ctrl-wet 6: no recs for i =    46           0
(PID.TID 0000.0001) ctrl-wet 6: no recs for i =    47           0
(PID.TID 0000.0001) ctrl-wet 6: no recs for i =    48           0
(PID.TID 0000.0001) ctrl-wet 6: no recs for i =    49           0
(PID.TID 0000.0001) ctrl-wet 6: no recs for i =    50           0
(PID.TID 0000.0001) ctrl-wet 6: no recs for i =    51           0
(PID.TID 0000.0001) ctrl-wet 6: no recs for i =    52           0
(PID.TID 0000.0001) ctrl-wet 6: no recs for i =    53           0
(PID.TID 0000.0001) ctrl-wet 6: no recs for i =    54           0
(PID.TID 0000.0001) ctrl-wet 6: no recs for i =    55           0
(PID.TID 0000.0001) ctrl-wet 6: no recs for i =    56           0
(PID.TID 0000.0001) ctrl-wet 6: no recs for i =    57           0
(PID.TID 0000.0001) ctrl-wet 6: no recs for i =    58           0
(PID.TID 0000.0001) ctrl-wet 6: no recs for i =    59           0
(PID.TID 0000.0001) ctrl-wet 6: no recs for i =    60           0
(PID.TID 0000.0001) ctrl-wet 6: no recs for i =    61           0
(PID.TID 0000.0001) ctrl-wet 6: no recs for i =    62           0
(PID.TID 0000.0001) ctrl-wet 6: no recs for i =    63           0
(PID.TID 0000.0001) ctrl-wet 6: no recs for i =    64           0
(PID.TID 0000.0001) ctrl-wet 6: no recs for i =    65           0
(PID.TID 0000.0001) ctrl-wet 6: no recs for i =    66           0
(PID.TID 0000.0001) ctrl-wet 6: no recs for i =    67           0
(PID.TID 0000.0001) ctrl-wet 6: no recs for i =    68           0
(PID.TID 0000.0001) ctrl-wet 6: no recs for i =    69           0
(PID.TID 0000.0001) ctrl-wet 6: no recs for i =    70           0
(PID.TID 0000.0001) ctrl-wet 6: no recs for i =    71           0
(PID.TID 0000.0001) ctrl-wet 6: no recs for i =    72           0
(PID.TID 0000.0001) ctrl-wet 6: no recs for i =    73           0
(PID.TID 0000.0001) ctrl-wet 6: no recs for i =    74           0
(PID.TID 0000.0001) ctrl-wet 6: no recs for i =    75           0
(PID.TID 0000.0001) ctrl-wet 6: no recs for i =    76           0
(PID.TID 0000.0001) ctrl-wet 6: no recs for i =    77           0
(PID.TID 0000.0001) ctrl-wet 6: no recs for i =    78           0
(PID.TID 0000.0001) ctrl-wet 6: no recs for i =    79           0
(PID.TID 0000.0001) ctrl-wet 6: no recs for i =    80           0
(PID.TID 0000.0001) ctrl-wet 6: no recs for i =    81           0
(PID.TID 0000.0001) ctrl-wet 6: no recs for i =    82           0
(PID.TID 0000.0001) ctrl-wet 6: no recs for i =    83           0
(PID.TID 0000.0001) ctrl-wet 6: no recs for i =    84           0
(PID.TID 0000.0001) ctrl-wet 6: no recs for i =    85           0
(PID.TID 0000.0001) ctrl-wet 6: no recs for i =    86           0
(PID.TID 0000.0001) ctrl-wet 6: no recs for i =    87           0
(PID.TID 0000.0001) ctrl-wet 6: no recs for i =    88           0
(PID.TID 0000.0001) ctrl-wet 6: no recs for i =    89           0
(PID.TID 0000.0001) ctrl-wet 6: no recs for i =    90           0
(PID.TID 0000.0001) ctrl-wet 6: no recs for i =    91           0
(PID.TID 0000.0001) ctrl-wet 6: no recs for i =    92           0
(PID.TID 0000.0001) ctrl-wet 6: no recs for i =    93           0
(PID.TID 0000.0001) ctrl-wet 6: no recs for i =    94           0
(PID.TID 0000.0001) ctrl-wet 6: no recs for i =    95           0
(PID.TID 0000.0001) ctrl-wet 6: no recs for i =    96           0
(PID.TID 0000.0001) ctrl-wet 6: no recs for i =    97           0
(PID.TID 0000.0001) ctrl-wet 6: no recs for i =    98           0
(PID.TID 0000.0001) ctrl-wet 6: no recs for i =    99           0
(PID.TID 0000.0001) ctrl-wet 6: no recs for i =   100           0
(PID.TID 0000.0001) ctrl-wet 6: no recs for i =   101           1
(PID.TID 0000.0001) ctrl-wet 6: no recs for i =   102           0
(PID.TID 0000.0001) ctrl-wet 6: no recs for i =   103           0
(PID.TID 0000.0001) ctrl-wet 6: no recs for i =   104           0
(PID.TID 0000.0001) ctrl-wet 6: no recs for i =   105           0
(PID.TID 0000.0001) ctrl-wet 6: no recs for i =   106           0
(PID.TID 0000.0001) ctrl-wet 6: no recs for i =   107           0
(PID.TID 0000.0001) ctrl-wet 6: no recs for i =   108           0
(PID.TID 0000.0001) ctrl-wet 6: no recs for i =   109           0
(PID.TID 0000.0001) ctrl-wet 6: no recs for i =   110           0
(PID.TID 0000.0001) ctrl-wet 6: no recs for i =   111           0
(PID.TID 0000.0001) ctrl-wet 6: no recs for i =   112           0
(PID.TID 0000.0001) ctrl-wet 6: no recs for i =   113           0
(PID.TID 0000.0001) ctrl-wet 6: no recs for i =   114           0
(PID.TID 0000.0001) ctrl-wet 6: no recs for i =   115           0
(PID.TID 0000.0001) ctrl-wet 6: no recs for i =   116           0
(PID.TID 0000.0001) ctrl-wet 6: no recs for i =   117           0
(PID.TID 0000.0001) ctrl-wet 6: no recs for i =   118           0
(PID.TID 0000.0001) ctrl-wet 6: no recs for i =   119           0
(PID.TID 0000.0001) ctrl-wet 6: no recs for i =   120           0
(PID.TID 0000.0001) ctrl-wet 6: no recs for i =   121           0
(PID.TID 0000.0001) ctrl-wet 6: no recs for i =   122           0
(PID.TID 0000.0001) ctrl-wet 6: no recs for i =   123           0
(PID.TID 0000.0001) ctrl-wet 6: no recs for i =   124           0
(PID.TID 0000.0001) ctrl-wet 6: no recs for i =   125           0
(PID.TID 0000.0001) ctrl-wet 6: no recs for i =   126           0
(PID.TID 0000.0001) ctrl-wet 6: no recs for i =   127           0
(PID.TID 0000.0001) ctrl-wet 6: no recs for i =   128           0
(PID.TID 0000.0001) ctrl-wet 6: no recs for i =   129           0
(PID.TID 0000.0001) ctrl-wet 6: no recs for i =   130           0
(PID.TID 0000.0001) ctrl-wet 6: no recs for i =   131           0
(PID.TID 0000.0001) ctrl-wet 6: no recs for i =   132           0
(PID.TID 0000.0001) ctrl-wet 6: no recs for i =   133           0
(PID.TID 0000.0001) ctrl-wet 6: no recs for i =   134           0
(PID.TID 0000.0001) ctrl-wet 6: no recs for i =   135           0
(PID.TID 0000.0001) ctrl-wet 6: no recs for i =   136           0
(PID.TID 0000.0001) ctrl-wet 6: no recs for i =   137           0
(PID.TID 0000.0001) ctrl-wet 6: no recs for i =   138           0
(PID.TID 0000.0001) ctrl-wet 6: no recs for i =   139           0
(PID.TID 0000.0001) ctrl-wet 6: no recs for i =   140           0
(PID.TID 0000.0001) ctrl-wet 6: no recs for i =   141           0
(PID.TID 0000.0001) ctrl-wet 6: no recs for i =   142           0
(PID.TID 0000.0001) ctrl-wet 6: no recs for i =   143           0
(PID.TID 0000.0001) ctrl-wet 6: no recs for i =   144           0
(PID.TID 0000.0001) ctrl-wet 6: no recs for i =   145           0
(PID.TID 0000.0001) ctrl-wet 6: no recs for i =   146           0
(PID.TID 0000.0001) ctrl-wet 6: no recs for i =   147           0
(PID.TID 0000.0001) ctrl-wet 6: no recs for i =   148           0
(PID.TID 0000.0001) ctrl-wet 6: no recs for i =   149           0
(PID.TID 0000.0001) ctrl-wet 6: no recs for i =   150           0
(PID.TID 0000.0001) ctrl-wet 6: no recs for i =   151           0
(PID.TID 0000.0001) ctrl-wet 6: no recs for i =   152           0
(PID.TID 0000.0001) ctrl-wet 6: no recs for i =   153           0
(PID.TID 0000.0001) ctrl-wet 6: no recs for i =   154           0
(PID.TID 0000.0001) ctrl-wet 6: no recs for i =   155           0
(PID.TID 0000.0001) ctrl-wet 6: no recs for i =   156           0
(PID.TID 0000.0001) ctrl-wet 6: no recs for i =   157           0
(PID.TID 0000.0001) ctrl-wet 6: no recs for i =   158           0
(PID.TID 0000.0001) ctrl-wet 6: no recs for i =   159           0
(PID.TID 0000.0001) ctrl-wet 6: no recs for i =   160           0
(PID.TID 0000.0001) ctrl-wet 6: no recs for i =   161           0
(PID.TID 0000.0001) ctrl-wet 6: no recs for i =   162           0
(PID.TID 0000.0001) ctrl-wet 6: no recs for i =   163           0
(PID.TID 0000.0001) ctrl-wet 6: no recs for i =   164           0
(PID.TID 0000.0001) ctrl-wet 6: no recs for i =   165           0
(PID.TID 0000.0001) ctrl-wet 6: no recs for i =   166           0
(PID.TID 0000.0001) ctrl-wet 6: no recs for i =   167           0
(PID.TID 0000.0001) ctrl-wet 6: no recs for i =   168           0
(PID.TID 0000.0001) ctrl-wet 6: no recs for i =   169           0
(PID.TID 0000.0001) ctrl-wet 6: no recs for i =   170           0
(PID.TID 0000.0001) ctrl-wet 6: no recs for i =   171           0
(PID.TID 0000.0001) ctrl-wet 6: no recs for i =   172           0
(PID.TID 0000.0001) ctrl-wet 6: no recs for i =   173           0
(PID.TID 0000.0001) ctrl-wet 6: no recs for i =   174           0
(PID.TID 0000.0001) ctrl-wet 6: no recs for i =   175           0
(PID.TID 0000.0001) ctrl-wet 6: no recs for i =   176           0
(PID.TID 0000.0001) ctrl-wet 6: no recs for i =   177           0
(PID.TID 0000.0001) ctrl-wet 6: no recs for i =   178           0
(PID.TID 0000.0001) ctrl-wet 6: no recs for i =   179           0
(PID.TID 0000.0001) ctrl-wet 6: no recs for i =   180           0
(PID.TID 0000.0001) ctrl-wet 6: no recs for i =   181           0
(PID.TID 0000.0001) ctrl-wet 6: no recs for i =   182           0
(PID.TID 0000.0001) ctrl-wet 6: no recs for i =   183           0
(PID.TID 0000.0001) ctrl-wet 6: no recs for i =   184           0
(PID.TID 0000.0001) ctrl-wet 6: no recs for i =   185           0
(PID.TID 0000.0001) ctrl-wet 6: no recs for i =   186           0
(PID.TID 0000.0001) ctrl-wet 6: no recs for i =   187           0
(PID.TID 0000.0001) ctrl-wet 6: no recs for i =   188           0
(PID.TID 0000.0001) ctrl-wet 6: no recs for i =   189           0
(PID.TID 0000.0001) ctrl-wet 6: no recs for i =   190           0
(PID.TID 0000.0001) ctrl-wet 6: no recs for i =   191           0
(PID.TID 0000.0001) ctrl-wet 6: no recs for i =   192           0
(PID.TID 0000.0001) ctrl-wet 6: no recs for i =   193           0
(PID.TID 0000.0001) ctrl-wet 6: no recs for i =   194           0
(PID.TID 0000.0001) ctrl-wet 6: no recs for i =   195           0
(PID.TID 0000.0001) ctrl-wet 6: no recs for i =   196           0
(PID.TID 0000.0001) ctrl-wet 6: no recs for i =   197           0
(PID.TID 0000.0001) ctrl-wet 6: no recs for i =   198           0
(PID.TID 0000.0001) ctrl-wet 6: no recs for i =   199           0
(PID.TID 0000.0001) ctrl-wet 6: no recs for i =   200           0
(PID.TID 0000.0001) ctrl-wet 6: no recs for i =   201           1
(PID.TID 0000.0001) ctrl-wet 6: no recs for i =   202           1
(PID.TID 0000.0001) ctrl-wet 6: no recs for i =   203           1
(PID.TID 0000.0001) ctrl-wet 6: no recs for i =   204           1
(PID.TID 0000.0001) ctrl-wet 6: no recs for i =   205           1
(PID.TID 0000.0001) ctrl-wet 6: no recs for i =   206           1
(PID.TID 0000.0001) ctrl-wet 6: no recs for i =   207           1
(PID.TID 0000.0001) ctrl-wet 6: no recs for i =   208           0
(PID.TID 0000.0001) ctrl-wet 6: no recs for i =   209           0
(PID.TID 0000.0001) ctrl-wet 6: no recs for i =   210           0
(PID.TID 0000.0001) ctrl-wet 6: no recs for i =   211           0
(PID.TID 0000.0001) ctrl-wet 6: no recs for i =   212           0
(PID.TID 0000.0001) ctrl-wet 6: no recs for i =   213           0
(PID.TID 0000.0001) ctrl-wet 6: no recs for i =   214           0
(PID.TID 0000.0001) ctrl-wet 6: no recs for i =   215           0
(PID.TID 0000.0001) ctrl-wet 6: no recs for i =   216           0
(PID.TID 0000.0001) ctrl-wet 6: no recs for i =   217           0
(PID.TID 0000.0001) ctrl-wet 6: no recs for i =   218           0
(PID.TID 0000.0001) ctrl-wet 6: no recs for i =   219           0
(PID.TID 0000.0001) ctrl-wet 6: no recs for i =   220           0
(PID.TID 0000.0001) ctrl-wet 6: no recs for i =   221           0
(PID.TID 0000.0001) ctrl-wet 6: no recs for i =   222           0
(PID.TID 0000.0001) ctrl-wet 6: no recs for i =   223           0
(PID.TID 0000.0001) ctrl-wet 6: no recs for i =   224           0
(PID.TID 0000.0001) ctrl-wet 6: no recs for i =   225           0
(PID.TID 0000.0001) ctrl-wet 6: no recs for i =   226           0
(PID.TID 0000.0001) ctrl-wet 6: no recs for i =   227           0
(PID.TID 0000.0001) ctrl-wet 6: no recs for i =   228           0
(PID.TID 0000.0001) ctrl-wet 6: no recs for i =   229           0
(PID.TID 0000.0001) ctrl-wet 6: no recs for i =   230           0
(PID.TID 0000.0001) ctrl-wet 6: no recs for i =   231           0
(PID.TID 0000.0001) ctrl-wet 6: no recs for i =   232           0
(PID.TID 0000.0001) ctrl-wet 6: no recs for i =   233           0
(PID.TID 0000.0001) ctrl-wet 6: no recs for i =   234           0
(PID.TID 0000.0001) ctrl-wet 6: no recs for i =   235           0
(PID.TID 0000.0001) ctrl-wet 6: no recs for i =   236           0
(PID.TID 0000.0001) ctrl-wet 6: no recs for i =   237           0
(PID.TID 0000.0001) ctrl-wet 6: no recs for i =   238           0
(PID.TID 0000.0001) ctrl-wet 6: no recs for i =   239           0
(PID.TID 0000.0001) ctrl-wet 6: no recs for i =   240           0
(PID.TID 0000.0001) ctrl-wet 6: no recs for i =   241           0
(PID.TID 0000.0001) ctrl-wet 6: no recs for i =   242           0
(PID.TID 0000.0001) ctrl-wet 6: no recs for i =   243           0
(PID.TID 0000.0001) ctrl-wet 6: no recs for i =   244           0
(PID.TID 0000.0001) ctrl-wet 6: no recs for i =   245           0
(PID.TID 0000.0001) ctrl-wet 6: no recs for i =   246           0
(PID.TID 0000.0001) ctrl-wet 6: no recs for i =   247           0
(PID.TID 0000.0001) ctrl-wet 6: no recs for i =   248           0
(PID.TID 0000.0001) ctrl-wet 6: no recs for i =   249           0
(PID.TID 0000.0001) ctrl-wet 6: no recs for i =   250           0
(PID.TID 0000.0001) ctrl-wet 6: no recs for i =   251           0
(PID.TID 0000.0001) ctrl-wet 6: no recs for i =   252           0
(PID.TID 0000.0001) ctrl-wet 6: no recs for i =   253           0
(PID.TID 0000.0001) ctrl-wet 6: no recs for i =   254           0
(PID.TID 0000.0001) ctrl-wet 6: no recs for i =   255           0
(PID.TID 0000.0001) ctrl-wet 6: no recs for i =   256           0
(PID.TID 0000.0001) ctrl-wet 6: no recs for i =   257           0
(PID.TID 0000.0001) ctrl-wet 6: no recs for i =   258           0
(PID.TID 0000.0001) ctrl-wet 6: no recs for i =   259           0
(PID.TID 0000.0001) ctrl-wet 6: no recs for i =   260           0
(PID.TID 0000.0001) ctrl-wet 6: no recs for i =   261           0
(PID.TID 0000.0001) ctrl-wet 6: no recs for i =   262           0
(PID.TID 0000.0001) ctrl-wet 6: no recs for i =   263           0
(PID.TID 0000.0001) ctrl-wet 6: no recs for i =   264           0
(PID.TID 0000.0001) ctrl-wet 6: no recs for i =   265           0
(PID.TID 0000.0001) ctrl-wet 6: no recs for i =   266           0
(PID.TID 0000.0001) ctrl-wet 6: no recs for i =   267           0
(PID.TID 0000.0001) ctrl-wet 6: no recs for i =   268           0
(PID.TID 0000.0001) ctrl-wet 6: no recs for i =   269           0
(PID.TID 0000.0001) ctrl-wet 6: no recs for i =   270           0
(PID.TID 0000.0001) ctrl-wet 6: no recs for i =   271           0
(PID.TID 0000.0001) ctrl-wet 6: no recs for i =   272           0
(PID.TID 0000.0001) ctrl-wet 6: no recs for i =   273           0
(PID.TID 0000.0001) ctrl-wet 6: no recs for i =   274           0
(PID.TID 0000.0001) ctrl-wet 6: no recs for i =   275           0
(PID.TID 0000.0001) ctrl-wet 6: no recs for i =   276           0
(PID.TID 0000.0001) ctrl-wet 6: no recs for i =   277           0
(PID.TID 0000.0001) ctrl-wet 6: no recs for i =   278           0
(PID.TID 0000.0001) ctrl-wet 6: no recs for i =   279           0
(PID.TID 0000.0001) ctrl-wet 6: no recs for i =   280           0
(PID.TID 0000.0001) ctrl-wet 6: no recs for i =   281           0
(PID.TID 0000.0001) ctrl-wet 6: no recs for i =   282           0
(PID.TID 0000.0001) ctrl-wet 6: no recs for i =   283           0
(PID.TID 0000.0001) ctrl-wet 6: no recs for i =   284           0
(PID.TID 0000.0001) ctrl-wet 6: no recs for i =   285           0
(PID.TID 0000.0001) ctrl-wet 6: no recs for i =   286           0
(PID.TID 0000.0001) ctrl-wet 6: no recs for i =   287           0
(PID.TID 0000.0001) ctrl-wet 6: no recs for i =   288           0
(PID.TID 0000.0001) ctrl-wet 6: no recs for i =   289           0
(PID.TID 0000.0001) ctrl-wet 6: no recs for i =   290           0
(PID.TID 0000.0001) ctrl-wet 6: no recs for i =   291           0
(PID.TID 0000.0001) ctrl-wet 6: no recs for i =   292           0
(PID.TID 0000.0001) ctrl-wet 6: no recs for i =   293           0
(PID.TID 0000.0001) ctrl-wet 6: no recs for i =   294           0
(PID.TID 0000.0001) ctrl-wet 6: no recs for i =   295           0
(PID.TID 0000.0001) ctrl-wet 6: no recs for i =   296           0
(PID.TID 0000.0001) ctrl-wet 6: no recs for i =   297           0
(PID.TID 0000.0001) ctrl-wet 6: no recs for i =   298           0
(PID.TID 0000.0001) ctrl-wet 6: no recs for i =   299           0
(PID.TID 0000.0001) ctrl-wet 6: no recs for i =   300           0
(PID.TID 0000.0001) ctrl-wet 6: no recs for i =   301           0
(PID.TID 0000.0001) ctrl-wet 6: no recs for i =   302           0
(PID.TID 0000.0001) ctrl-wet 6: no recs for i =   303           0
(PID.TID 0000.0001) ctrl-wet 6: no recs for i =   304           0
(PID.TID 0000.0001) ctrl-wet 6: no recs for i =   305           0
(PID.TID 0000.0001) ctrl-wet 6: no recs for i =   306           0
(PID.TID 0000.0001) ctrl-wet 6: no recs for i =   307           0
(PID.TID 0000.0001) ctrl-wet 6: no recs for i =   308           0
(PID.TID 0000.0001) ctrl-wet 6: no recs for i =   309           0
(PID.TID 0000.0001) ctrl-wet 6: no recs for i =   310           0
(PID.TID 0000.0001) ctrl-wet 6: no recs for i =   311           0
(PID.TID 0000.0001) ctrl-wet 6: no recs for i =   312           0
(PID.TID 0000.0001) ctrl-wet 6: no recs for i =   313           0
(PID.TID 0000.0001) ctrl-wet 6: no recs for i =   314           0
(PID.TID 0000.0001) ctrl-wet 6: no recs for i =   315           0
(PID.TID 0000.0001) ctrl-wet 6: no recs for i =   316           0
(PID.TID 0000.0001) ctrl-wet 6: no recs for i =   317           0
(PID.TID 0000.0001) ctrl-wet 6: no recs for i =   318           0
(PID.TID 0000.0001) ctrl-wet 6: no recs for i =   319           0
(PID.TID 0000.0001) ctrl-wet 6: no recs for i =   320           0
(PID.TID 0000.0001) ctrl-wet 6: no recs for i =   321           0
(PID.TID 0000.0001) ctrl-wet 6: no recs for i =   322           0
(PID.TID 0000.0001) ctrl-wet 6: no recs for i =   323           0
(PID.TID 0000.0001) ctrl-wet 6: no recs for i =   324           0
(PID.TID 0000.0001) ctrl-wet 6: no recs for i =   325           0
(PID.TID 0000.0001) ctrl-wet 6: no recs for i =   326           0
(PID.TID 0000.0001) ctrl-wet 6: no recs for i =   327           0
(PID.TID 0000.0001) ctrl-wet 6: no recs for i =   328           0
(PID.TID 0000.0001) ctrl-wet 6: no recs for i =   329           0
(PID.TID 0000.0001) ctrl-wet 6: no recs for i =   330           0
(PID.TID 0000.0001) ctrl-wet 6: no recs for i =   331           0
(PID.TID 0000.0001) ctrl-wet 6: no recs for i =   332           0
(PID.TID 0000.0001) ctrl-wet 6: no recs for i =   333           0
(PID.TID 0000.0001) ctrl-wet 6: no recs for i =   334           0
(PID.TID 0000.0001) ctrl-wet 6: no recs for i =   335           0
(PID.TID 0000.0001) ctrl-wet 6: no recs for i =   336           0
(PID.TID 0000.0001) ctrl-wet 6: no recs for i =   337           0
(PID.TID 0000.0001) ctrl-wet 6: no recs for i =   338           0
(PID.TID 0000.0001) ctrl-wet 6: no recs for i =   339           0
(PID.TID 0000.0001) ctrl-wet 6: no recs for i =   340           0
(PID.TID 0000.0001) ctrl-wet 6: no recs for i =   341           0
(PID.TID 0000.0001) ctrl-wet 6: no recs for i =   342           0
(PID.TID 0000.0001) ctrl-wet 6: no recs for i =   343           0
(PID.TID 0000.0001) ctrl-wet 6: no recs for i =   344           0
(PID.TID 0000.0001) ctrl-wet 6: no recs for i =   345           0
(PID.TID 0000.0001) ctrl-wet 6: no recs for i =   346           0
(PID.TID 0000.0001) ctrl-wet 6: no recs for i =   347           0
(PID.TID 0000.0001) ctrl-wet 6: no recs for i =   348           0
(PID.TID 0000.0001) ctrl-wet 6: no recs for i =   349           0
(PID.TID 0000.0001) ctrl-wet 6: no recs for i =   350           0
(PID.TID 0000.0001) ctrl-wet 6: no recs for i =   351           0
(PID.TID 0000.0001) ctrl-wet 6: no recs for i =   352           0
(PID.TID 0000.0001) ctrl-wet 6: no recs for i =   353           0
(PID.TID 0000.0001) ctrl-wet 6: no recs for i =   354           0
(PID.TID 0000.0001) ctrl-wet 6: no recs for i =   355           0
(PID.TID 0000.0001) ctrl-wet 6: no recs for i =   356           0
(PID.TID 0000.0001) ctrl-wet 6: no recs for i =   357           0
(PID.TID 0000.0001) ctrl-wet 6: no recs for i =   358           0
(PID.TID 0000.0001) ctrl-wet 6: no recs for i =   359           0
(PID.TID 0000.0001) ctrl-wet 6: no recs for i =   360           0
(PID.TID 0000.0001) ctrl-wet 6: no recs for i =   361           0
(PID.TID 0000.0001) ctrl-wet 6: no recs for i =   362           0
(PID.TID 0000.0001) ctrl-wet 6: no recs for i =   363           0
(PID.TID 0000.0001) ctrl-wet 6: no recs for i =   364           0
(PID.TID 0000.0001) ctrl-wet 6: no recs for i =   365           0
(PID.TID 0000.0001) ctrl-wet 6: no recs for i =   366           0
(PID.TID 0000.0001) ctrl-wet 6: no recs for i =   367           0
(PID.TID 0000.0001) ctrl-wet 6: no recs for i =   368           0
(PID.TID 0000.0001) ctrl-wet 6: no recs for i =   369           0
(PID.TID 0000.0001) ctrl-wet 6: no recs for i =   370           0
(PID.TID 0000.0001) ctrl-wet 6: no recs for i =   371           0
(PID.TID 0000.0001) ctrl-wet 6: no recs for i =   372           0
(PID.TID 0000.0001) ctrl-wet 6: no recs for i =   373           0
(PID.TID 0000.0001) ctrl-wet 6: no recs for i =   374           0
(PID.TID 0000.0001) ctrl-wet 6: no recs for i =   375           0
(PID.TID 0000.0001) ctrl-wet 6: no recs for i =   376           0
(PID.TID 0000.0001) ctrl-wet 6: no recs for i =   377           0
(PID.TID 0000.0001) ctrl-wet 6: no recs for i =   378           0
(PID.TID 0000.0001) ctrl-wet 6: no recs for i =   379           0
(PID.TID 0000.0001) ctrl-wet 6: no recs for i =   380           0
(PID.TID 0000.0001) ctrl-wet 6: no recs for i =   381           0
(PID.TID 0000.0001) ctrl-wet 6: no recs for i =   382           0
(PID.TID 0000.0001) ctrl-wet 6: no recs for i =   383           0
(PID.TID 0000.0001) ctrl-wet 6: no recs for i =   384           0
(PID.TID 0000.0001) ctrl-wet 6: no recs for i =   385           0
(PID.TID 0000.0001) ctrl-wet 6: no recs for i =   386           0
(PID.TID 0000.0001) ctrl-wet 6: no recs for i =   387           0
(PID.TID 0000.0001) ctrl-wet 6: no recs for i =   388           0
(PID.TID 0000.0001) ctrl-wet 6: no recs for i =   389           0
(PID.TID 0000.0001) ctrl-wet 6: no recs for i =   390           0
(PID.TID 0000.0001) ctrl-wet 6: no recs for i =   391           0
(PID.TID 0000.0001) ctrl-wet 6: no recs for i =   392           0
(PID.TID 0000.0001) ctrl-wet 6: no recs for i =   393           0
(PID.TID 0000.0001) ctrl-wet 6: no recs for i =   394           0
(PID.TID 0000.0001) ctrl-wet 6: no recs for i =   395           0
(PID.TID 0000.0001) ctrl-wet 6: no recs for i =   396           0
(PID.TID 0000.0001) ctrl-wet 6: no recs for i =   397           0
(PID.TID 0000.0001) ctrl-wet 6: no recs for i =   398           0
(PID.TID 0000.0001) ctrl-wet 6: no recs for i =   399           0
(PID.TID 0000.0001) ctrl-wet 6: no recs for i =   400           0
(PID.TID 0000.0001) ctrl-wet 7: flux         23088
(PID.TID 0000.0001) ctrl-wet 8: atmos        23088
(PID.TID 0000.0001) ctrl-wet -------------------------------------------------
(PID.TID 0000.0001) ctrl-wet 13: global nvarlength for Nr =   50    16909590
(PID.TID 0000.0001) ctrl-wet -------------------------------------------------
(PID.TID 0000.0001) ctrl-wet 14: global nWet C/S/W/V k=    1       60646       59295       59493           0
(PID.TID 0000.0001) ctrl-wet 14: global nWet C/S/W/V k=    2       60646       59295       59493           0
(PID.TID 0000.0001) ctrl-wet 14: global nWet C/S/W/V k=    3       59874       58517       58725           0
(PID.TID 0000.0001) ctrl-wet 14: global nWet C/S/W/V k=    4       59387       58040       58258           0
(PID.TID 0000.0001) ctrl-wet 14: global nWet C/S/W/V k=    5       58882       57536       57754           0
(PID.TID 0000.0001) ctrl-wet 14: global nWet C/S/W/V k=    6       58399       57057       57276           0
(PID.TID 0000.0001) ctrl-wet 14: global nWet C/S/W/V k=    7       58052       56735       56936           0
(PID.TID 0000.0001) ctrl-wet 14: global nWet C/S/W/V k=    8       57781       56461       56669           0
(PID.TID 0000.0001) ctrl-wet 14: global nWet C/S/W/V k=    9       57530       56212       56416           0
(PID.TID 0000.0001) ctrl-wet 14: global nWet C/S/W/V k=   10       57283       55964       56154           0
(PID.TID 0000.0001) ctrl-wet 14: global nWet C/S/W/V k=   11       57022       55702       55883           0
(PID.TID 0000.0001) ctrl-wet 14: global nWet C/S/W/V k=   12       56818       55497       55681           0
(PID.TID 0000.0001) ctrl-wet 14: global nWet C/S/W/V k=   13       56634       55322       55509           0
(PID.TID 0000.0001) ctrl-wet 14: global nWet C/S/W/V k=   14       56430       55125       55312           0
(PID.TID 0000.0001) ctrl-wet 14: global nWet C/S/W/V k=   15       56238       54935       55117           0
(PID.TID 0000.0001) ctrl-wet 14: global nWet C/S/W/V k=   16       55975       54689       54858           0
(PID.TID 0000.0001) ctrl-wet 14: global nWet C/S/W/V k=   17       55703       54421       54600           0
(PID.TID 0000.0001) ctrl-wet 14: global nWet C/S/W/V k=   18       55358       54075       54251           0
(PID.TID 0000.0001) ctrl-wet 14: global nWet C/S/W/V k=   19       54964       53666       53853           0
(PID.TID 0000.0001) ctrl-wet 14: global nWet C/S/W/V k=   20       54471       53205       53372           0
(PID.TID 0000.0001) ctrl-wet 14: global nWet C/S/W/V k=   21       53952       52716       52877           0
(PID.TID 0000.0001) ctrl-wet 14: global nWet C/S/W/V k=   22       53489       52249       52409           0
(PID.TID 0000.0001) ctrl-wet 14: global nWet C/S/W/V k=   23       52892       51633       51797           0
(PID.TID 0000.0001) ctrl-wet 14: global nWet C/S/W/V k=   24       52223       50961       51129           0
(PID.TID 0000.0001) ctrl-wet 14: global nWet C/S/W/V k=   25       51696       50480       50635           0
(PID.TID 0000.0001) ctrl-wet 14: global nWet C/S/W/V k=   26       51259       50075       50241           0
(PID.TID 0000.0001) ctrl-wet 14: global nWet C/S/W/V k=   27       50929       49774       49935           0
(PID.TID 0000.0001) ctrl-wet 14: global nWet C/S/W/V k=   28       50664       49532       49678           0
(PID.TID 0000.0001) ctrl-wet 14: global nWet C/S/W/V k=   29       50438       49306       49450           0
(PID.TID 0000.0001) ctrl-wet 14: global nWet C/S/W/V k=   30       50187       49035       49179           0
(PID.TID 0000.0001) ctrl-wet 14: global nWet C/S/W/V k=   31       49964       48805       48937           0
(PID.TID 0000.0001) ctrl-wet 14: global nWet C/S/W/V k=   32       49700       48530       48662           0
(PID.TID 0000.0001) ctrl-wet 14: global nWet C/S/W/V k=   33       49431       48260       48383           0
(PID.TID 0000.0001) ctrl-wet 14: global nWet C/S/W/V k=   34       49176       47993       48108           0
(PID.TID 0000.0001) ctrl-wet 14: global nWet C/S/W/V k=   35       48854       47652       47764           0
(PID.TID 0000.0001) ctrl-wet 14: global nWet C/S/W/V k=   36       48501       47264       47375           0
(PID.TID 0000.0001) ctrl-wet 14: global nWet C/S/W/V k=   37       48098       46846       46951           0
(PID.TID 0000.0001) ctrl-wet 14: global nWet C/S/W/V k=   38       47523       46253       46362           0
(PID.TID 0000.0001) ctrl-wet 14: global nWet C/S/W/V k=   39       46849       45558       45657           0
(PID.TID 0000.0001) ctrl-wet 14: global nWet C/S/W/V k=   40       45984       44670       44751           0
(PID.TID 0000.0001) ctrl-wet 14: global nWet C/S/W/V k=   41       44793       43419       43459           0
(PID.TID 0000.0001) ctrl-wet 14: global nWet C/S/W/V k=   42       42984       41497       41533           0
(PID.TID 0000.0001) ctrl-wet 14: global nWet C/S/W/V k=   43       40302       38691       38718           0
(PID.TID 0000.0001) ctrl-wet 14: global nWet C/S/W/V k=   44       36689       35007       35032           0
(PID.TID 0000.0001) ctrl-wet 14: global nWet C/S/W/V k=   45       31681       30069       29999           0
(PID.TID 0000.0001) ctrl-wet 14: global nWet C/S/W/V k=   46       25595       24028       24031           0
(PID.TID 0000.0001) ctrl-wet 14: global nWet C/S/W/V k=   47       18224       16890       16872           0
(PID.TID 0000.0001) ctrl-wet 14: global nWet C/S/W/V k=   48       11407       10397       10351           0
(PID.TID 0000.0001) ctrl-wet 14: global nWet C/S/W/V k=   49        4597        3913        3912           0
(PID.TID 0000.0001) ctrl-wet 14: global nWet C/S/W/V k=   50         818         624         622           0
(PID.TID 0000.0001) ctrl-wet -------------------------------------------------
(PID.TID 0000.0001) ctrl-wet -------------------------------------------------
(PID.TID 0000.0001) ctrl-wet -------------------------------------------------
(PID.TID 0000.0001) ctrl_init: no. of control variables:            8
(PID.TID 0000.0001) ctrl_init: control vector length:        16909590
(PID.TID 0000.0001) 
(PID.TID 0000.0001) // =======================================================
(PID.TID 0000.0001) // control vector configuration  >>> START <<<
(PID.TID 0000.0001) // =======================================================
(PID.TID 0000.0001) 
(PID.TID 0000.0001)  Total number of ocean points per tile:
(PID.TID 0000.0001)  --------------------------------------
(PID.TID 0000.0001)  snx*sny*nr =    45000
(PID.TID 0000.0001) 
(PID.TID 0000.0001)  Number of ocean points per tile:
(PID.TID 0000.0001)  --------------------------------
(PID.TID 0000.0001)  bi,bj,#(c/s/w): 0001 0001 011544 010207 011460
(PID.TID 0000.0001) 
(PID.TID 0000.0001)  Settings of generic controls:
(PID.TID 0000.0001)  -----------------------------
(PID.TID 0000.0001) 
(PID.TID 0000.0001)  ctrlUseGen  =     T /* use generic controls */
(PID.TID 0000.0001)  -> 2D control, genarr2d no.  1 is in use
(PID.TID 0000.0001)       file       = xx_etan
(PID.TID 0000.0001)       weight     = SSH_weights_nonseasonal_rms_areascaled.bin
(PID.TID 0000.0001)  preprocess = WC01
(PID.TID 0000.0001)  -> 3d control, genarr3d no.  1 is in use
(PID.TID 0000.0001)       file       = xx_theta
(PID.TID 0000.0001)       weight     = Theta_weights_nonseasonal_rmsv2_areascaled.bin
(PID.TID 0000.0001)  preprocess = WC01
(PID.TID 0000.0001)  -> 3d control, genarr3d no.  2 is in use
(PID.TID 0000.0001)       file       = xx_salt
(PID.TID 0000.0001)       weight     = Salt_weights_nonseasonal_rmsv2_areascaled.bin
(PID.TID 0000.0001)  preprocess = WC01
(PID.TID 0000.0001)  -> 3d control, genarr3d no.  3 is in use
(PID.TID 0000.0001)       file       = xx_kapgm
(PID.TID 0000.0001)       weight     = r2.wkapgmFldv2.data
(PID.TID 0000.0001)  preprocess = WC01
(PID.TID 0000.0001)  -> 3d control, genarr3d no.  4 is in use
(PID.TID 0000.0001)       file       = xx_kapredi
(PID.TID 0000.0001)       weight     = r2.wkaprediFldv2.data
(PID.TID 0000.0001)  preprocess = WC01
(PID.TID 0000.0001)  -> 3d control, genarr3d no.  5 is in use
(PID.TID 0000.0001)       file       = xx_diffkr
(PID.TID 0000.0001)       weight     = r2.wdiffkrFldv2.data
(PID.TID 0000.0001)  preprocess = WC01
(PID.TID 0000.0001)  -> 3d control, genarr3d no.  6 is in use
(PID.TID 0000.0001)       file       = xx_uvel
(PID.TID 0000.0001)       weight     = Uvel_weights_nonseasonal_rmsv2_areascaled.bin
(PID.TID 0000.0001)  preprocess = WC01
(PID.TID 0000.0001)  -> 3d control, genarr3d no.  7 is in use
(PID.TID 0000.0001)       file       = xx_vvel
(PID.TID 0000.0001)       weight     = Vvel_weights_nonseasonal_rmsv2_areascaled.bin
(PID.TID 0000.0001)  preprocess = WC01
(PID.TID 0000.0001) 
(PID.TID 0000.0001) // =======================================================
(PID.TID 0000.0001) // control vector configuration  >>> END <<<
(PID.TID 0000.0001) // =======================================================
(PID.TID 0000.0001) 
(PID.TID 0000.0001) ------------------------------------------------------------
(PID.TID 0000.0001) DIAGNOSTICS_SET_LEVELS: done
(PID.TID 0000.0001)  Total Nb of available Diagnostics: ndiagt=   303
(PID.TID 0000.0001)  write list of available Diagnostics to file: available_diagnostics.log
(PID.TID 0000.0001) SETDIAG: Allocate 50 x  1 Levels for Diagnostic #   122 ADVr_SLT
(PID.TID 0000.0001) SETDIAG: Allocate 50 x  1 Levels for Diagnostic #   115 ADVr_TH
(PID.TID 0000.0001) SETDIAG: Allocate  1 x  1 Levels for Diagnostic #   274 ADVxHEFF
(PID.TID 0000.0001) SETDIAG: Allocate 50 x  1 Levels for Diagnostic #   123 ADVx_SLT
(PID.TID 0000.0001) SETDIAG: Allocate  1 x  1 Levels for Diagnostic #   284 ADVxSNOW
(PID.TID 0000.0001) SETDIAG: Allocate 50 x  1 Levels for Diagnostic #   116 ADVx_TH
(PID.TID 0000.0001) SETDIAG: Allocate  1 x  1 Levels for Diagnostic #   275 ADVyHEFF
(PID.TID 0000.0001) SETDIAG: Allocate 50 x  1 Levels for Diagnostic #   124 ADVy_SLT
(PID.TID 0000.0001) SETDIAG: Allocate  1 x  1 Levels for Diagnostic #   285 ADVySNOW
(PID.TID 0000.0001) SETDIAG: Allocate 50 x  1 Levels for Diagnostic #   117 ADVy_TH
(PID.TID 0000.0001) SETDIAG: Allocate 50 x  1 Levels for Diagnostic #   125 DFrE_SLT
(PID.TID 0000.0001) SETDIAG: Allocate 50 x  1 Levels for Diagnostic #   118 DFrE_TH
(PID.TID 0000.0001) SETDIAG: Allocate 50 x  1 Levels for Diagnostic #   128 DFrI_SLT
(PID.TID 0000.0001) SETDIAG: Allocate 50 x  1 Levels for Diagnostic #   121 DFrI_TH
(PID.TID 0000.0001) SETDIAG: Allocate  1 x  1 Levels for Diagnostic #   278 DFxEHEFF
(PID.TID 0000.0001) SETDIAG: Allocate 50 x  1 Levels for Diagnostic #   126 DFxE_SLT
(PID.TID 0000.0001) SETDIAG: Allocate  1 x  1 Levels for Diagnostic #   286 DFxESNOW
(PID.TID 0000.0001) SETDIAG: Allocate 50 x  1 Levels for Diagnostic #   119 DFxE_TH
(PID.TID 0000.0001) SETDIAG: Allocate  1 x  1 Levels for Diagnostic #   279 DFyEHEFF
(PID.TID 0000.0001) SETDIAG: Allocate 50 x  1 Levels for Diagnostic #   127 DFyE_SLT
(PID.TID 0000.0001) SETDIAG: Allocate  1 x  1 Levels for Diagnostic #   287 DFyESNOW
(PID.TID 0000.0001) SETDIAG: Allocate 50 x  1 Levels for Diagnostic #   120 DFyE_TH
(PID.TID 0000.0001) SETDIAG: Allocate 50 x  1 Levels for Diagnostic #    83 DRHODR
(PID.TID 0000.0001) SETDIAG: Allocate  1 x  1 Levels for Diagnostic #    23 ETAN
(PID.TID 0000.0001) SETDIAG: Allocate  1 x  1 Levels for Diagnostic #   194 EXFaqh
(PID.TID 0000.0001) SETDIAG: Allocate  1 x  1 Levels for Diagnostic #   193 EXFatemp
(PID.TID 0000.0001) SETDIAG: Allocate  1 x  1 Levels for Diagnostic #   198 EXFempmr
(PID.TID 0000.0001) SETDIAG: Allocate  1 x  1 Levels for Diagnostic #   195 EXFevap
(PID.TID 0000.0001) SETDIAG: Allocate  1 x  1 Levels for Diagnostic #   182 EXFhl
(PID.TID 0000.0001) SETDIAG: Allocate  1 x  1 Levels for Diagnostic #   181 EXFhs
(PID.TID 0000.0001) SETDIAG: Allocate  1 x  1 Levels for Diagnostic #   185 EXFlwdn
(PID.TID 0000.0001) SETDIAG: Allocate  1 x  1 Levels for Diagnostic #   183 EXFlwnet
(PID.TID 0000.0001) SETDIAG: Allocate  1 x  1 Levels for Diagnostic #   196 EXFpreci
(PID.TID 0000.0001) SETDIAG: Allocate  1 x  1 Levels for Diagnostic #   187 EXFqnet
(PID.TID 0000.0001) SETDIAG: Allocate  1 x  1 Levels for Diagnostic #   200 EXFroff
(PID.TID 0000.0001) SETDIAG: Allocate  1 x  1 Levels for Diagnostic #   186 EXFswdn
(PID.TID 0000.0001) SETDIAG: Allocate  1 x  1 Levels for Diagnostic #   184 EXFswnet
(PID.TID 0000.0001) SETDIAG: Allocate  1 x  1 Levels for Diagnostic #   188 EXFtaux
(PID.TID 0000.0001) SETDIAG: Allocate  1 x  1 Levels for Diagnostic #   189 EXFtauy
(PID.TID 0000.0001) SETDIAG: Allocate  1 x  1 Levels for Diagnostic #   190 EXFuwind
(PID.TID 0000.0001) SETDIAG: Allocate  1 x  1 Levels for Diagnostic #   191 EXFvwind
(PID.TID 0000.0001) SETDIAG: Allocate  1 x  1 Levels for Diagnostic #   192 EXFwspee
(PID.TID 0000.0001) SETDIAG: Allocate 50 x  1 Levels for Diagnostic #   222 GM_PsiX
(PID.TID 0000.0001) SETDIAG: Allocate 50 x  1 Levels for Diagnostic #   223 GM_PsiY
(PID.TID 0000.0001) SETDIAG: Allocate  1 x  1 Levels for Diagnostic #    82 MXLDEPTH
(PID.TID 0000.0001) SETDIAG: Allocate  1 x  1 Levels for Diagnostic #    89 oceFWflx
(PID.TID 0000.0001) SETDIAG: Allocate  1 x  1 Levels for Diagnostic #    91 oceQnet
(PID.TID 0000.0001) SETDIAG: Allocate  1 x  1 Levels for Diagnostic #    92 oceQsw
(PID.TID 0000.0001) SETDIAG: Allocate  1 x  1 Levels for Diagnostic #   303 oceSPDep
(PID.TID 0000.0001) SETDIAG: Allocate  1 x  1 Levels for Diagnostic #   302 oceSPflx
(PID.TID 0000.0001) SETDIAG: Allocate 50 x  1 Levels for Diagnostic #   301 oceSPtnd
(PID.TID 0000.0001) SETDIAG: Allocate  1 x  1 Levels for Diagnostic #    85 oceTAUX
(PID.TID 0000.0001) SETDIAG: Allocate  1 x  1 Levels for Diagnostic #    86 oceTAUY
(PID.TID 0000.0001) SETDIAG: Allocate  1 x  1 Levels for Diagnostic #    76 PHIBOT
(PID.TID 0000.0001) SETDIAG: Allocate 50 x  1 Levels for Diagnostic #    74 PHIHYD
(PID.TID 0000.0001) SETDIAG: Allocate 50 x  1 Levels for Diagnostic #    81 PHIHYDcR
(PID.TID 0000.0001) SETDIAG: Allocate 50 x  1 Levels for Diagnostic #    67 RHOAnoma
(PID.TID 0000.0001) SETDIAG: Allocate 50 x  1 Levels for Diagnostic #    30 SALT
(PID.TID 0000.0001) SETDIAG: Allocate  1 x  1 Levels for Diagnostic #    99 SFLUX
(PID.TID 0000.0001) SETDIAG: Allocate  1 x  1 Levels for Diagnostic #   229 SIarea
(PID.TID 0000.0001) SETDIAG: Allocate  1 x  1 Levels for Diagnostic #   253 SIatmFW
(PID.TID 0000.0001) SETDIAG: Allocate  1 x  1 Levels for Diagnostic #   246 SIatmQnt
(PID.TID 0000.0001) SETDIAG: Allocate  1 x  1 Levels for Diagnostic #    88 sIceLoad
(PID.TID 0000.0001) SETDIAG: Allocate  1 x  1 Levels for Diagnostic #   232 SIheff
(PID.TID 0000.0001) SETDIAG: Allocate  1 x  1 Levels for Diagnostic #   234 SIhsnow
(PID.TID 0000.0001) SETDIAG: Allocate  1 x  1 Levels for Diagnostic #   254 SIsnPrcp
(PID.TID 0000.0001) SETDIAG: Allocate  1 x  1 Levels for Diagnostic #   238 SIuice
(PID.TID 0000.0001) SETDIAG: Allocate  1 x  1 Levels for Diagnostic #   239 SIvice
(PID.TID 0000.0001) SETDIAG: Allocate  1 x  1 Levels for Diagnostic #    98 TFLUX
(PID.TID 0000.0001) SETDIAG: Allocate 50 x  1 Levels for Diagnostic #    29 THETA
(PID.TID 0000.0001) SETDIAG: Allocate 50 x  1 Levels for Diagnostic #   171 Um_dPHdx
(PID.TID 0000.0001) SETDIAG: Allocate 50 x  1 Levels for Diagnostic #    33 UVEL
(PID.TID 0000.0001) SETDIAG: Allocate 50 x  1 Levels for Diagnostic #    48 UVELMASS
(PID.TID 0000.0001) SETDIAG: Allocate 50 x  1 Levels for Diagnostic #   172 Vm_dPHdy
(PID.TID 0000.0001) SETDIAG: Allocate 50 x  1 Levels for Diagnostic #    34 VVEL
(PID.TID 0000.0001) SETDIAG: Allocate 50 x  1 Levels for Diagnostic #    49 VVELMASS
(PID.TID 0000.0001) SETDIAG: Allocate 50 x  1 Levels for Diagnostic #    50 WVELMASS
(PID.TID 0000.0001) SETDIAG: Allocate  1 x  1 Levels for Diagnostic #    23 ETAN
(PID.TID 0000.0001) SETDIAG: Allocate 50 x  1 Levels for Diagnostic #    30 SALT
(PID.TID 0000.0001) SETDIAG: Allocate 50 x  1 Levels for Diagnostic #    29 THETA
(PID.TID 0000.0001) SETDIAG: Allocate  1 x  1 Levels for Diagnostic #   232 SIheff
(PID.TID 0000.0001) SETDIAG: Allocate  1 x  1 Levels for Diagnostic #   234 SIhsnow
(PID.TID 0000.0001) SETDIAG: Allocate  1 x  1 Levels for Diagnostic #    24 SSH
(PID.TID 0000.0001) SETDIAG: Allocate  1 x  1 Levels for Diagnostic #    25 SSHIBC
(PID.TID 0000.0001) SETDIAG: Allocate  1 x  1 Levels for Diagnostic #    26 SSHNOIBC
(PID.TID 0000.0001) SETDIAG: Allocate  1 x  1 Levels for Diagnostic #    77 OBP
(PID.TID 0000.0001) SETDIAG: Allocate  1 x  1 Levels for Diagnostic #    78 OBPGMAP
(PID.TID 0000.0001) SETDIAG: Allocate  1 x  1 Levels for Diagnostic #   199 EXFpress
(PID.TID 0000.0001)   space allocated for all diagnostics:    1656 levels
(PID.TID 0000.0001)   set mate pointer for diag #   274  ADVxHEFF , Parms: UU      M1 , mate:   275
(PID.TID 0000.0001)   set mate pointer for diag #   123  ADVx_SLT , Parms: UU      MR , mate:   124
(PID.TID 0000.0001)   set mate pointer for diag #   284  ADVxSNOW , Parms: UU      M1 , mate:   285
(PID.TID 0000.0001)   set mate pointer for diag #   116  ADVx_TH  , Parms: UU      MR , mate:   117
(PID.TID 0000.0001)   set mate pointer for diag #   275  ADVyHEFF , Parms: VV      M1 , mate:   274
(PID.TID 0000.0001)   set mate pointer for diag #   124  ADVy_SLT , Parms: VV      MR , mate:   123
(PID.TID 0000.0001)   set mate pointer for diag #   285  ADVySNOW , Parms: VV      M1 , mate:   284
(PID.TID 0000.0001)   set mate pointer for diag #   117  ADVy_TH  , Parms: VV      MR , mate:   116
(PID.TID 0000.0001)   set mate pointer for diag #   278  DFxEHEFF , Parms: UU      M1 , mate:   279
(PID.TID 0000.0001)   set mate pointer for diag #   126  DFxE_SLT , Parms: UU      MR , mate:   127
(PID.TID 0000.0001)   set mate pointer for diag #   286  DFxESNOW , Parms: UU      M1 , mate:   287
(PID.TID 0000.0001)   set mate pointer for diag #   119  DFxE_TH  , Parms: UU      MR , mate:   120
(PID.TID 0000.0001)   set mate pointer for diag #   279  DFyEHEFF , Parms: VV      M1 , mate:   278
(PID.TID 0000.0001)   set mate pointer for diag #   127  DFyE_SLT , Parms: VV      MR , mate:   126
(PID.TID 0000.0001)   set mate pointer for diag #   287  DFyESNOW , Parms: VV      M1 , mate:   286
(PID.TID 0000.0001)   set mate pointer for diag #   120  DFyE_TH  , Parms: VV      MR , mate:   119
(PID.TID 0000.0001)   set mate pointer for diag #   222  GM_PsiX  , Parms: UU      LR , mate:   223
(PID.TID 0000.0001)   set mate pointer for diag #   223  GM_PsiY  , Parms: VV      LR , mate:   222
(PID.TID 0000.0001)   set mate pointer for diag #    85  oceTAUX  , Parms: UU      U1 , mate:    86
(PID.TID 0000.0001)   set mate pointer for diag #    86  oceTAUY  , Parms: VV      U1 , mate:    85
(PID.TID 0000.0001)   set mate pointer for diag #   238  SIuice   , Parms: UU      M1 , mate:   239
(PID.TID 0000.0001)   set mate pointer for diag #   239  SIvice   , Parms: VV      M1 , mate:   238
(PID.TID 0000.0001)   set mate pointer for diag #   171  Um_dPHdx , Parms: UUR     MR , mate:   172
(PID.TID 0000.0001)   set mate pointer for diag #    33  UVEL     , Parms: UUR     MR , mate:    34
(PID.TID 0000.0001)   set mate pointer for diag #    48  UVELMASS , Parms: UUr     MR , mate:    49
(PID.TID 0000.0001)   set mate pointer for diag #   172  Vm_dPHdy , Parms: VVR     MR , mate:   171
(PID.TID 0000.0001)   set mate pointer for diag #    34  VVEL     , Parms: VVR     MR , mate:    33
(PID.TID 0000.0001)   set mate pointer for diag #    49  VVELMASS , Parms: VVr     MR , mate:    48
(PID.TID 0000.0001) DIAGNOSTICS_SET_POINTERS: Set levels for Outp.Stream: diags/ADVr_SLT_mon_mean/ADVr_SLT_mon_mean
(PID.TID 0000.0001)  Levels:       1.   2.   3.   4.   5.   6.   7.   8.   9.  10.  11.  12.  13.  14.  15.  16.  17.  18.  19.  20.
(PID.TID 0000.0001)  Levels:      21.  22.  23.  24.  25.  26.  27.  28.  29.  30.  31.  32.  33.  34.  35.  36.  37.  38.  39.  40.
(PID.TID 0000.0001)  Levels:      41.  42.  43.  44.  45.  46.  47.  48.  49.  50.
(PID.TID 0000.0001) DIAGNOSTICS_SET_POINTERS: Set levels for Outp.Stream: diags/ADVr_TH_mon_mean/ADVr_TH_mon_mean
(PID.TID 0000.0001)  Levels:       1.   2.   3.   4.   5.   6.   7.   8.   9.  10.  11.  12.  13.  14.  15.  16.  17.  18.  19.  20.
(PID.TID 0000.0001)  Levels:      21.  22.  23.  24.  25.  26.  27.  28.  29.  30.  31.  32.  33.  34.  35.  36.  37.  38.  39.  40.
(PID.TID 0000.0001)  Levels:      41.  42.  43.  44.  45.  46.  47.  48.  49.  50.
(PID.TID 0000.0001) DIAGNOSTICS_SET_POINTERS: Set levels for Outp.Stream: diags/ADVxHEFF_mon_mean/ADVxHEFF_mon_mean
(PID.TID 0000.0001)  Levels:       1.
(PID.TID 0000.0001) DIAGNOSTICS_SET_POINTERS: Set levels for Outp.Stream: diags/ADVx_SLT_mon_mean/ADVx_SLT_mon_mean
(PID.TID 0000.0001)  Levels:       1.   2.   3.   4.   5.   6.   7.   8.   9.  10.  11.  12.  13.  14.  15.  16.  17.  18.  19.  20.
(PID.TID 0000.0001)  Levels:      21.  22.  23.  24.  25.  26.  27.  28.  29.  30.  31.  32.  33.  34.  35.  36.  37.  38.  39.  40.
(PID.TID 0000.0001)  Levels:      41.  42.  43.  44.  45.  46.  47.  48.  49.  50.
(PID.TID 0000.0001) DIAGNOSTICS_SET_POINTERS: Set levels for Outp.Stream: diags/ADVxSNOW_mon_mean/ADVxSNOW_mon_mean
(PID.TID 0000.0001)  Levels:       1.
(PID.TID 0000.0001) DIAGNOSTICS_SET_POINTERS: Set levels for Outp.Stream: diags/ADVx_TH_mon_mean/ADVx_TH_mon_mean
(PID.TID 0000.0001)  Levels:       1.   2.   3.   4.   5.   6.   7.   8.   9.  10.  11.  12.  13.  14.  15.  16.  17.  18.  19.  20.
(PID.TID 0000.0001)  Levels:      21.  22.  23.  24.  25.  26.  27.  28.  29.  30.  31.  32.  33.  34.  35.  36.  37.  38.  39.  40.
(PID.TID 0000.0001)  Levels:      41.  42.  43.  44.  45.  46.  47.  48.  49.  50.
(PID.TID 0000.0001) DIAGNOSTICS_SET_POINTERS: Set levels for Outp.Stream: diags/ADVyHEFF_mon_mean/ADVyHEFF_mon_mean
(PID.TID 0000.0001)  Levels:       1.
(PID.TID 0000.0001) DIAGNOSTICS_SET_POINTERS: Set levels for Outp.Stream: diags/ADVy_SLT_mon_mean/ADVy_SLT_mon_mean
(PID.TID 0000.0001)  Levels:       1.   2.   3.   4.   5.   6.   7.   8.   9.  10.  11.  12.  13.  14.  15.  16.  17.  18.  19.  20.
(PID.TID 0000.0001)  Levels:      21.  22.  23.  24.  25.  26.  27.  28.  29.  30.  31.  32.  33.  34.  35.  36.  37.  38.  39.  40.
(PID.TID 0000.0001)  Levels:      41.  42.  43.  44.  45.  46.  47.  48.  49.  50.
(PID.TID 0000.0001) DIAGNOSTICS_SET_POINTERS: Set levels for Outp.Stream: diags/ADVySNOW_mon_mean/ADVySNOW_mon_mean
(PID.TID 0000.0001)  Levels:       1.
(PID.TID 0000.0001) DIAGNOSTICS_SET_POINTERS: Set levels for Outp.Stream: diags/ADVy_TH_mon_mean/ADVy_TH_mon_mean
(PID.TID 0000.0001)  Levels:       1.   2.   3.   4.   5.   6.   7.   8.   9.  10.  11.  12.  13.  14.  15.  16.  17.  18.  19.  20.
(PID.TID 0000.0001)  Levels:      21.  22.  23.  24.  25.  26.  27.  28.  29.  30.  31.  32.  33.  34.  35.  36.  37.  38.  39.  40.
(PID.TID 0000.0001)  Levels:      41.  42.  43.  44.  45.  46.  47.  48.  49.  50.
(PID.TID 0000.0001) DIAGNOSTICS_SET_POINTERS: Set levels for Outp.Stream: diags/DFrE_SLT_mon_mean/DFrE_SLT_mon_mean
(PID.TID 0000.0001)  Levels:       1.   2.   3.   4.   5.   6.   7.   8.   9.  10.  11.  12.  13.  14.  15.  16.  17.  18.  19.  20.
(PID.TID 0000.0001)  Levels:      21.  22.  23.  24.  25.  26.  27.  28.  29.  30.  31.  32.  33.  34.  35.  36.  37.  38.  39.  40.
(PID.TID 0000.0001)  Levels:      41.  42.  43.  44.  45.  46.  47.  48.  49.  50.
(PID.TID 0000.0001) DIAGNOSTICS_SET_POINTERS: Set levels for Outp.Stream: diags/DFrE_TH_mon_mean/DFrE_TH_mon_mean
(PID.TID 0000.0001)  Levels:       1.   2.   3.   4.   5.   6.   7.   8.   9.  10.  11.  12.  13.  14.  15.  16.  17.  18.  19.  20.
(PID.TID 0000.0001)  Levels:      21.  22.  23.  24.  25.  26.  27.  28.  29.  30.  31.  32.  33.  34.  35.  36.  37.  38.  39.  40.
(PID.TID 0000.0001)  Levels:      41.  42.  43.  44.  45.  46.  47.  48.  49.  50.
(PID.TID 0000.0001) DIAGNOSTICS_SET_POINTERS: Set levels for Outp.Stream: diags/DFrI_SLT_mon_mean/DFrI_SLT_mon_mean
(PID.TID 0000.0001)  Levels:       1.   2.   3.   4.   5.   6.   7.   8.   9.  10.  11.  12.  13.  14.  15.  16.  17.  18.  19.  20.
(PID.TID 0000.0001)  Levels:      21.  22.  23.  24.  25.  26.  27.  28.  29.  30.  31.  32.  33.  34.  35.  36.  37.  38.  39.  40.
(PID.TID 0000.0001)  Levels:      41.  42.  43.  44.  45.  46.  47.  48.  49.  50.
(PID.TID 0000.0001) DIAGNOSTICS_SET_POINTERS: Set levels for Outp.Stream: diags/DFrI_TH_mon_mean/DFrI_TH_mon_mean
(PID.TID 0000.0001)  Levels:       1.   2.   3.   4.   5.   6.   7.   8.   9.  10.  11.  12.  13.  14.  15.  16.  17.  18.  19.  20.
(PID.TID 0000.0001)  Levels:      21.  22.  23.  24.  25.  26.  27.  28.  29.  30.  31.  32.  33.  34.  35.  36.  37.  38.  39.  40.
(PID.TID 0000.0001)  Levels:      41.  42.  43.  44.  45.  46.  47.  48.  49.  50.
(PID.TID 0000.0001) DIAGNOSTICS_SET_POINTERS: Set levels for Outp.Stream: diags/DFxEHEFF_mon_mean/DFxEHEFF_mon_mean
(PID.TID 0000.0001)  Levels:       1.
(PID.TID 0000.0001) DIAGNOSTICS_SET_POINTERS: Set levels for Outp.Stream: diags/DFxE_SLT_mon_mean/DFxE_SLT_mon_mean
(PID.TID 0000.0001)  Levels:       1.   2.   3.   4.   5.   6.   7.   8.   9.  10.  11.  12.  13.  14.  15.  16.  17.  18.  19.  20.
(PID.TID 0000.0001)  Levels:      21.  22.  23.  24.  25.  26.  27.  28.  29.  30.  31.  32.  33.  34.  35.  36.  37.  38.  39.  40.
(PID.TID 0000.0001)  Levels:      41.  42.  43.  44.  45.  46.  47.  48.  49.  50.
(PID.TID 0000.0001) DIAGNOSTICS_SET_POINTERS: Set levels for Outp.Stream: diags/DFxESNOW_mon_mean/DFxESNOW_mon_mean
(PID.TID 0000.0001)  Levels:       1.
(PID.TID 0000.0001) DIAGNOSTICS_SET_POINTERS: Set levels for Outp.Stream: diags/DFxE_TH_mon_mean/DFxE_TH_mon_mean
(PID.TID 0000.0001)  Levels:       1.   2.   3.   4.   5.   6.   7.   8.   9.  10.  11.  12.  13.  14.  15.  16.  17.  18.  19.  20.
(PID.TID 0000.0001)  Levels:      21.  22.  23.  24.  25.  26.  27.  28.  29.  30.  31.  32.  33.  34.  35.  36.  37.  38.  39.  40.
(PID.TID 0000.0001)  Levels:      41.  42.  43.  44.  45.  46.  47.  48.  49.  50.
(PID.TID 0000.0001) DIAGNOSTICS_SET_POINTERS: Set levels for Outp.Stream: diags/DFyEHEFF_mon_mean/DFyEHEFF_mon_mean
(PID.TID 0000.0001)  Levels:       1.
(PID.TID 0000.0001) DIAGNOSTICS_SET_POINTERS: Set levels for Outp.Stream: diags/DFyE_SLT_mon_mean/DFyE_SLT_mon_mean
(PID.TID 0000.0001)  Levels:       1.   2.   3.   4.   5.   6.   7.   8.   9.  10.  11.  12.  13.  14.  15.  16.  17.  18.  19.  20.
(PID.TID 0000.0001)  Levels:      21.  22.  23.  24.  25.  26.  27.  28.  29.  30.  31.  32.  33.  34.  35.  36.  37.  38.  39.  40.
(PID.TID 0000.0001)  Levels:      41.  42.  43.  44.  45.  46.  47.  48.  49.  50.
(PID.TID 0000.0001) DIAGNOSTICS_SET_POINTERS: Set levels for Outp.Stream: diags/DFyESNOW_mon_mean/DFyESNOW_mon_mean
(PID.TID 0000.0001)  Levels:       1.
(PID.TID 0000.0001) DIAGNOSTICS_SET_POINTERS: Set levels for Outp.Stream: diags/DFyE_TH_mon_mean/DFyE_TH_mon_mean
(PID.TID 0000.0001)  Levels:       1.   2.   3.   4.   5.   6.   7.   8.   9.  10.  11.  12.  13.  14.  15.  16.  17.  18.  19.  20.
(PID.TID 0000.0001)  Levels:      21.  22.  23.  24.  25.  26.  27.  28.  29.  30.  31.  32.  33.  34.  35.  36.  37.  38.  39.  40.
(PID.TID 0000.0001)  Levels:      41.  42.  43.  44.  45.  46.  47.  48.  49.  50.
(PID.TID 0000.0001) DIAGNOSTICS_SET_POINTERS: Set levels for Outp.Stream: diags/DRHODR_mon_mean/DRHODR_mon_mean
(PID.TID 0000.0001)  Levels:       1.   2.   3.   4.   5.   6.   7.   8.   9.  10.  11.  12.  13.  14.  15.  16.  17.  18.  19.  20.
(PID.TID 0000.0001)  Levels:      21.  22.  23.  24.  25.  26.  27.  28.  29.  30.  31.  32.  33.  34.  35.  36.  37.  38.  39.  40.
(PID.TID 0000.0001)  Levels:      41.  42.  43.  44.  45.  46.  47.  48.  49.  50.
(PID.TID 0000.0001) DIAGNOSTICS_SET_POINTERS: Set levels for Outp.Stream: diags/ETAN_mon_mean/ETAN_mon_mean
(PID.TID 0000.0001)  Levels:       1.
(PID.TID 0000.0001) DIAGNOSTICS_SET_POINTERS: Set levels for Outp.Stream: diags/EXFaqh_mon_mean/EXFaqh_mon_mean
(PID.TID 0000.0001)  Levels:       1.
(PID.TID 0000.0001) DIAGNOSTICS_SET_POINTERS: Set levels for Outp.Stream: diags/EXFatemp_mon_mean/EXFatemp_mon_mean
(PID.TID 0000.0001)  Levels:       1.
(PID.TID 0000.0001) DIAGNOSTICS_SET_POINTERS: Set levels for Outp.Stream: diags/EXFempmr_mon_mean/EXFempmr_mon_mean
(PID.TID 0000.0001)  Levels:       1.
(PID.TID 0000.0001) DIAGNOSTICS_SET_POINTERS: Set levels for Outp.Stream: diags/EXFevap_mon_mean/EXFevap_mon_mean
(PID.TID 0000.0001)  Levels:       1.
(PID.TID 0000.0001) DIAGNOSTICS_SET_POINTERS: Set levels for Outp.Stream: diags/EXFhl_mon_mean/EXFhl_mon_mean
(PID.TID 0000.0001)  Levels:       1.
(PID.TID 0000.0001) DIAGNOSTICS_SET_POINTERS: Set levels for Outp.Stream: diags/EXFhs_mon_mean/EXFhs_mon_mean
(PID.TID 0000.0001)  Levels:       1.
(PID.TID 0000.0001) DIAGNOSTICS_SET_POINTERS: Set levels for Outp.Stream: diags/EXFlwdn_mon_mean/EXFlwdn_mon_mean
(PID.TID 0000.0001)  Levels:       1.
(PID.TID 0000.0001) DIAGNOSTICS_SET_POINTERS: Set levels for Outp.Stream: diags/EXFlwnet_mon_mean/EXFlwnet_mon_mean
(PID.TID 0000.0001)  Levels:       1.
(PID.TID 0000.0001) DIAGNOSTICS_SET_POINTERS: Set levels for Outp.Stream: diags/EXFpreci_mon_mean/EXFpreci_mon_mean
(PID.TID 0000.0001)  Levels:       1.
(PID.TID 0000.0001) DIAGNOSTICS_SET_POINTERS: Set levels for Outp.Stream: diags/EXFqnet_mon_mean/EXFqnet_mon_mean
(PID.TID 0000.0001)  Levels:       1.
(PID.TID 0000.0001) DIAGNOSTICS_SET_POINTERS: Set levels for Outp.Stream: diags/EXFroff_mon_mean/EXFroff_mon_mean
(PID.TID 0000.0001)  Levels:       1.
(PID.TID 0000.0001) DIAGNOSTICS_SET_POINTERS: Set levels for Outp.Stream: diags/EXFswdn_mon_mean/EXFswdn_mon_mean
(PID.TID 0000.0001)  Levels:       1.
(PID.TID 0000.0001) DIAGNOSTICS_SET_POINTERS: Set levels for Outp.Stream: diags/EXFswnet_mon_mean/EXFswnet_mon_mean
(PID.TID 0000.0001)  Levels:       1.
(PID.TID 0000.0001) DIAGNOSTICS_SET_POINTERS: Set levels for Outp.Stream: diags/EXFtaux_mon_mean/EXFtaux_mon_mean
(PID.TID 0000.0001)  Levels:       1.
(PID.TID 0000.0001) DIAGNOSTICS_SET_POINTERS: Set levels for Outp.Stream: diags/EXFtauy_mon_mean/EXFtauy_mon_mean
(PID.TID 0000.0001)  Levels:       1.
(PID.TID 0000.0001) DIAGNOSTICS_SET_POINTERS: Set levels for Outp.Stream: diags/EXFuwind_mon_mean/EXFuwind_mon_mean
(PID.TID 0000.0001)  Levels:       1.
(PID.TID 0000.0001) DIAGNOSTICS_SET_POINTERS: Set levels for Outp.Stream: diags/EXFvwind_mon_mean/EXFvwind_mon_mean
(PID.TID 0000.0001)  Levels:       1.
(PID.TID 0000.0001) DIAGNOSTICS_SET_POINTERS: Set levels for Outp.Stream: diags/EXFwspee_mon_mean/EXFwspee_mon_mean
(PID.TID 0000.0001)  Levels:       1.
(PID.TID 0000.0001) DIAGNOSTICS_SET_POINTERS: Set levels for Outp.Stream: diags/GM_PsiX_mon_mean/GM_PsiX_mon_mean
(PID.TID 0000.0001)  Levels:       1.   2.   3.   4.   5.   6.   7.   8.   9.  10.  11.  12.  13.  14.  15.  16.  17.  18.  19.  20.
(PID.TID 0000.0001)  Levels:      21.  22.  23.  24.  25.  26.  27.  28.  29.  30.  31.  32.  33.  34.  35.  36.  37.  38.  39.  40.
(PID.TID 0000.0001)  Levels:      41.  42.  43.  44.  45.  46.  47.  48.  49.  50.
(PID.TID 0000.0001) DIAGNOSTICS_SET_POINTERS: Set levels for Outp.Stream: diags/GM_PsiY_mon_mean/GM_PsiY_mon_mean
(PID.TID 0000.0001)  Levels:       1.   2.   3.   4.   5.   6.   7.   8.   9.  10.  11.  12.  13.  14.  15.  16.  17.  18.  19.  20.
(PID.TID 0000.0001)  Levels:      21.  22.  23.  24.  25.  26.  27.  28.  29.  30.  31.  32.  33.  34.  35.  36.  37.  38.  39.  40.
(PID.TID 0000.0001)  Levels:      41.  42.  43.  44.  45.  46.  47.  48.  49.  50.
(PID.TID 0000.0001) DIAGNOSTICS_SET_POINTERS: Set levels for Outp.Stream: diags/MXLDEPTH_mon_mean/MXLDEPTH_mon_mean
(PID.TID 0000.0001)  Levels:       1.
(PID.TID 0000.0001) DIAGNOSTICS_SET_POINTERS: Set levels for Outp.Stream: diags/oceFWflx_mon_mean/oceFWflx_mon_mean
(PID.TID 0000.0001)  Levels:       1.
(PID.TID 0000.0001) DIAGNOSTICS_SET_POINTERS: Set levels for Outp.Stream: diags/oceQnet_mon_mean/oceQnet_mon_mean
(PID.TID 0000.0001)  Levels:       1.
(PID.TID 0000.0001) DIAGNOSTICS_SET_POINTERS: Set levels for Outp.Stream: diags/oceQsw_mon_mean/oceQsw_mon_mean
(PID.TID 0000.0001)  Levels:       1.
(PID.TID 0000.0001) DIAGNOSTICS_SET_POINTERS: Set levels for Outp.Stream: diags/oceSPDep_mon_mean/oceSPDep_mon_mean
(PID.TID 0000.0001)  Levels:       1.
(PID.TID 0000.0001) DIAGNOSTICS_SET_POINTERS: Set levels for Outp.Stream: diags/oceSPflx_mon_mean/oceSPflx_mon_mean
(PID.TID 0000.0001)  Levels:       1.
(PID.TID 0000.0001) DIAGNOSTICS_SET_POINTERS: Set levels for Outp.Stream: diags/oceSPtnd_mon_mean/oceSPtnd_mon_mean
(PID.TID 0000.0001)  Levels:       1.   2.   3.   4.   5.   6.   7.   8.   9.  10.  11.  12.  13.  14.  15.  16.  17.  18.  19.  20.
(PID.TID 0000.0001)  Levels:      21.  22.  23.  24.  25.  26.  27.  28.  29.  30.  31.  32.  33.  34.  35.  36.  37.  38.  39.  40.
(PID.TID 0000.0001)  Levels:      41.  42.  43.  44.  45.  46.  47.  48.  49.  50.
(PID.TID 0000.0001) DIAGNOSTICS_SET_POINTERS: Set levels for Outp.Stream: diags/oceTAUX_mon_mean/oceTAUX_mon_mean
(PID.TID 0000.0001)  Levels:       1.
(PID.TID 0000.0001) DIAGNOSTICS_SET_POINTERS: Set levels for Outp.Stream: diags/oceTAUY_mon_mean/oceTAUY_mon_mean
(PID.TID 0000.0001)  Levels:       1.
(PID.TID 0000.0001) DIAGNOSTICS_SET_POINTERS: Set levels for Outp.Stream: diags/PHIBOT_mon_mean/PHIBOT_mon_mean
(PID.TID 0000.0001)  Levels:       1.
(PID.TID 0000.0001) DIAGNOSTICS_SET_POINTERS: Set levels for Outp.Stream: diags/PHIHYD_mon_mean/PHIHYD_mon_mean
(PID.TID 0000.0001)  Levels:       1.   2.   3.   4.   5.   6.   7.   8.   9.  10.  11.  12.  13.  14.  15.  16.  17.  18.  19.  20.
(PID.TID 0000.0001)  Levels:      21.  22.  23.  24.  25.  26.  27.  28.  29.  30.  31.  32.  33.  34.  35.  36.  37.  38.  39.  40.
(PID.TID 0000.0001)  Levels:      41.  42.  43.  44.  45.  46.  47.  48.  49.  50.
(PID.TID 0000.0001) DIAGNOSTICS_SET_POINTERS: Set levels for Outp.Stream: diags/PHIHYDcR_mon_mean/PHIHYDcR_mon_mean
(PID.TID 0000.0001)  Levels:       1.   2.   3.   4.   5.   6.   7.   8.   9.  10.  11.  12.  13.  14.  15.  16.  17.  18.  19.  20.
(PID.TID 0000.0001)  Levels:      21.  22.  23.  24.  25.  26.  27.  28.  29.  30.  31.  32.  33.  34.  35.  36.  37.  38.  39.  40.
(PID.TID 0000.0001)  Levels:      41.  42.  43.  44.  45.  46.  47.  48.  49.  50.
(PID.TID 0000.0001) DIAGNOSTICS_SET_POINTERS: Set levels for Outp.Stream: diags/RHOAnoma_mon_mean/RHOAnoma_mon_mean
(PID.TID 0000.0001)  Levels:       1.   2.   3.   4.   5.   6.   7.   8.   9.  10.  11.  12.  13.  14.  15.  16.  17.  18.  19.  20.
(PID.TID 0000.0001)  Levels:      21.  22.  23.  24.  25.  26.  27.  28.  29.  30.  31.  32.  33.  34.  35.  36.  37.  38.  39.  40.
(PID.TID 0000.0001)  Levels:      41.  42.  43.  44.  45.  46.  47.  48.  49.  50.
(PID.TID 0000.0001) DIAGNOSTICS_SET_POINTERS: Set levels for Outp.Stream: diags/SALT_mon_mean/SALT_mon_mean
(PID.TID 0000.0001)  Levels:       1.   2.   3.   4.   5.   6.   7.   8.   9.  10.  11.  12.  13.  14.  15.  16.  17.  18.  19.  20.
(PID.TID 0000.0001)  Levels:      21.  22.  23.  24.  25.  26.  27.  28.  29.  30.  31.  32.  33.  34.  35.  36.  37.  38.  39.  40.
(PID.TID 0000.0001)  Levels:      41.  42.  43.  44.  45.  46.  47.  48.  49.  50.
(PID.TID 0000.0001) DIAGNOSTICS_SET_POINTERS: Set levels for Outp.Stream: diags/SFLUX_mon_mean/SFLUX_mon_mean
(PID.TID 0000.0001)  Levels:       1.
(PID.TID 0000.0001) DIAGNOSTICS_SET_POINTERS: Set levels for Outp.Stream: diags/SIarea_mon_mean/SIarea_mon_mean
(PID.TID 0000.0001)  Levels:       1.
(PID.TID 0000.0001) DIAGNOSTICS_SET_POINTERS: Set levels for Outp.Stream: diags/SIatmFW_mon_mean/SIatmFW_mon_mean
(PID.TID 0000.0001)  Levels:       1.
(PID.TID 0000.0001) DIAGNOSTICS_SET_POINTERS: Set levels for Outp.Stream: diags/SIatmQnt_mon_mean/SIatmQnt_mon_mean
(PID.TID 0000.0001)  Levels:       1.
(PID.TID 0000.0001) DIAGNOSTICS_SET_POINTERS: Set levels for Outp.Stream: diags/sIceLoad_mon_mean/sIceLoad_mon_mean
(PID.TID 0000.0001)  Levels:       1.
(PID.TID 0000.0001) DIAGNOSTICS_SET_POINTERS: Set levels for Outp.Stream: diags/SIheff_mon_mean/SIheff_mon_mean
(PID.TID 0000.0001)  Levels:       1.
(PID.TID 0000.0001) DIAGNOSTICS_SET_POINTERS: Set levels for Outp.Stream: diags/SIhsnow_mon_mean/SIhsnow_mon_mean
(PID.TID 0000.0001)  Levels:       1.
(PID.TID 0000.0001) DIAGNOSTICS_SET_POINTERS: Set levels for Outp.Stream: diags/SIsnPrcp_mon_mean/SIsnPrcp_mon_mean
(PID.TID 0000.0001)  Levels:       1.
(PID.TID 0000.0001) DIAGNOSTICS_SET_POINTERS: Set levels for Outp.Stream: diags/SIuice_mon_mean/SIuice_mon_mean
(PID.TID 0000.0001)  Levels:       1.
(PID.TID 0000.0001) DIAGNOSTICS_SET_POINTERS: Set levels for Outp.Stream: diags/SIvice_mon_mean/SIvice_mon_mean
(PID.TID 0000.0001)  Levels:       1.
(PID.TID 0000.0001) DIAGNOSTICS_SET_POINTERS: Set levels for Outp.Stream: diags/TFLUX_mon_mean/TFLUX_mon_mean
(PID.TID 0000.0001)  Levels:       1.
(PID.TID 0000.0001) DIAGNOSTICS_SET_POINTERS: Set levels for Outp.Stream: diags/THETA_mon_mean/THETA_mon_mean
(PID.TID 0000.0001)  Levels:       1.   2.   3.   4.   5.   6.   7.   8.   9.  10.  11.  12.  13.  14.  15.  16.  17.  18.  19.  20.
(PID.TID 0000.0001)  Levels:      21.  22.  23.  24.  25.  26.  27.  28.  29.  30.  31.  32.  33.  34.  35.  36.  37.  38.  39.  40.
(PID.TID 0000.0001)  Levels:      41.  42.  43.  44.  45.  46.  47.  48.  49.  50.
(PID.TID 0000.0001) DIAGNOSTICS_SET_POINTERS: Set levels for Outp.Stream: diags/Um_dPHdx_mon_mean/Um_dPHdx_mon_mean
(PID.TID 0000.0001)  Levels:       1.   2.   3.   4.   5.   6.   7.   8.   9.  10.  11.  12.  13.  14.  15.  16.  17.  18.  19.  20.
(PID.TID 0000.0001)  Levels:      21.  22.  23.  24.  25.  26.  27.  28.  29.  30.  31.  32.  33.  34.  35.  36.  37.  38.  39.  40.
(PID.TID 0000.0001)  Levels:      41.  42.  43.  44.  45.  46.  47.  48.  49.  50.
(PID.TID 0000.0001) DIAGNOSTICS_SET_POINTERS: Set levels for Outp.Stream: diags/UVEL_mon_mean/UVEL_mon_mean
(PID.TID 0000.0001)  Levels:       1.   2.   3.   4.   5.   6.   7.   8.   9.  10.  11.  12.  13.  14.  15.  16.  17.  18.  19.  20.
(PID.TID 0000.0001)  Levels:      21.  22.  23.  24.  25.  26.  27.  28.  29.  30.  31.  32.  33.  34.  35.  36.  37.  38.  39.  40.
(PID.TID 0000.0001)  Levels:      41.  42.  43.  44.  45.  46.  47.  48.  49.  50.
(PID.TID 0000.0001) DIAGNOSTICS_SET_POINTERS: Set levels for Outp.Stream: diags/UVELMASS_mon_mean/UVELMASS_mon_mean
(PID.TID 0000.0001)  Levels:       1.   2.   3.   4.   5.   6.   7.   8.   9.  10.  11.  12.  13.  14.  15.  16.  17.  18.  19.  20.
(PID.TID 0000.0001)  Levels:      21.  22.  23.  24.  25.  26.  27.  28.  29.  30.  31.  32.  33.  34.  35.  36.  37.  38.  39.  40.
(PID.TID 0000.0001)  Levels:      41.  42.  43.  44.  45.  46.  47.  48.  49.  50.
(PID.TID 0000.0001) DIAGNOSTICS_SET_POINTERS: Set levels for Outp.Stream: diags/Vm_dPHdy_mon_mean/Vm_dPHdy_mon_mean
(PID.TID 0000.0001)  Levels:       1.   2.   3.   4.   5.   6.   7.   8.   9.  10.  11.  12.  13.  14.  15.  16.  17.  18.  19.  20.
(PID.TID 0000.0001)  Levels:      21.  22.  23.  24.  25.  26.  27.  28.  29.  30.  31.  32.  33.  34.  35.  36.  37.  38.  39.  40.
(PID.TID 0000.0001)  Levels:      41.  42.  43.  44.  45.  46.  47.  48.  49.  50.
(PID.TID 0000.0001) DIAGNOSTICS_SET_POINTERS: Set levels for Outp.Stream: diags/VVEL_mon_mean/VVEL_mon_mean
(PID.TID 0000.0001)  Levels:       1.   2.   3.   4.   5.   6.   7.   8.   9.  10.  11.  12.  13.  14.  15.  16.  17.  18.  19.  20.
(PID.TID 0000.0001)  Levels:      21.  22.  23.  24.  25.  26.  27.  28.  29.  30.  31.  32.  33.  34.  35.  36.  37.  38.  39.  40.
(PID.TID 0000.0001)  Levels:      41.  42.  43.  44.  45.  46.  47.  48.  49.  50.
(PID.TID 0000.0001) DIAGNOSTICS_SET_POINTERS: Set levels for Outp.Stream: diags/VVELMASS_mon_mean/VVELMASS_mon_mean
(PID.TID 0000.0001)  Levels:       1.   2.   3.   4.   5.   6.   7.   8.   9.  10.  11.  12.  13.  14.  15.  16.  17.  18.  19.  20.
(PID.TID 0000.0001)  Levels:      21.  22.  23.  24.  25.  26.  27.  28.  29.  30.  31.  32.  33.  34.  35.  36.  37.  38.  39.  40.
(PID.TID 0000.0001)  Levels:      41.  42.  43.  44.  45.  46.  47.  48.  49.  50.
(PID.TID 0000.0001) DIAGNOSTICS_SET_POINTERS: Set levels for Outp.Stream: diags/WVELMASS_mon_mean/WVELMASS_mon_mean
(PID.TID 0000.0001)  Levels:       1.   2.   3.   4.   5.   6.   7.   8.   9.  10.  11.  12.  13.  14.  15.  16.  17.  18.  19.  20.
(PID.TID 0000.0001)  Levels:      21.  22.  23.  24.  25.  26.  27.  28.  29.  30.  31.  32.  33.  34.  35.  36.  37.  38.  39.  40.
(PID.TID 0000.0001)  Levels:      41.  42.  43.  44.  45.  46.  47.  48.  49.  50.
(PID.TID 0000.0001) DIAGNOSTICS_SET_POINTERS: Set levels for Outp.Stream: diags/ETAN_mon_inst/ETAN_mon_inst
(PID.TID 0000.0001)  Levels:       1.
(PID.TID 0000.0001) DIAGNOSTICS_SET_POINTERS: Set levels for Outp.Stream: diags/SALT_mon_inst/SALT_mon_inst
(PID.TID 0000.0001)  Levels:       1.   2.   3.   4.   5.   6.   7.   8.   9.  10.  11.  12.  13.  14.  15.  16.  17.  18.  19.  20.
(PID.TID 0000.0001)  Levels:      21.  22.  23.  24.  25.  26.  27.  28.  29.  30.  31.  32.  33.  34.  35.  36.  37.  38.  39.  40.
(PID.TID 0000.0001)  Levels:      41.  42.  43.  44.  45.  46.  47.  48.  49.  50.
(PID.TID 0000.0001) DIAGNOSTICS_SET_POINTERS: Set levels for Outp.Stream: diags/THETA_mon_inst/THETA_mon_inst
(PID.TID 0000.0001)  Levels:       1.   2.   3.   4.   5.   6.   7.   8.   9.  10.  11.  12.  13.  14.  15.  16.  17.  18.  19.  20.
(PID.TID 0000.0001)  Levels:      21.  22.  23.  24.  25.  26.  27.  28.  29.  30.  31.  32.  33.  34.  35.  36.  37.  38.  39.  40.
(PID.TID 0000.0001)  Levels:      41.  42.  43.  44.  45.  46.  47.  48.  49.  50.
(PID.TID 0000.0001) DIAGNOSTICS_SET_POINTERS: Set levels for Outp.Stream: diags/SIheff_mon_inst/SIheff_mon_inst
(PID.TID 0000.0001)  Levels:       1.
(PID.TID 0000.0001) DIAGNOSTICS_SET_POINTERS: Set levels for Outp.Stream: diags/SIhsnow_mon_inst/SIhsnow_mon_inst
(PID.TID 0000.0001)  Levels:       1.
(PID.TID 0000.0001) DIAGNOSTICS_SET_POINTERS: Set levels for Outp.Stream: diags/SSH_mon_mean/SSH_mon_mean
(PID.TID 0000.0001)  Levels:       1.
(PID.TID 0000.0001) DIAGNOSTICS_SET_POINTERS: Set levels for Outp.Stream: diags/SSHIBC_mon_mean/SSHIBC_mon_mean
(PID.TID 0000.0001)  Levels:       1.
(PID.TID 0000.0001) DIAGNOSTICS_SET_POINTERS: Set levels for Outp.Stream: diags/SSHNOIBC_mon_mean/SSHNOIBC_mon_mean
(PID.TID 0000.0001)  Levels:       1.
(PID.TID 0000.0001) DIAGNOSTICS_SET_POINTERS: Set levels for Outp.Stream: diags/OBP_mon_mean/OBP_mon_mean
(PID.TID 0000.0001)  Levels:       1.
(PID.TID 0000.0001) DIAGNOSTICS_SET_POINTERS: Set levels for Outp.Stream: diags/OBPGMAP_mon_mean/OBPGMAP_mon_mean
(PID.TID 0000.0001)  Levels:       1.
(PID.TID 0000.0001) DIAGNOSTICS_SET_POINTERS: Set levels for Outp.Stream: diags/EXFpress_mon_mean/EXFpress_mon_mean
(PID.TID 0000.0001)  Levels:       1.
(PID.TID 0000.0001) DIAGNOSTICS_SET_POINTERS: done
(PID.TID 0000.0001) ------------------------------------------------------------
(PID.TID 0000.0001) DIAGSTATS_SET_REGIONS: define   0 regions:
(PID.TID 0000.0001) ------------------------------------------------------------
(PID.TID 0000.0001)   space allocated for all stats-diags:       0 levels
(PID.TID 0000.0001) DIAGSTATS_SET_POINTERS: done
(PID.TID 0000.0001) ------------------------------------------------------------
(PID.TID 0000.0001) INI_GLOBAL_DOMAIN: Found   0 CS-corner Pts in the domain
(PID.TID 0000.0001) %MON fCori_max                    =   1.4584096177006E-04
(PID.TID 0000.0001) %MON fCori_min                    =  -1.4429171327635E-04
(PID.TID 0000.0001) %MON fCori_mean                   =  -1.9531894197173E-06
(PID.TID 0000.0001) %MON fCori_sd                     =   1.0434730642309E-04
(PID.TID 0000.0001) %MON fCoriG_max                   =   1.4584247033981E-04
(PID.TID 0000.0001) %MON fCoriG_min                   =  -1.4435339896041E-04
(PID.TID 0000.0001) %MON fCoriG_mean                  =  -1.9303770726087E-06
(PID.TID 0000.0001) %MON fCoriG_sd                    =   1.0435958182593E-04
(PID.TID 0000.0001) %MON fCoriCos_max                 =   1.4584158744890E-04
(PID.TID 0000.0001) %MON fCoriCos_min                 =   6.6334365221135E-07
(PID.TID 0000.0001) %MON fCoriCos_mean                =   9.3876998486639E-05
(PID.TID 0000.0001) %MON fCoriCos_sd                  =   3.9559575367967E-05
(PID.TID 0000.0001) INI_CG2D: CG2D normalisation factor =  7.1522409280111305E-05
(PID.TID 0000.0001) 
(PID.TID 0000.0001) // =======================================================
(PID.TID 0000.0001) // Model configuration
(PID.TID 0000.0001) // =======================================================
(PID.TID 0000.0001) //
(PID.TID 0000.0001) // "Physical" paramters ( PARM01 in namelist )
(PID.TID 0000.0001) //
(PID.TID 0000.0001) buoyancyRelation = /* Type of relation to get Buoyancy */
(PID.TID 0000.0001)               'OCEANIC'
(PID.TID 0000.0001)     ;
(PID.TID 0000.0001) fluidIsAir   =  /* fluid major constituent is Air */
(PID.TID 0000.0001)                   F
(PID.TID 0000.0001)     ;
(PID.TID 0000.0001) fluidIsWater =  /* fluid major constituent is Water */
(PID.TID 0000.0001)                   T
(PID.TID 0000.0001)     ;
(PID.TID 0000.0001) usingPCoords =  /* use p (or p*) vertical coordinate */
(PID.TID 0000.0001)                   F
(PID.TID 0000.0001)     ;
(PID.TID 0000.0001) usingZCoords =  /* use z (or z*) vertical coordinate */
(PID.TID 0000.0001)                   T
(PID.TID 0000.0001)     ;
(PID.TID 0000.0001) tRef =   /* Reference temperature profile ( oC or K ) */
(PID.TID 0000.0001)     3 @  2.300000000000000E+01,             /* K =  1:  3 */
(PID.TID 0000.0001)     3 @  2.200000000000000E+01,             /* K =  4:  6 */
(PID.TID 0000.0001)                 2.100000000000000E+01,      /* K =  7 */
(PID.TID 0000.0001)     2 @  2.000000000000000E+01,             /* K =  8:  9 */
(PID.TID 0000.0001)                 1.900000000000000E+01,      /* K = 10 */
(PID.TID 0000.0001)     2 @  1.800000000000000E+01,             /* K = 11: 12 */
(PID.TID 0000.0001)                 1.700000000000000E+01,      /* K = 13 */
(PID.TID 0000.0001)     2 @  1.600000000000000E+01,             /* K = 14: 15 */
(PID.TID 0000.0001)                 1.500000000000000E+01,      /* K = 16 */
(PID.TID 0000.0001)                 1.400000000000000E+01,      /* K = 17 */
(PID.TID 0000.0001)                 1.300000000000000E+01,      /* K = 18 */
(PID.TID 0000.0001)                 1.200000000000000E+01,      /* K = 19 */
(PID.TID 0000.0001)                 1.100000000000000E+01,      /* K = 20 */
(PID.TID 0000.0001)     2 @  9.000000000000000E+00,             /* K = 21: 22 */
(PID.TID 0000.0001)                 8.000000000000000E+00,      /* K = 23 */
(PID.TID 0000.0001)                 7.000000000000000E+00,      /* K = 24 */
(PID.TID 0000.0001)     2 @  6.000000000000000E+00,             /* K = 25: 26 */
(PID.TID 0000.0001)     2 @  5.000000000000000E+00,             /* K = 27: 28 */
(PID.TID 0000.0001)     3 @  4.000000000000000E+00,             /* K = 29: 31 */
(PID.TID 0000.0001)     3 @  3.000000000000000E+00,             /* K = 32: 34 */
(PID.TID 0000.0001)     4 @  2.000000000000000E+00,             /* K = 35: 38 */
(PID.TID 0000.0001)    12 @  1.000000000000000E+00              /* K = 39: 50 */
(PID.TID 0000.0001)     ;
(PID.TID 0000.0001) sRef =   /* Reference salinity profile ( psu ) */
(PID.TID 0000.0001)    50 @  3.450000000000000E+01              /* K =  1: 50 */
(PID.TID 0000.0001)     ;
(PID.TID 0000.0001) useStrainTensionVisc= /* Use StrainTension Form of Viscous Operator */
(PID.TID 0000.0001)                   F
(PID.TID 0000.0001)     ;
(PID.TID 0000.0001) useVariableVisc = /* Use variable horizontal viscosity */
(PID.TID 0000.0001)                   T
(PID.TID 0000.0001)     ;
(PID.TID 0000.0001) useHarmonicVisc = /* Use harmonic horizontal viscosity */
(PID.TID 0000.0001)                   T
(PID.TID 0000.0001)     ;
(PID.TID 0000.0001) useBiharmonicVisc= /* Use biharmonic horiz.  viscosity */
(PID.TID 0000.0001)                   T
(PID.TID 0000.0001)     ;
(PID.TID 0000.0001) useSmag3D = /* Use isotropic 3-D Smagorinsky viscosity */
(PID.TID 0000.0001)                   F
(PID.TID 0000.0001)     ;
(PID.TID 0000.0001) viscAh  =   /* Lateral harmonic viscosity ( m^2/s ) */
(PID.TID 0000.0001)                 1.000000000000000E+00
(PID.TID 0000.0001)     ;
(PID.TID 0000.0001) viscAhMax = /* Maximum lateral harmonic viscosity ( m^2/s ) */
(PID.TID 0000.0001)                 1.000000000000000E+21
(PID.TID 0000.0001)     ;
(PID.TID 0000.0001) viscAhGrid = /* Grid dependent lateral harmonic viscosity ( non-dim. ) */
(PID.TID 0000.0001)                 2.000000000000000E-02
(PID.TID 0000.0001)     ;
(PID.TID 0000.0001) useFullLeith = /* Use Full Form of Leith Viscosity on/off flag*/
(PID.TID 0000.0001)                   F
(PID.TID 0000.0001)     ;
(PID.TID 0000.0001) useAreaViscLength = /* Use area for visc length instead of geom. mean*/
(PID.TID 0000.0001)                   F
(PID.TID 0000.0001)     ;
(PID.TID 0000.0001) viscC2leith = /* Leith harmonic visc. factor (on grad(vort),non-dim.) */
(PID.TID 0000.0001)                 0.000000000000000E+00
(PID.TID 0000.0001)     ;
(PID.TID 0000.0001) viscC2leithD = /* Leith harmonic viscosity factor (on grad(div),non-dim.)*/
(PID.TID 0000.0001)                 0.000000000000000E+00
(PID.TID 0000.0001)     ;
(PID.TID 0000.0001) viscC2smag = /* Smagorinsky harmonic viscosity factor (non-dim.) */
(PID.TID 0000.0001)                 0.000000000000000E+00
(PID.TID 0000.0001)     ;
(PID.TID 0000.0001) viscA4  =   /* Lateral biharmonic viscosity ( m^4/s ) */
(PID.TID 0000.0001)                 0.000000000000000E+00
(PID.TID 0000.0001)     ;
(PID.TID 0000.0001) viscA4Max = /* Maximum biharmonic viscosity ( m^2/s ) */
(PID.TID 0000.0001)                 1.000000000000000E+21
(PID.TID 0000.0001)     ;
(PID.TID 0000.0001) viscA4Grid = /* Grid dependent biharmonic viscosity ( non-dim. ) */
(PID.TID 0000.0001)                 0.000000000000000E+00
(PID.TID 0000.0001)     ;
(PID.TID 0000.0001) viscC4leith = /* Leith biharm viscosity factor (on grad(vort), non-dim.)*/
(PID.TID 0000.0001)                 0.000000000000000E+00
(PID.TID 0000.0001)     ;
(PID.TID 0000.0001) viscC4leithD = /* Leith biharm viscosity factor (on grad(div), non-dim.) */
(PID.TID 0000.0001)                 0.000000000000000E+00
(PID.TID 0000.0001)     ;
(PID.TID 0000.0001) viscC4Smag = /* Smagorinsky biharm viscosity factor (non-dim) */
(PID.TID 0000.0001)                 0.000000000000000E+00
(PID.TID 0000.0001)     ;
(PID.TID 0000.0001) no_slip_sides =  /* Viscous BCs: No-slip sides */
(PID.TID 0000.0001)                   T
(PID.TID 0000.0001)     ;
(PID.TID 0000.0001) sideDragFactor = /* side-drag scaling factor (non-dim) */
(PID.TID 0000.0001)                 2.000000000000000E+00
(PID.TID 0000.0001)     ;
(PID.TID 0000.0001) viscArNr = /* vertical profile of vertical viscosity ( m^2/s )*/
(PID.TID 0000.0001)    50 @  5.000000000000000E-05              /* K =  1: 50 */
(PID.TID 0000.0001)     ;
(PID.TID 0000.0001) no_slip_bottom =  /* Viscous BCs: No-slip bottom */
(PID.TID 0000.0001)                   T
(PID.TID 0000.0001)     ;
(PID.TID 0000.0001) bottomVisc_pCell = /* Partial-cell in bottom Visc. BC */
(PID.TID 0000.0001)                   F
(PID.TID 0000.0001)     ;
(PID.TID 0000.0001) bottomDragLinear = /* linear bottom-drag coefficient ( m/s ) */
(PID.TID 0000.0001)                 0.000000000000000E+00
(PID.TID 0000.0001)     ;
(PID.TID 0000.0001) bottomDragQuadratic = /* quadratic bottom-drag coefficient (-) */
(PID.TID 0000.0001)                 1.000000000000000E-03
(PID.TID 0000.0001)     ;
(PID.TID 0000.0001) selectBotDragQuadr = /* select quadratic bottom drag options */
(PID.TID 0000.0001)                       0
(PID.TID 0000.0001)     ;
(PID.TID 0000.0001) diffKhT =   /* Laplacian diffusion of heat laterally ( m^2/s ) */
(PID.TID 0000.0001)                 1.000000000000000E+01
(PID.TID 0000.0001)     ;
(PID.TID 0000.0001) diffK4T =   /* Biharmonic diffusion of heat laterally ( m^4/s ) */
(PID.TID 0000.0001)                 0.000000000000000E+00
(PID.TID 0000.0001)     ;
(PID.TID 0000.0001) diffKhS =   /* Laplacian diffusion of salt laterally ( m^2/s ) */
(PID.TID 0000.0001)                 1.000000000000000E+01
(PID.TID 0000.0001)     ;
(PID.TID 0000.0001) diffK4S =   /* Biharmonic diffusion of salt laterally ( m^4/s ) */
(PID.TID 0000.0001)                 0.000000000000000E+00
(PID.TID 0000.0001)     ;
(PID.TID 0000.0001) diffKrNrT = /* vertical profile of vertical diffusion of Temp ( m^2/s )*/
(PID.TID 0000.0001)    50 @  1.000000000000000E-05              /* K =  1: 50 */
(PID.TID 0000.0001)     ;
(PID.TID 0000.0001) diffKrNrS = /* vertical profile of vertical diffusion of Salt ( m^2/s )*/
(PID.TID 0000.0001)    50 @  1.000000000000000E-05              /* K =  1: 50 */
(PID.TID 0000.0001)     ;
(PID.TID 0000.0001) diffKrBL79surf = /* Surface diffusion for Bryan and Lewis 79 ( m^2/s ) */
(PID.TID 0000.0001)                 0.000000000000000E+00
(PID.TID 0000.0001)     ;
(PID.TID 0000.0001) diffKrBL79deep = /* Deep diffusion for Bryan and Lewis 1979 ( m^2/s ) */
(PID.TID 0000.0001)                 0.000000000000000E+00
(PID.TID 0000.0001)     ;
(PID.TID 0000.0001) diffKrBL79scl = /* Depth scale for Bryan and Lewis 1979 ( m ) */
(PID.TID 0000.0001)                 2.000000000000000E+02
(PID.TID 0000.0001)     ;
(PID.TID 0000.0001) diffKrBL79Ho = /* Turning depth for Bryan and Lewis 1979 ( m ) */
(PID.TID 0000.0001)                -2.000000000000000E+03
(PID.TID 0000.0001)     ;
(PID.TID 0000.0001) ivdc_kappa = /* Implicit Vertical Diffusivity for Convection ( m^2/s) */
(PID.TID 0000.0001)                 1.000000000000000E+01
(PID.TID 0000.0001)     ;
(PID.TID 0000.0001) hMixCriteria=  /* Criteria for mixed-layer diagnostic */
(PID.TID 0000.0001)                -8.000000000000000E-01
(PID.TID 0000.0001)     ;
(PID.TID 0000.0001) dRhoSmall =  /* Parameter for mixed-layer diagnostic */
(PID.TID 0000.0001)                 1.000000000000000E-06
(PID.TID 0000.0001)     ;
(PID.TID 0000.0001) hMixSmooth=  /* Smoothing parameter for mixed-layer diagnostic */
(PID.TID 0000.0001)                 0.000000000000000E+00
(PID.TID 0000.0001)     ;
(PID.TID 0000.0001) eosType =  /* Type of Equation of State */
(PID.TID 0000.0001)               'JMD95Z'
(PID.TID 0000.0001)     ;
(PID.TID 0000.0001) selectP_inEOS_Zc = /* select pressure to use in EOS (0,1,2,3) */
(PID.TID 0000.0001)                       0
(PID.TID 0000.0001)     0= -g*rhoConst*z ; 1= pRef (from tRef,sRef); 2= Hyd P ; 3= Hyd+NH P
(PID.TID 0000.0001)     ;
(PID.TID 0000.0001) HeatCapacity_Cp =  /* Specific heat capacity ( J/kg/K ) */
(PID.TID 0000.0001)                 3.994000000000000E+03
(PID.TID 0000.0001)     ;
(PID.TID 0000.0001) celsius2K = /* 0 degree Celsius converted to Kelvin ( K ) */
(PID.TID 0000.0001)                 2.731500000000000E+02
(PID.TID 0000.0001)     ;
(PID.TID 0000.0001) rhoConst  = /* Reference density (Boussinesq)  ( kg/m^3 ) */
(PID.TID 0000.0001)                 1.029000000000000E+03
(PID.TID 0000.0001)     ;
(PID.TID 0000.0001) rhoFacC = /* normalized Reference density @ cell-Center (-) */
(PID.TID 0000.0001)    50 @  1.000000000000000E+00              /* K =  1: 50 */
(PID.TID 0000.0001)     ;
(PID.TID 0000.0001) rhoFacF = /* normalized Reference density @ W-Interface (-) */
(PID.TID 0000.0001)    51 @  1.000000000000000E+00              /* K =  1: 51 */
(PID.TID 0000.0001)     ;
(PID.TID 0000.0001) rhoConstFresh = /* Fresh-water reference density ( kg/m^3 ) */
(PID.TID 0000.0001)                 1.000000000000000E+03
(PID.TID 0000.0001)     ;
(PID.TID 0000.0001) gravity =   /* Gravitational acceleration ( m/s^2 ) */
(PID.TID 0000.0001)                 9.810000000000000E+00
(PID.TID 0000.0001)     ;
(PID.TID 0000.0001) gBaro =   /* Barotropic gravity ( m/s^2 ) */
(PID.TID 0000.0001)                 9.810000000000000E+00
(PID.TID 0000.0001)     ;
(PID.TID 0000.0001) gravFacC = /* gravity factor (vs surf.) @ cell-Center (-) */
(PID.TID 0000.0001)    50 @  1.000000000000000E+00              /* K =  1: 50 */
(PID.TID 0000.0001)     ;
(PID.TID 0000.0001) gravFacF = /* gravity factor (vs surf.) @ W-Interface (-) */
(PID.TID 0000.0001)    51 @  1.000000000000000E+00              /* K =  1: 51 */
(PID.TID 0000.0001)     ;
(PID.TID 0000.0001) rotationPeriod =   /* Rotation Period ( s ) */
(PID.TID 0000.0001)                 8.616400000000000E+04
(PID.TID 0000.0001)     ;
(PID.TID 0000.0001) omega =   /* Angular velocity ( rad/s ) */
(PID.TID 0000.0001)                 7.292123516990375E-05
(PID.TID 0000.0001)     ;
(PID.TID 0000.0001) f0 =   /* Reference coriolis parameter ( 1/s ) */
(PID.TID 0000.0001)                 1.000000000000000E-04
(PID.TID 0000.0001)     ;
(PID.TID 0000.0001) beta =   /* Beta ( 1/(m.s) ) */
(PID.TID 0000.0001)                 9.999999999999999E-12
(PID.TID 0000.0001)     ;
(PID.TID 0000.0001) fPrime =   /* Second coriolis parameter ( 1/s ) */
(PID.TID 0000.0001)                 0.000000000000000E+00
(PID.TID 0000.0001)     ;
(PID.TID 0000.0001) rigidLid =   /* Rigid lid on/off flag */
(PID.TID 0000.0001)                   F
(PID.TID 0000.0001)     ;
(PID.TID 0000.0001) implicitFreeSurface =   /* Implicit free surface on/off flag */
(PID.TID 0000.0001)                   T
(PID.TID 0000.0001)     ;
(PID.TID 0000.0001) freeSurfFac =   /* Implicit free surface factor */
(PID.TID 0000.0001)                 1.000000000000000E+00
(PID.TID 0000.0001)     ;
(PID.TID 0000.0001) implicSurfPress =  /* Surface Pressure implicit factor (0-1)*/
(PID.TID 0000.0001)                 1.000000000000000E+00
(PID.TID 0000.0001)     ;
(PID.TID 0000.0001) implicDiv2DFlow =  /* Barot. Flow Div. implicit factor (0-1)*/
(PID.TID 0000.0001)                 1.000000000000000E+00
(PID.TID 0000.0001)     ;
(PID.TID 0000.0001) uniformLin_PhiSurf = /* use uniform Bo_surf on/off flag*/
(PID.TID 0000.0001)                   T
(PID.TID 0000.0001)     ;
(PID.TID 0000.0001) uniformFreeSurfLev = /* free-surface level-index is uniform */
(PID.TID 0000.0001)                   T
(PID.TID 0000.0001)     ;
(PID.TID 0000.0001) hFacMin =   /* minimum partial cell factor (hFac) */
(PID.TID 0000.0001)                 2.000000000000000E-01
(PID.TID 0000.0001)     ;
(PID.TID 0000.0001) hFacMinDr = /* minimum partial cell thickness ( m) */
(PID.TID 0000.0001)                 5.000000000000000E+00
(PID.TID 0000.0001)     ;
(PID.TID 0000.0001) exactConserv =  /* Exact Volume Conservation on/off flag*/
(PID.TID 0000.0001)                   T
(PID.TID 0000.0001)     ;
(PID.TID 0000.0001) linFSConserveTr = /* Tracer correction for Lin Free Surface on/off flag*/
(PID.TID 0000.0001)                   F
(PID.TID 0000.0001)     ;
(PID.TID 0000.0001) nonlinFreeSurf = /* Non-linear Free Surf. options (-1,0,1,2,3)*/
(PID.TID 0000.0001)                       4
(PID.TID 0000.0001)      -1,0= Off ; 1,2,3= On, 2=+rescale gU,gV, 3=+update cg2d solv.
(PID.TID 0000.0001)     ;
(PID.TID 0000.0001) hFacInf =   /* lower threshold for hFac (nonlinFreeSurf only)*/
(PID.TID 0000.0001)                 2.000000000000000E-01
(PID.TID 0000.0001)     ;
(PID.TID 0000.0001) hFacSup =   /* upper threshold for hFac (nonlinFreeSurf only)*/
(PID.TID 0000.0001)                 2.000000000000000E+00
(PID.TID 0000.0001)     ;
(PID.TID 0000.0001) select_rStar = /* r* Vertical coord. options (=0 r coord.; >0 uses r*)*/
(PID.TID 0000.0001)                       2
(PID.TID 0000.0001)     ;
(PID.TID 0000.0001) useRealFreshWaterFlux = /* Real Fresh Water Flux on/off flag*/
(PID.TID 0000.0001)                   T
(PID.TID 0000.0001)     ;
(PID.TID 0000.0001) temp_EvPrRn = /* Temp. of Evap/Prec/R (UNSET=use local T)(oC)*/
(PID.TID 0000.0001)                 1.234567000000000E+05
(PID.TID 0000.0001)     ;
(PID.TID 0000.0001) salt_EvPrRn = /* Salin. of Evap/Prec/R (UNSET=use local S)(psu)*/
(PID.TID 0000.0001)                 0.000000000000000E+00
(PID.TID 0000.0001)     ;
(PID.TID 0000.0001) selectAddFluid = /* option for mass source/sink of fluid (=0: off) */
(PID.TID 0000.0001)                       0
(PID.TID 0000.0001)     ;
(PID.TID 0000.0001) temp_addMass = /* Temp. of addMass array (UNSET=use local T)(oC)*/
(PID.TID 0000.0001)                 1.234567000000000E+05
(PID.TID 0000.0001)     ;
(PID.TID 0000.0001) salt_addMass = /* Salin. of addMass array (UNSET=use local S)(psu)*/
(PID.TID 0000.0001)                 0.000000000000000E+00
(PID.TID 0000.0001)     ;
(PID.TID 0000.0001) use3Dsolver = /* use 3-D pressure solver on/off flag */
(PID.TID 0000.0001)                   F
(PID.TID 0000.0001)     ;
(PID.TID 0000.0001) nonHydrostatic =  /* Non-Hydrostatic on/off flag */
(PID.TID 0000.0001)                   F
(PID.TID 0000.0001)     ;
(PID.TID 0000.0001) nh_Am2 = /* Non-Hydrostatic terms scaling factor */
(PID.TID 0000.0001)                 1.000000000000000E+00
(PID.TID 0000.0001)     ;
(PID.TID 0000.0001) implicitNHPress = /* Non-Hyd Pressure implicit factor (0-1)*/
(PID.TID 0000.0001)                 1.000000000000000E+00
(PID.TID 0000.0001)     ;
(PID.TID 0000.0001) selectNHfreeSurf = /* Non-Hyd (free-)Surface option */
(PID.TID 0000.0001)                       0
(PID.TID 0000.0001)     ;
(PID.TID 0000.0001) quasiHydrostatic = /* Quasi-Hydrostatic on/off flag */
(PID.TID 0000.0001)                   F
(PID.TID 0000.0001)     ;
(PID.TID 0000.0001) calc_wVelocity = /* vertical velocity calculation on/off flag */
(PID.TID 0000.0001)                   T
(PID.TID 0000.0001)     ;
(PID.TID 0000.0001) momStepping =  /* Momentum equation on/off flag */
(PID.TID 0000.0001)                   T
(PID.TID 0000.0001)     ;
(PID.TID 0000.0001) vectorInvariantMomentum= /* Vector-Invariant Momentum on/off */
(PID.TID 0000.0001)                   T
(PID.TID 0000.0001)     ;
(PID.TID 0000.0001) momAdvection =  /* Momentum advection on/off flag */
(PID.TID 0000.0001)                   T
(PID.TID 0000.0001)     ;
(PID.TID 0000.0001) momViscosity =  /* Momentum viscosity on/off flag */
(PID.TID 0000.0001)                   T
(PID.TID 0000.0001)     ;
(PID.TID 0000.0001) momImplVertAdv= /* Momentum implicit vert. advection on/off*/
(PID.TID 0000.0001)                   F
(PID.TID 0000.0001)     ;
(PID.TID 0000.0001) implicitViscosity = /* Implicit viscosity on/off flag */
(PID.TID 0000.0001)                   T
(PID.TID 0000.0001)     ;
(PID.TID 0000.0001) selectImplicitDrag= /* Implicit bot Drag options (0,1,2)*/
(PID.TID 0000.0001)                       0
(PID.TID 0000.0001)     0= Expl. ; 1= Impl. on provis. Vel ; 2= Fully Impl (with surf.P)
(PID.TID 0000.0001)     ;
(PID.TID 0000.0001) metricTerms =  /* metric-Terms on/off flag */
(PID.TID 0000.0001)                   F
(PID.TID 0000.0001)     ;
(PID.TID 0000.0001) useNHMTerms = /* Non-Hydrostatic Metric-Terms on/off */
(PID.TID 0000.0001)                   F
(PID.TID 0000.0001)     ;
(PID.TID 0000.0001) selectCoriMap = /* Coriolis Map options (0,1,2,3)*/
(PID.TID 0000.0001)                       2
(PID.TID 0000.0001)     0= f-Plane ; 1= Beta-Plane ; 2= Spherical ; 3= read from file
(PID.TID 0000.0001)     ;
(PID.TID 0000.0001) use3dCoriolis = /* 3-D Coriolis on/off flag */
(PID.TID 0000.0001)                   F
(PID.TID 0000.0001)     ;
(PID.TID 0000.0001) useCoriolis =  /* Coriolis on/off flag */
(PID.TID 0000.0001)                   T
(PID.TID 0000.0001)     ;
(PID.TID 0000.0001) useCDscheme =  /* CD scheme on/off flag */
(PID.TID 0000.0001)                   F
(PID.TID 0000.0001)     ;
(PID.TID 0000.0001) useEnergyConservingCoriolis= /* Flx-Form Coriolis scheme flag */
(PID.TID 0000.0001)                   F
(PID.TID 0000.0001)     ;
(PID.TID 0000.0001) useJamartWetPoints= /* Coriolis WetPoints method flag */
(PID.TID 0000.0001)                   T
(PID.TID 0000.0001)     ;
(PID.TID 0000.0001) useJamartMomAdv= /* V.I Non-linear terms Jamart flag */
(PID.TID 0000.0001)                   F
(PID.TID 0000.0001)     ;
(PID.TID 0000.0001) useAbsVorticity= /* V.I Works with f+zeta in Coriolis */
(PID.TID 0000.0001)                   F
(PID.TID 0000.0001)     ;
(PID.TID 0000.0001) selectVortScheme= /* V.I Scheme selector for Vorticity-Term */
(PID.TID 0000.0001)                       1
(PID.TID 0000.0001)    = 0 : enstrophy (Shallow-Water Eq.) conserving scheme by Sadourny, JAS 75
(PID.TID 0000.0001)    = 1 : same as 0 with modified hFac
(PID.TID 0000.0001)    = 2 : energy conserving scheme (used by Sadourny in JAS 75 paper)
(PID.TID 0000.0001)    = 3 : energy (general) and enstrophy (2D, nonDiv.) conserving scheme
(PID.TID 0000.0001)          from Sadourny (Burridge & Haseler, ECMWF Rep.4, 1977)
(PID.TID 0000.0001)     ;
(PID.TID 0000.0001) upwindVorticity= /* V.I Upwind bias vorticity flag */
(PID.TID 0000.0001)                   F
(PID.TID 0000.0001)     ;
(PID.TID 0000.0001) highOrderVorticity= /* V.I High order vort. advect. flag */
(PID.TID 0000.0001)                   F
(PID.TID 0000.0001)     ;
(PID.TID 0000.0001) upwindShear= /* V.I Upwind vertical Shear advection flag */
(PID.TID 0000.0001)                   F
(PID.TID 0000.0001)     ;
(PID.TID 0000.0001) selectKEscheme= /* V.I Kinetic Energy scheme selector */
(PID.TID 0000.0001)                       0
(PID.TID 0000.0001)     ;
(PID.TID 0000.0001) momForcing =  /* Momentum forcing on/off flag */
(PID.TID 0000.0001)                   T
(PID.TID 0000.0001)     ;
(PID.TID 0000.0001) momPressureForcing =  /* Momentum pressure term on/off flag */
(PID.TID 0000.0001)                   T
(PID.TID 0000.0001)     ;
(PID.TID 0000.0001) implicitIntGravWave= /* Implicit Internal Gravity Wave flag */
(PID.TID 0000.0001)                   F
(PID.TID 0000.0001)     ;
(PID.TID 0000.0001) staggerTimeStep =    /* Stagger time stepping on/off flag */
(PID.TID 0000.0001)                   T
(PID.TID 0000.0001)     ;
(PID.TID 0000.0001) doResetHFactors = /* reset thickness factors @ each time-step */
(PID.TID 0000.0001)                   T
(PID.TID 0000.0001)     ;
(PID.TID 0000.0001) multiDimAdvection =  /* enable/disable Multi-Dim Advection */
(PID.TID 0000.0001)                   T
(PID.TID 0000.0001)     ;
(PID.TID 0000.0001) useMultiDimAdvec =   /* Multi-Dim Advection is/is-not used */
(PID.TID 0000.0001)                   T
(PID.TID 0000.0001)     ;
(PID.TID 0000.0001) implicitDiffusion = /* Implicit Diffusion on/off flag */
(PID.TID 0000.0001)                   T
(PID.TID 0000.0001)     ;
(PID.TID 0000.0001) tempStepping =  /* Temperature equation on/off flag */
(PID.TID 0000.0001)                   T
(PID.TID 0000.0001)     ;
(PID.TID 0000.0001) tempAdvection = /* Temperature advection on/off flag */
(PID.TID 0000.0001)                   T
(PID.TID 0000.0001)     ;
(PID.TID 0000.0001) tempImplVertAdv = /* Temp. implicit vert. advection on/off */
(PID.TID 0000.0001)                   T
(PID.TID 0000.0001)     ;
(PID.TID 0000.0001) tempForcing  =  /* Temperature forcing on/off flag */
(PID.TID 0000.0001)                   T
(PID.TID 0000.0001)     ;
(PID.TID 0000.0001) balanceQnet  =  /* balance net heat-flux on/off flag */
(PID.TID 0000.0001)                   F
(PID.TID 0000.0001)     ;
(PID.TID 0000.0001) doThetaClimRelax = /* apply SST relaxation on/off flag */
(PID.TID 0000.0001)                   F
(PID.TID 0000.0001)     ;
(PID.TID 0000.0001) balanceThetaClimRelax= /* balance SST relaxation on/off flag */
(PID.TID 0000.0001)                   F
(PID.TID 0000.0001)     ;
(PID.TID 0000.0001) tempIsActiveTr = /* Temp. is a dynamically Active Tracer */
(PID.TID 0000.0001)                   T
(PID.TID 0000.0001)     ;
(PID.TID 0000.0001) saltStepping =  /* Salinity equation on/off flag */
(PID.TID 0000.0001)                   T
(PID.TID 0000.0001)     ;
(PID.TID 0000.0001) saltAdvection = /* Salinity advection on/off flag */
(PID.TID 0000.0001)                   T
(PID.TID 0000.0001)     ;
(PID.TID 0000.0001) saltImplVertAdv = /* Sali. implicit vert. advection on/off */
(PID.TID 0000.0001)                   T
(PID.TID 0000.0001)     ;
(PID.TID 0000.0001) saltForcing  =  /* Salinity forcing on/off flag */
(PID.TID 0000.0001)                   T
(PID.TID 0000.0001)     ;
(PID.TID 0000.0001) balanceEmPmR =  /* balance net fresh-water flux on/off flag */
(PID.TID 0000.0001)                   F
(PID.TID 0000.0001)     ;
(PID.TID 0000.0001) doSaltClimRelax = /* apply SSS relaxation on/off flag */
(PID.TID 0000.0001)                   F
(PID.TID 0000.0001)     ;
(PID.TID 0000.0001) balanceSaltClimRelax= /* balance SSS relaxation on/off flag */
(PID.TID 0000.0001)                   T
(PID.TID 0000.0001)     ;
(PID.TID 0000.0001) saltIsActiveTr = /* Salt  is a dynamically Active Tracer */
(PID.TID 0000.0001)                   T
(PID.TID 0000.0001)     ;
(PID.TID 0000.0001)  readBinaryPrec = /* Precision used for reading binary files */
(PID.TID 0000.0001)                      32
(PID.TID 0000.0001)     ;
(PID.TID 0000.0001) writeBinaryPrec = /* Precision used for writing binary files */
(PID.TID 0000.0001)                      32
(PID.TID 0000.0001)     ;
(PID.TID 0000.0001)  rwSuffixType =   /* select format of mds file suffix */
(PID.TID 0000.0001)                       0
(PID.TID 0000.0001)    = 0 : myIter (I10.10) ;   = 1 : 100*myTime (100th sec) ;
(PID.TID 0000.0001)    = 2 : myTime (seconds);   = 3 : myTime/360 (10th of hr);
(PID.TID 0000.0001)    = 4 : myTime/3600 (hours)
(PID.TID 0000.0001)     ;
(PID.TID 0000.0001)  globalFiles = /* write "global" (=not per tile) files */
(PID.TID 0000.0001)                   F
(PID.TID 0000.0001)     ;
(PID.TID 0000.0001)  useSingleCpuIO = /* only master MPI process does I/O */
(PID.TID 0000.0001)                   T
(PID.TID 0000.0001)     ;
(PID.TID 0000.0001)  useSingleCpuInput = /* only master process reads input */
(PID.TID 0000.0001)                   T
(PID.TID 0000.0001)     ;
(PID.TID 0000.0001) /* debLev[*]  : level of debug & auxiliary message printing */
(PID.TID 0000.0001) debLevZero =  0 ; /* level of disabled aux. msg printing */
(PID.TID 0000.0001)    debLevA =  1 ; /* level of minimum  aux. msg printing */
(PID.TID 0000.0001)    debLevB =  2 ; /* level of low aux. print (report read-file opening)*/
(PID.TID 0000.0001)    debLevC =  3 ; /* level of moderate debug prt (most pkgs debug msg) */
(PID.TID 0000.0001)    debLevD =  4 ; /* level of enhanced debug prt (add DEBUG_STATS prt) */
(PID.TID 0000.0001)    debLevE =  5 ; /* level of extensive debug printing */
(PID.TID 0000.0001) debugLevel =  /* select debug printing level */
(PID.TID 0000.0001)                       1
(PID.TID 0000.0001)     ;
(PID.TID 0000.0001)  plotLevel =  /* select PLOT_FIELD printing level */
(PID.TID 0000.0001)                       1
(PID.TID 0000.0001)     ;
(PID.TID 0000.0001) //
(PID.TID 0000.0001) // Elliptic solver(s) paramters ( PARM02 in namelist )
(PID.TID 0000.0001) //
(PID.TID 0000.0001) cg2dMaxIters =   /* Upper limit on 2d con. grad iterations  */
(PID.TID 0000.0001)                     300
(PID.TID 0000.0001)     ;
(PID.TID 0000.0001) cg2dChkResFreq =   /* 2d con. grad convergence test frequency */
(PID.TID 0000.0001)                       1
(PID.TID 0000.0001)     ;
(PID.TID 0000.0001) cg2dUseMinResSol= /* use cg2d last-iter(=0) / min-resid.(=1) solution */
(PID.TID 0000.0001)                       0
(PID.TID 0000.0001)     ;
(PID.TID 0000.0001) cg2dTargetResidual =   /* 2d con. grad target residual  */
(PID.TID 0000.0001)                 1.000000000000000E-07
(PID.TID 0000.0001)     ;
(PID.TID 0000.0001) cg2dTargetResWunit =   /* CG2d target residual [W units] */
(PID.TID 0000.0001)                -1.000000000000000E+00
(PID.TID 0000.0001)     ;
(PID.TID 0000.0001) cg2dPreCondFreq =   /* Freq. for updating cg2d preconditioner */
(PID.TID 0000.0001)                       1
(PID.TID 0000.0001)     ;
(PID.TID 0000.0001) useSRCGSolver =  /* use single reduction CG solver(s) */
(PID.TID 0000.0001)                   F
(PID.TID 0000.0001)     ;
(PID.TID 0000.0001) printResidualFreq = /* Freq. for printing CG residual */
(PID.TID 0000.0001)                       0
(PID.TID 0000.0001)     ;
(PID.TID 0000.0001) //
(PID.TID 0000.0001) // Time stepping paramters ( PARM03 in namelist )
(PID.TID 0000.0001) //
(PID.TID 0000.0001) deltaTMom =   /* Momentum equation timestep ( s ) */
(PID.TID 0000.0001)                 3.600000000000000E+03
(PID.TID 0000.0001)     ;
(PID.TID 0000.0001) deltaTFreeSurf = /* FreeSurface equation timestep ( s ) */
(PID.TID 0000.0001)                 3.600000000000000E+03
(PID.TID 0000.0001)     ;
(PID.TID 0000.0001) dTtracerLev =  /* Tracer equation timestep ( s ) */
(PID.TID 0000.0001)    50 @  3.600000000000000E+03              /* K =  1: 50 */
(PID.TID 0000.0001)     ;
(PID.TID 0000.0001) deltaTClock  =   /* Model clock timestep ( s ) */
(PID.TID 0000.0001)                 3.600000000000000E+03
(PID.TID 0000.0001)     ;
(PID.TID 0000.0001) cAdjFreq =   /* Convective adjustment interval ( s ) */
(PID.TID 0000.0001)                 0.000000000000000E+00
(PID.TID 0000.0001)     ;
(PID.TID 0000.0001) momForcingOutAB = /* =1: take Momentum Forcing out of Adams-Bash. stepping */
(PID.TID 0000.0001)                       1
(PID.TID 0000.0001)     ;
(PID.TID 0000.0001) tracForcingOutAB = /* =1: take T,S,pTr Forcing out of Adams-Bash. stepping */
(PID.TID 0000.0001)                       1
(PID.TID 0000.0001)     ;
(PID.TID 0000.0001) momDissip_In_AB = /* put Dissipation Tendency in Adams-Bash. stepping */
(PID.TID 0000.0001)                   F
(PID.TID 0000.0001)     ;
(PID.TID 0000.0001) doAB_onGtGs = /* apply AB on Tendencies (rather than on T,S)*/
(PID.TID 0000.0001)                   F
(PID.TID 0000.0001)     ;
(PID.TID 0000.0001) abEps =   /* Adams-Bashforth-2 stabilizing weight */
(PID.TID 0000.0001)                 1.000000000000000E-02
(PID.TID 0000.0001)     ;
(PID.TID 0000.0001) alph_AB =   /* Adams-Bashforth-3 primary factor */
(PID.TID 0000.0001)                 5.000000000000000E-01
(PID.TID 0000.0001)     ;
(PID.TID 0000.0001) beta_AB =   /* Adams-Bashforth-3 secondary factor */
(PID.TID 0000.0001)                 2.811050000000000E-01
(PID.TID 0000.0001)     ;
(PID.TID 0000.0001) startFromPickupAB2= /* start from AB-2 pickup */
(PID.TID 0000.0001)                   F
(PID.TID 0000.0001)     ;
(PID.TID 0000.0001) applyExchUV_early = /* Apply EXCH to U,V earlier in time-step */
(PID.TID 0000.0001)                   F
(PID.TID 0000.0001)     ;
(PID.TID 0000.0001) pickupStrictlyMatch= /* stop if pickup do not strictly match */
(PID.TID 0000.0001)                   F
(PID.TID 0000.0001)     ;
(PID.TID 0000.0001) nIter0   =   /* Run starting timestep number */
(PID.TID 0000.0001)                       1
(PID.TID 0000.0001)     ;
(PID.TID 0000.0001) nTimeSteps = /* Number of timesteps */
(PID.TID 0000.0001)                   13110
(PID.TID 0000.0001)     ;
(PID.TID 0000.0001) nEndIter =   /* Run ending timestep number */
(PID.TID 0000.0001)                   13111
(PID.TID 0000.0001)     ;
(PID.TID 0000.0001) baseTime =   /* Model base time ( s ) */
(PID.TID 0000.0001)                 0.000000000000000E+00
(PID.TID 0000.0001)     ;
(PID.TID 0000.0001) startTime =  /* Run start time ( s ) */
(PID.TID 0000.0001)                 3.600000000000000E+03
(PID.TID 0000.0001)     ;
(PID.TID 0000.0001) endTime  =   /* Integration ending time ( s ) */
(PID.TID 0000.0001)                 4.719960000000000E+07
(PID.TID 0000.0001)     ;
(PID.TID 0000.0001) pChkPtFreq = /* Permanent restart/pickup file interval ( s ) */
(PID.TID 0000.0001)                 3.153600000000000E+07
(PID.TID 0000.0001)     ;
(PID.TID 0000.0001) chkPtFreq  = /* Rolling restart/pickup file interval ( s ) */
(PID.TID 0000.0001)                 3.153600000000000E+07
(PID.TID 0000.0001)     ;
(PID.TID 0000.0001) pickup_write_mdsio =   /* Model IO flag. */
(PID.TID 0000.0001)                   T
(PID.TID 0000.0001)     ;
(PID.TID 0000.0001) pickup_read_mdsio =   /* Model IO flag. */
(PID.TID 0000.0001)                   T
(PID.TID 0000.0001)     ;
(PID.TID 0000.0001) writePickupAtEnd =   /* Model IO flag. */
(PID.TID 0000.0001)                   T
(PID.TID 0000.0001)     ;
(PID.TID 0000.0001) dumpFreq =   /* Model state write out interval ( s ). */
(PID.TID 0000.0001)                 0.000000000000000E+00
(PID.TID 0000.0001)     ;
(PID.TID 0000.0001) dumpInitAndLast= /* write out Initial & Last iter. model state */
(PID.TID 0000.0001)                   T
(PID.TID 0000.0001)     ;
(PID.TID 0000.0001) snapshot_mdsio =   /* Model IO flag. */
(PID.TID 0000.0001)                   T
(PID.TID 0000.0001)     ;
(PID.TID 0000.0001) monitorFreq =   /* Monitor output interval ( s ). */
(PID.TID 0000.0001)                 6.307200000000000E+06
(PID.TID 0000.0001)     ;
(PID.TID 0000.0001) monitorSelect = /* select group of variables to monitor */
(PID.TID 0000.0001)                       3
(PID.TID 0000.0001)     ;
(PID.TID 0000.0001) monitor_stdio =   /* Model IO flag. */
(PID.TID 0000.0001)                   T
(PID.TID 0000.0001)     ;
(PID.TID 0000.0001) externForcingPeriod =   /* forcing period (s) */
(PID.TID 0000.0001)                 0.000000000000000E+00
(PID.TID 0000.0001)     ;
(PID.TID 0000.0001) externForcingCycle =   /* period of the cyle (s). */
(PID.TID 0000.0001)                 0.000000000000000E+00
(PID.TID 0000.0001)     ;
(PID.TID 0000.0001) tauThetaClimRelax =   /* relaxation time scale (s) */
(PID.TID 0000.0001)                 0.000000000000000E+00
(PID.TID 0000.0001)     ;
(PID.TID 0000.0001) tauSaltClimRelax =   /* relaxation time scale (s) */
(PID.TID 0000.0001)                 0.000000000000000E+00
(PID.TID 0000.0001)     ;
(PID.TID 0000.0001) latBandClimRelax =   /* max. Lat. where relaxation */
(PID.TID 0000.0001)                 1.800000000000000E+02
(PID.TID 0000.0001)     ;
(PID.TID 0000.0001) //
(PID.TID 0000.0001) // Gridding paramters ( PARM04 in namelist )
(PID.TID 0000.0001) //
(PID.TID 0000.0001) usingCartesianGrid = /* Cartesian coordinates flag ( True/False ) */
(PID.TID 0000.0001)                   F
(PID.TID 0000.0001)     ;
(PID.TID 0000.0001) usingCylindricalGrid = /* Cylindrical coordinates flag ( True/False ) */
(PID.TID 0000.0001)                   F
(PID.TID 0000.0001)     ;
(PID.TID 0000.0001) usingSphericalPolarGrid = /* Spherical coordinates flag ( True/False ) */
(PID.TID 0000.0001)                   F
(PID.TID 0000.0001)     ;
(PID.TID 0000.0001) usingCurvilinearGrid = /* Curvilinear coordinates flag ( True/False ) */
(PID.TID 0000.0001)                   T
(PID.TID 0000.0001)     ;
(PID.TID 0000.0001) selectSigmaCoord = /* Hybrid-Sigma Vert. Coordinate option */
(PID.TID 0000.0001)                       0
(PID.TID 0000.0001)     ;
(PID.TID 0000.0001) rSigmaBnd = /* r/sigma transition ( units of r ==  m ) */
(PID.TID 0000.0001)                 1.234567000000000E+05
(PID.TID 0000.0001)     ;
(PID.TID 0000.0001) rkSign =   /* index orientation relative to vertical coordinate */
(PID.TID 0000.0001)                -1.000000000000000E+00
(PID.TID 0000.0001)     ;
(PID.TID 0000.0001) gravitySign = /* gravity orientation relative to vertical coordinate */
(PID.TID 0000.0001)                -1.000000000000000E+00
(PID.TID 0000.0001)     ;
(PID.TID 0000.0001) seaLev_Z =  /* reference height of sea-level [m] */
(PID.TID 0000.0001)                 0.000000000000000E+00
(PID.TID 0000.0001)     ;
(PID.TID 0000.0001) top_Pres =  /* reference pressure at the top [Pa] */
(PID.TID 0000.0001)                 0.000000000000000E+00
(PID.TID 0000.0001)     ;
(PID.TID 0000.0001) mass2rUnit = /* convert mass per unit area [kg/m2] to r-units [m] */
(PID.TID 0000.0001)                 9.718172983479105E-04
(PID.TID 0000.0001)     ;
(PID.TID 0000.0001) rUnit2mass = /* convert r-units [m] to mass per unit area [kg/m2] */
(PID.TID 0000.0001)                 1.029000000000000E+03
(PID.TID 0000.0001)     ;
(PID.TID 0000.0001) drC =   /* C spacing ( units of r ) */
(PID.TID 0000.0001)                 5.000000000000000E+00,      /* K =  1 */
(PID.TID 0000.0001)     6 @  1.000000000000000E+01,             /* K =  2:  7 */
(PID.TID 0000.0001)                 1.000500000000000E+01,      /* K =  8 */
(PID.TID 0000.0001)                 1.002000000000000E+01,      /* K =  9 */
(PID.TID 0000.0001)                 1.007000000000000E+01,      /* K = 10 */
(PID.TID 0000.0001)                 1.021500000000000E+01,      /* K = 11 */
(PID.TID 0000.0001)                 1.056000000000000E+01,      /* K = 12 */
(PID.TID 0000.0001)                 1.128000000000000E+01,      /* K = 13 */
(PID.TID 0000.0001)                 1.259000000000000E+01,      /* K = 14 */
(PID.TID 0000.0001)                 1.473000000000000E+01,      /* K = 15 */
(PID.TID 0000.0001)                 1.793000000000000E+01,      /* K = 16 */
(PID.TID 0000.0001)                 2.233500000000000E+01,      /* K = 17 */
(PID.TID 0000.0001)                 2.797500000000000E+01,      /* K = 18 */
(PID.TID 0000.0001)                 3.476000000000001E+01,      /* K = 19 */
(PID.TID 0000.0001)                 4.246000000000000E+01,      /* K = 20 */
(PID.TID 0000.0001)                 5.075000000000000E+01,      /* K = 21 */
(PID.TID 0000.0001)                 5.925000000000000E+01,      /* K = 22 */
(PID.TID 0000.0001)                 6.753999999999999E+01,      /* K = 23 */
(PID.TID 0000.0001)                 7.524000000000001E+01,      /* K = 24 */
(PID.TID 0000.0001)                 8.202500000000001E+01,      /* K = 25 */
(PID.TID 0000.0001)                 8.766500000000001E+01,      /* K = 26 */
(PID.TID 0000.0001)                 9.206999999999999E+01,      /* K = 27 */
(PID.TID 0000.0001)                 9.527000000000000E+01,      /* K = 28 */
(PID.TID 0000.0001)                 9.741499999999999E+01,      /* K = 29 */
(PID.TID 0000.0001)                 9.875000000000000E+01,      /* K = 30 */
(PID.TID 0000.0001)                 9.963000000000000E+01,      /* K = 31 */
(PID.TID 0000.0001)                 1.006700000000000E+02,      /* K = 32 */
(PID.TID 0000.0001)                 1.029450000000000E+02,      /* K = 33 */
(PID.TID 0000.0001)                 1.079450000000000E+02,      /* K = 34 */
(PID.TID 0000.0001)                 1.170800000000000E+02,      /* K = 35 */
(PID.TID 0000.0001)                 1.309600000000000E+02,      /* K = 36 */
(PID.TID 0000.0001)                 1.490150000000000E+02,      /* K = 37 */
(PID.TID 0000.0001)                 1.698850000000000E+02,      /* K = 38 */
(PID.TID 0000.0001)                 1.921900000000000E+02,      /* K = 39 */
(PID.TID 0000.0001)                 2.150250000000000E+02,      /* K = 40 */
(PID.TID 0000.0001)                 2.380000000000000E+02,      /* K = 41 */
(PID.TID 0000.0001)                 2.610000000000000E+02,      /* K = 42 */
(PID.TID 0000.0001)                 2.840000000000000E+02,      /* K = 43 */
(PID.TID 0000.0001)                 3.070000000000000E+02,      /* K = 44 */
(PID.TID 0000.0001)                 3.300000000000000E+02,      /* K = 45 */
(PID.TID 0000.0001)                 3.530000000000000E+02,      /* K = 46 */
(PID.TID 0000.0001)                 3.760000000000000E+02,      /* K = 47 */
(PID.TID 0000.0001)                 3.990000000000000E+02,      /* K = 48 */
(PID.TID 0000.0001)                 4.220000000000000E+02,      /* K = 49 */
(PID.TID 0000.0001)                 4.450000000000000E+02,      /* K = 50 */
(PID.TID 0000.0001)                 2.282500000000000E+02       /* K = 51 */
(PID.TID 0000.0001)     ;
(PID.TID 0000.0001) drF =   /* W spacing ( units of r ) */
(PID.TID 0000.0001)     7 @  1.000000000000000E+01,             /* K =  1:  7 */
(PID.TID 0000.0001)                 1.001000000000000E+01,      /* K =  8 */
(PID.TID 0000.0001)                 1.003000000000000E+01,      /* K =  9 */
(PID.TID 0000.0001)                 1.011000000000000E+01,      /* K = 10 */
(PID.TID 0000.0001)                 1.032000000000000E+01,      /* K = 11 */
(PID.TID 0000.0001)                 1.080000000000000E+01,      /* K = 12 */
(PID.TID 0000.0001)                 1.176000000000000E+01,      /* K = 13 */
(PID.TID 0000.0001)                 1.342000000000000E+01,      /* K = 14 */
(PID.TID 0000.0001)                 1.604000000000000E+01,      /* K = 15 */
(PID.TID 0000.0001)                 1.982000000000000E+01,      /* K = 16 */
(PID.TID 0000.0001)                 2.485000000000000E+01,      /* K = 17 */
(PID.TID 0000.0001)                 3.110000000000000E+01,      /* K = 18 */
(PID.TID 0000.0001)                 3.842000000000000E+01,      /* K = 19 */
(PID.TID 0000.0001)                 4.650000000000000E+01,      /* K = 20 */
(PID.TID 0000.0001)                 5.500000000000000E+01,      /* K = 21 */
(PID.TID 0000.0001)                 6.350000000000000E+01,      /* K = 22 */
(PID.TID 0000.0001)                 7.158000000000000E+01,      /* K = 23 */
(PID.TID 0000.0001)                 7.890000000000001E+01,      /* K = 24 */
(PID.TID 0000.0001)                 8.515000000000001E+01,      /* K = 25 */
(PID.TID 0000.0001)                 9.018000000000001E+01,      /* K = 26 */
(PID.TID 0000.0001)                 9.395999999999999E+01,      /* K = 27 */
(PID.TID 0000.0001)                 9.658000000000000E+01,      /* K = 28 */
(PID.TID 0000.0001)                 9.825000000000000E+01,      /* K = 29 */
(PID.TID 0000.0001)                 9.925000000000000E+01,      /* K = 30 */
(PID.TID 0000.0001)                 1.000100000000000E+02,      /* K = 31 */
(PID.TID 0000.0001)                 1.013300000000000E+02,      /* K = 32 */
(PID.TID 0000.0001)                 1.045600000000000E+02,      /* K = 33 */
(PID.TID 0000.0001)                 1.113300000000000E+02,      /* K = 34 */
(PID.TID 0000.0001)                 1.228300000000000E+02,      /* K = 35 */
(PID.TID 0000.0001)                 1.390900000000000E+02,      /* K = 36 */
(PID.TID 0000.0001)                 1.589400000000000E+02,      /* K = 37 */
(PID.TID 0000.0001)                 1.808300000000000E+02,      /* K = 38 */
(PID.TID 0000.0001)                 2.035500000000000E+02,      /* K = 39 */
(PID.TID 0000.0001)                 2.265000000000000E+02,      /* K = 40 */
(PID.TID 0000.0001)                 2.495000000000000E+02,      /* K = 41 */
(PID.TID 0000.0001)                 2.725000000000000E+02,      /* K = 42 */
(PID.TID 0000.0001)                 2.955000000000000E+02,      /* K = 43 */
(PID.TID 0000.0001)                 3.185000000000000E+02,      /* K = 44 */
(PID.TID 0000.0001)                 3.415000000000000E+02,      /* K = 45 */
(PID.TID 0000.0001)                 3.645000000000000E+02,      /* K = 46 */
(PID.TID 0000.0001)                 3.875000000000000E+02,      /* K = 47 */
(PID.TID 0000.0001)                 4.105000000000000E+02,      /* K = 48 */
(PID.TID 0000.0001)                 4.335000000000000E+02,      /* K = 49 */
(PID.TID 0000.0001)                 4.565000000000000E+02       /* K = 50 */
(PID.TID 0000.0001)     ;
(PID.TID 0000.0001) radius_fromHorizGrid = /* sphere Radius of input horiz. grid */
(PID.TID 0000.0001)                 6.370000000000000E+06
(PID.TID 0000.0001)     ;
(PID.TID 0000.0001) rSphere =  /* Radius ( ignored - cartesian, m - spherical ) */
(PID.TID 0000.0001)                 6.370000000000000E+06
(PID.TID 0000.0001)     ;
(PID.TID 0000.0001) deepAtmosphere = /* Deep/Shallow Atmosphere flag (True/False) */
(PID.TID 0000.0001)                   F
(PID.TID 0000.0001)     ;
(PID.TID 0000.0001) xC =  /* xC(:,1,:,1) : P-point X coord ( deg. or m if cartesian) */
(PID.TID 0000.0001)                -4.081468768806280E+01,      /* I =  1 */
(PID.TID 0000.0001)                -3.957104986057077E+01,      /* I =  2 */
(PID.TID 0000.0001)                -3.832217028656162E+01,      /* I =  3 */
(PID.TID 0000.0001)                -3.706844413107324E+01,      /* I =  4 */
(PID.TID 0000.0001)                -3.581028225779612E+01,      /* I =  5 */
(PID.TID 0000.0001)                -3.454811012006861E+01,      /* I =  6 */
(PID.TID 0000.0001)                -3.328236654497336E+01,      /* I =  7 */
(PID.TID 0000.0001)                -3.201350241727823E+01,      /* I =  8 */
(PID.TID 0000.0001)                -3.074197927113779E+01,      /* I =  9 */
(PID.TID 0000.0001)                -2.946826779826338E+01,      /* I = 10 */
(PID.TID 0000.0001)                -2.819284628214859E+01,      /* I = 11 */
(PID.TID 0000.0001)                -2.691619896217756E+01,      /* I = 12 */
(PID.TID 0000.0001)                -2.563881425705264E+01,      /* I = 13 */
(PID.TID 0000.0001)                -2.436118574294736E+01,      /* I = 14 */
(PID.TID 0000.0001)                -2.308380103782244E+01,      /* I = 15 */
(PID.TID 0000.0001)                -2.180715371785141E+01,      /* I = 16 */
(PID.TID 0000.0001)                -2.053173220173662E+01,      /* I = 17 */
(PID.TID 0000.0001)                -1.925802072886221E+01,      /* I = 18 */
(PID.TID 0000.0001)                -1.798649758272177E+01,      /* I = 19 */
(PID.TID 0000.0001)                -1.671763345502664E+01,      /* I = 20 */
(PID.TID 0000.0001)                -1.545188987993139E+01,      /* I = 21 */
(PID.TID 0000.0001)                -1.418971774220388E+01,      /* I = 22 */
(PID.TID 0000.0001)                -1.293155586892676E+01,      /* I = 23 */
(PID.TID 0000.0001)                -1.167782971343838E+01,      /* I = 24 */
(PID.TID 0000.0001)                -1.042895013942923E+01,      /* I = 25 */
(PID.TID 0000.0001)                -9.185312311937196E+00,      /* I = 26 */
(PID.TID 0000.0001)                -7.947294700425999E+00,      /* I = 27 */
(PID.TID 0000.0001)                -6.715258197621779E+00,      /* I = 28 */
(PID.TID 0000.0001)                -5.489545357070952E+00,      /* I = 29 */
(PID.TID 0000.0001)                -4.270479749729759E+00       /* I = 30 */
(PID.TID 0000.0001)     ;
(PID.TID 0000.0001) yC =  /* yC(1,:,1,:) : P-point Y coord ( deg. or m if cartesian) */
(PID.TID 0000.0001)                -8.146222940368236E+01,      /* J =  1 */
(PID.TID 0000.0001)                -8.113083815286421E+01,      /* J =  2 */
(PID.TID 0000.0001)                -8.079504828233755E+01,      /* J =  3 */
(PID.TID 0000.0001)                -8.045491317322768E+01,      /* J =  4 */
(PID.TID 0000.0001)                -8.011048280590389E+01,      /* J =  5 */
(PID.TID 0000.0001)                -7.976180430515704E+01,      /* J =  6 */
(PID.TID 0000.0001)                -7.940892240526760E+01,      /* J =  7 */
(PID.TID 0000.0001)                -7.905187984845006E+01,      /* J =  8 */
(PID.TID 0000.0001)                -7.869071772754813E+01,      /* J =  9 */
(PID.TID 0000.0001)                -7.832547578199167E+01,      /* J = 10 */
(PID.TID 0000.0001)                -7.795619265432416E+01,      /* J = 11 */
(PID.TID 0000.0001)                -7.758290611340497E+01,      /* J = 12 */
(PID.TID 0000.0001)                -7.720565324926896E+01,      /* J = 13 */
(PID.TID 0000.0001)                -7.682447064385434E+01,      /* J = 14 */
(PID.TID 0000.0001)                -7.643939452107085E+01,      /* J = 15 */
(PID.TID 0000.0001)                -7.605046087901695E+01,      /* J = 16 */
(PID.TID 0000.0001)                -7.565770560699295E+01,      /* J = 17 */
(PID.TID 0000.0001)                -7.526116458910658E+01,      /* J = 18 */
(PID.TID 0000.0001)                -7.486087379640449E+01,      /* J = 19 */
(PID.TID 0000.0001)                -7.445686936886233E+01,      /* J = 20 */
(PID.TID 0000.0001)                -7.404918768854837E+01,      /* J = 21 */
(PID.TID 0000.0001)                -7.363786544493549E+01,      /* J = 22 */
(PID.TID 0000.0001)                -7.322293969328220E+01,      /* J = 23 */
(PID.TID 0000.0001)                -7.280444790682334E+01,      /* J = 24 */
(PID.TID 0000.0001)                -7.238242802328044E+01,      /* J = 25 */
(PID.TID 0000.0001)                -7.195691848614972E+01,      /* J = 26 */
(PID.TID 0000.0001)                -7.152795828082729E+01,      /* J = 27 */
(PID.TID 0000.0001)                -7.109558696482472E+01,      /* J = 28 */
(PID.TID 0000.0001)                -7.065984468855757E+01,      /* J = 29 */
(PID.TID 0000.0001)                -7.022077218177122E+01       /* J = 30 */
(PID.TID 0000.0001)     ;
(PID.TID 0000.0001) rcoord = /* P-point R coordinate (  units of r ) */
(PID.TID 0000.0001)                -5.000000000000000E+00,      /* K =  1 */
(PID.TID 0000.0001)                -1.500000000000000E+01,      /* K =  2 */
(PID.TID 0000.0001)                -2.500000000000000E+01,      /* K =  3 */
(PID.TID 0000.0001)                -3.500000000000000E+01,      /* K =  4 */
(PID.TID 0000.0001)                -4.500000000000000E+01,      /* K =  5 */
(PID.TID 0000.0001)                -5.500000000000000E+01,      /* K =  6 */
(PID.TID 0000.0001)                -6.500000000000000E+01,      /* K =  7 */
(PID.TID 0000.0001)                -7.500500000000000E+01,      /* K =  8 */
(PID.TID 0000.0001)                -8.502499999999999E+01,      /* K =  9 */
(PID.TID 0000.0001)                -9.509500000000000E+01,      /* K = 10 */
(PID.TID 0000.0001)                -1.053100000000000E+02,      /* K = 11 */
(PID.TID 0000.0001)                -1.158700000000000E+02,      /* K = 12 */
(PID.TID 0000.0001)                -1.271500000000000E+02,      /* K = 13 */
(PID.TID 0000.0001)                -1.397400000000000E+02,      /* K = 14 */
(PID.TID 0000.0001)                -1.544700000000000E+02,      /* K = 15 */
(PID.TID 0000.0001)                -1.724000000000000E+02,      /* K = 16 */
(PID.TID 0000.0001)                -1.947350000000000E+02,      /* K = 17 */
(PID.TID 0000.0001)                -2.227100000000000E+02,      /* K = 18 */
(PID.TID 0000.0001)                -2.574700000000000E+02,      /* K = 19 */
(PID.TID 0000.0001)                -2.999300000000000E+02,      /* K = 20 */
(PID.TID 0000.0001)                -3.506800000000000E+02,      /* K = 21 */
(PID.TID 0000.0001)                -4.099300000000000E+02,      /* K = 22 */
(PID.TID 0000.0001)                -4.774700000000000E+02,      /* K = 23 */
(PID.TID 0000.0001)                -5.527100000000000E+02,      /* K = 24 */
(PID.TID 0000.0001)                -6.347350000000000E+02,      /* K = 25 */
(PID.TID 0000.0001)                -7.224000000000000E+02,      /* K = 26 */
(PID.TID 0000.0001)                -8.144700000000000E+02,      /* K = 27 */
(PID.TID 0000.0001)                -9.097400000000000E+02,      /* K = 28 */
(PID.TID 0000.0001)                -1.007155000000000E+03,      /* K = 29 */
(PID.TID 0000.0001)                -1.105905000000000E+03,      /* K = 30 */
(PID.TID 0000.0001)                -1.205535000000000E+03,      /* K = 31 */
(PID.TID 0000.0001)                -1.306205000000000E+03,      /* K = 32 */
(PID.TID 0000.0001)                -1.409150000000000E+03,      /* K = 33 */
(PID.TID 0000.0001)                -1.517095000000000E+03,      /* K = 34 */
(PID.TID 0000.0001)                -1.634175000000000E+03,      /* K = 35 */
(PID.TID 0000.0001)                -1.765135000000000E+03,      /* K = 36 */
(PID.TID 0000.0001)                -1.914150000000000E+03,      /* K = 37 */
(PID.TID 0000.0001)                -2.084035000000000E+03,      /* K = 38 */
(PID.TID 0000.0001)                -2.276225000000000E+03,      /* K = 39 */
(PID.TID 0000.0001)                -2.491250000000000E+03,      /* K = 40 */
(PID.TID 0000.0001)                -2.729250000000000E+03,      /* K = 41 */
(PID.TID 0000.0001)                -2.990250000000000E+03,      /* K = 42 */
(PID.TID 0000.0001)                -3.274250000000000E+03,      /* K = 43 */
(PID.TID 0000.0001)                -3.581250000000000E+03,      /* K = 44 */
(PID.TID 0000.0001)                -3.911250000000000E+03,      /* K = 45 */
(PID.TID 0000.0001)                -4.264250000000000E+03,      /* K = 46 */
(PID.TID 0000.0001)                -4.640250000000000E+03,      /* K = 47 */
(PID.TID 0000.0001)                -5.039250000000000E+03,      /* K = 48 */
(PID.TID 0000.0001)                -5.461250000000000E+03,      /* K = 49 */
(PID.TID 0000.0001)                -5.906250000000000E+03       /* K = 50 */
(PID.TID 0000.0001)     ;
(PID.TID 0000.0001) rF =   /* W-Interf. R coordinate (  units of r ) */
(PID.TID 0000.0001)                 0.000000000000000E+00,      /* K =  1 */
(PID.TID 0000.0001)                -1.000000000000000E+01,      /* K =  2 */
(PID.TID 0000.0001)                -2.000000000000000E+01,      /* K =  3 */
(PID.TID 0000.0001)                -3.000000000000000E+01,      /* K =  4 */
(PID.TID 0000.0001)                -4.000000000000000E+01,      /* K =  5 */
(PID.TID 0000.0001)                -5.000000000000000E+01,      /* K =  6 */
(PID.TID 0000.0001)                -6.000000000000000E+01,      /* K =  7 */
(PID.TID 0000.0001)                -7.000000000000000E+01,      /* K =  8 */
(PID.TID 0000.0001)                -8.001000000000001E+01,      /* K =  9 */
(PID.TID 0000.0001)                -9.004000000000001E+01,      /* K = 10 */
(PID.TID 0000.0001)                -1.001500000000000E+02,      /* K = 11 */
(PID.TID 0000.0001)                -1.104700000000000E+02,      /* K = 12 */
(PID.TID 0000.0001)                -1.212700000000000E+02,      /* K = 13 */
(PID.TID 0000.0001)                -1.330300000000000E+02,      /* K = 14 */
(PID.TID 0000.0001)                -1.464500000000000E+02,      /* K = 15 */
(PID.TID 0000.0001)                -1.624900000000000E+02,      /* K = 16 */
(PID.TID 0000.0001)                -1.823100000000000E+02,      /* K = 17 */
(PID.TID 0000.0001)                -2.071600000000000E+02,      /* K = 18 */
(PID.TID 0000.0001)                -2.382600000000000E+02,      /* K = 19 */
(PID.TID 0000.0001)                -2.766799999999999E+02,      /* K = 20 */
(PID.TID 0000.0001)                -3.231799999999999E+02,      /* K = 21 */
(PID.TID 0000.0001)                -3.781799999999999E+02,      /* K = 22 */
(PID.TID 0000.0001)                -4.416799999999999E+02,      /* K = 23 */
(PID.TID 0000.0001)                -5.132600000000000E+02,      /* K = 24 */
(PID.TID 0000.0001)                -5.921600000000000E+02,      /* K = 25 */
(PID.TID 0000.0001)                -6.773099999999999E+02,      /* K = 26 */
(PID.TID 0000.0001)                -7.674900000000000E+02,      /* K = 27 */
(PID.TID 0000.0001)                -8.614500000000000E+02,      /* K = 28 */
(PID.TID 0000.0001)                -9.580300000000001E+02,      /* K = 29 */
(PID.TID 0000.0001)                -1.056280000000000E+03,      /* K = 30 */
(PID.TID 0000.0001)                -1.155530000000000E+03,      /* K = 31 */
(PID.TID 0000.0001)                -1.255540000000000E+03,      /* K = 32 */
(PID.TID 0000.0001)                -1.356870000000000E+03,      /* K = 33 */
(PID.TID 0000.0001)                -1.461430000000000E+03,      /* K = 34 */
(PID.TID 0000.0001)                -1.572760000000000E+03,      /* K = 35 */
(PID.TID 0000.0001)                -1.695590000000000E+03,      /* K = 36 */
(PID.TID 0000.0001)                -1.834680000000000E+03,      /* K = 37 */
(PID.TID 0000.0001)                -1.993620000000000E+03,      /* K = 38 */
(PID.TID 0000.0001)                -2.174450000000000E+03,      /* K = 39 */
(PID.TID 0000.0001)                -2.378000000000000E+03,      /* K = 40 */
(PID.TID 0000.0001)                -2.604500000000000E+03,      /* K = 41 */
(PID.TID 0000.0001)                -2.854000000000000E+03,      /* K = 42 */
(PID.TID 0000.0001)                -3.126500000000000E+03,      /* K = 43 */
(PID.TID 0000.0001)                -3.422000000000000E+03,      /* K = 44 */
(PID.TID 0000.0001)                -3.740500000000000E+03,      /* K = 45 */
(PID.TID 0000.0001)                -4.082000000000000E+03,      /* K = 46 */
(PID.TID 0000.0001)                -4.446500000000000E+03,      /* K = 47 */
(PID.TID 0000.0001)                -4.834000000000000E+03,      /* K = 48 */
(PID.TID 0000.0001)                -5.244500000000000E+03,      /* K = 49 */
(PID.TID 0000.0001)                -5.678000000000000E+03,      /* K = 50 */
(PID.TID 0000.0001)                -6.134500000000000E+03       /* K = 51 */
(PID.TID 0000.0001)     ;
(PID.TID 0000.0001) deepFacC = /* deep-model grid factor @ cell-Center (-) */
(PID.TID 0000.0001)    50 @  1.000000000000000E+00              /* K =  1: 50 */
(PID.TID 0000.0001)     ;
(PID.TID 0000.0001) deepFacF = /* deep-model grid factor @ W-Interface (-) */
(PID.TID 0000.0001)    51 @  1.000000000000000E+00              /* K =  1: 51 */
(PID.TID 0000.0001)     ;
(PID.TID 0000.0001) rVel2wUnit = /* convert units: rVel -> wSpeed (=1 if z-coord)*/
(PID.TID 0000.0001)    51 @  1.000000000000000E+00              /* K =  1: 51 */
(PID.TID 0000.0001)     ;
(PID.TID 0000.0001) wUnit2rVel = /* convert units: wSpeed -> rVel (=1 if z-coord)*/
(PID.TID 0000.0001)    51 @  1.000000000000000E+00              /* K =  1: 51 */
(PID.TID 0000.0001)     ;
(PID.TID 0000.0001) dBdrRef = /* Vertical grad. of reference buoyancy [(m/s/r)^2] */
(PID.TID 0000.0001)     3 @  0.000000000000000E+00,             /* K =  1:  3 */
(PID.TID 0000.0001)                 2.706065538651213E-04,      /* K =  4 */
(PID.TID 0000.0001)     2 @  0.000000000000000E+00,             /* K =  5:  6 */
(PID.TID 0000.0001)                 2.632794562663490E-04,      /* K =  7 */
(PID.TID 0000.0001)                 2.554318021231947E-04,      /* K =  8 */
(PID.TID 0000.0001)                 0.000000000000000E+00,      /* K =  9 */
(PID.TID 0000.0001)                 2.461524232360561E-04,      /* K = 10 */
(PID.TID 0000.0001)                 2.348694431245364E-04,      /* K = 11 */
(PID.TID 0000.0001)                 0.000000000000000E+00,      /* K = 12 */
(PID.TID 0000.0001)                 2.056847859884566E-04,      /* K = 13 */
(PID.TID 0000.0001)                 1.777764506003336E-04,      /* K = 14 */
(PID.TID 0000.0001)                 0.000000000000000E+00,      /* K = 15 */
(PID.TID 0000.0001)                 1.203533867077665E-04,      /* K = 16 */
(PID.TID 0000.0001)                 9.288540355629585E-05,      /* K = 17 */
(PID.TID 0000.0001)                 7.115862770365155E-05,      /* K = 18 */
(PID.TID 0000.0001)                 5.484365820533800E-05,      /* K = 19 */
(PID.TID 0000.0001)                 4.290935507113214E-05,      /* K = 20 */
(PID.TID 0000.0001)                 6.658747741703880E-05,      /* K = 21 */
(PID.TID 0000.0001)                 0.000000000000000E+00,      /* K = 22 */
(PID.TID 0000.0001)                 2.323718420342036E-05,      /* K = 23 */
(PID.TID 0000.0001)                 1.974682037962757E-05,      /* K = 24 */
(PID.TID 0000.0001)                 1.709468932536602E-05,      /* K = 25 */
(PID.TID 0000.0001)                 0.000000000000000E+00,      /* K = 26 */
(PID.TID 0000.0001)                 1.455436545977052E-05,      /* K = 27 */
(PID.TID 0000.0001)                 0.000000000000000E+00,      /* K = 28 */
(PID.TID 0000.0001)                 1.315287111980149E-05,      /* K = 29 */
(PID.TID 0000.0001)     2 @  0.000000000000000E+00,             /* K = 30: 31 */
(PID.TID 0000.0001)                 1.240968507885233E-05,      /* K = 32 */
(PID.TID 0000.0001)     2 @  0.000000000000000E+00,             /* K = 33: 34 */
(PID.TID 0000.0001)                 1.045141607964570E-05,      /* K = 35 */
(PID.TID 0000.0001)     3 @  0.000000000000000E+00,             /* K = 36: 38 */
(PID.TID 0000.0001)                 6.628797113709505E-06,      /* K = 39 */
(PID.TID 0000.0001)    11 @  0.000000000000000E+00              /* K = 40: 50 */
(PID.TID 0000.0001)     ;
(PID.TID 0000.0001) rotateGrid = /* use rotated grid ( True/False ) */
(PID.TID 0000.0001)                   F
(PID.TID 0000.0001)     ;
(PID.TID 0000.0001) phiEuler = /* Euler angle, rotation about original z-coordinate [rad] */
(PID.TID 0000.0001)                 0.000000000000000E+00
(PID.TID 0000.0001)     ;
(PID.TID 0000.0001) thetaEuler = /* Euler angle, rotation about new x-coordinate [rad] */
(PID.TID 0000.0001)                 0.000000000000000E+00
(PID.TID 0000.0001)     ;
(PID.TID 0000.0001) psiEuler = /* Euler angle, rotation about new z-coordinate [rad] */
(PID.TID 0000.0001)                 0.000000000000000E+00
(PID.TID 0000.0001)     ;
(PID.TID 0000.0001) dxF =  /* dxF(:,1,:,1) ( units: m ) */
(PID.TID 0000.0001)                 2.071152825743187E+04,      /* I =  1 */
(PID.TID 0000.0001)                 2.070365142756831E+04,      /* I =  2 */
(PID.TID 0000.0001)                 2.069635296570141E+04,      /* I =  3 */
(PID.TID 0000.0001)                 2.068965358413176E+04,      /* I =  4 */
(PID.TID 0000.0001)                 2.068357195583360E+04,      /* I =  5 */
(PID.TID 0000.0001)                 2.067812475356784E+04,      /* I =  6 */
(PID.TID 0000.0001)                 2.067332670125947E+04,      /* I =  7 */
(PID.TID 0000.0001)                 2.066919060389092E+04,      /* I =  8 */
(PID.TID 0000.0001)                 2.066572738985245E+04,      /* I =  9 */
(PID.TID 0000.0001)                 2.066294615597989E+04,      /* I = 10 */
(PID.TID 0000.0001)                 2.066085425372315E+04,      /* I = 11 */
(PID.TID 0000.0001)                 2.065945771525925E+04,      /* I = 12 */
(PID.TID 0000.0001)                 2.065874381268158E+04,      /* I = 13 */
(PID.TID 0000.0001)                 2.065874381268158E+04,      /* I = 14 */
(PID.TID 0000.0001)                 2.065945771525925E+04,      /* I = 15 */
(PID.TID 0000.0001)                 2.066085425372316E+04,      /* I = 16 */
(PID.TID 0000.0001)                 2.066294615597989E+04,      /* I = 17 */
(PID.TID 0000.0001)                 2.066572738985245E+04,      /* I = 18 */
(PID.TID 0000.0001)                 2.066919060389088E+04,      /* I = 19 */
(PID.TID 0000.0001)                 2.067332670125956E+04,      /* I = 20 */
(PID.TID 0000.0001)                 2.067812475356780E+04,      /* I = 21 */
(PID.TID 0000.0001)                 2.068357195583360E+04,      /* I = 22 */
(PID.TID 0000.0001)                 2.068965358413182E+04,      /* I = 23 */
(PID.TID 0000.0001)                 2.069635296570133E+04,      /* I = 24 */
(PID.TID 0000.0001)                 2.070365142756836E+04,      /* I = 25 */
(PID.TID 0000.0001)                 2.071152825743182E+04,      /* I = 26 */
(PID.TID 0000.0001)                 2.071996065138743E+04,      /* I = 27 */
(PID.TID 0000.0001)                 2.072892365863983E+04,      /* I = 28 */
(PID.TID 0000.0001)                 2.073839012765668E+04,      /* I = 29 */
(PID.TID 0000.0001)                 2.074833063718403E+04       /* I = 30 */
(PID.TID 0000.0001)     ;
(PID.TID 0000.0001) dxF =  /* dxF(1,:,1,:) ( units: m ) */
(PID.TID 0000.0001)                 2.071152825743187E+04,      /* J =  1 */
(PID.TID 0000.0001)                 2.109117491456033E+04,      /* J =  2 */
(PID.TID 0000.0001)                 2.148525648961724E+04,      /* J =  3 */
(PID.TID 0000.0001)                 2.189377348588603E+04,      /* J =  4 */
(PID.TID 0000.0001)                 2.231672440915243E+04,      /* J =  5 */
(PID.TID 0000.0001)                 2.275410689480659E+04,      /* J =  6 */
(PID.TID 0000.0001)                 2.320591873318126E+04,      /* J =  7 */
(PID.TID 0000.0001)                 2.367215879054831E+04,      /* J =  8 */
(PID.TID 0000.0001)                 2.415282782538908E+04,      /* J =  9 */
(PID.TID 0000.0001)                 2.464792920101809E+04,      /* J = 10 */
(PID.TID 0000.0001)                 2.515746949702995E+04,      /* J = 11 */
(PID.TID 0000.0001)                 2.568145902315334E+04,      /* J = 12 */
(PID.TID 0000.0001)                 2.621991223981432E+04,      /* J = 13 */
(PID.TID 0000.0001)                 2.677284809033052E+04,      /* J = 14 */
(PID.TID 0000.0001)                 2.734029025013979E+04,      /* J = 15 */
(PID.TID 0000.0001)                 2.792226729855568E+04,      /* J = 16 */
(PID.TID 0000.0001)                 2.851881281852892E+04,      /* J = 17 */
(PID.TID 0000.0001)                 2.912996543046302E+04,      /* J = 18 */
(PID.TID 0000.0001)                 2.975576876502299E+04,      /* J = 19 */
(PID.TID 0000.0001)                 3.039627138062681E+04,      /* J = 20 */
(PID.TID 0000.0001)                 3.105152663065675E+04,      /* J = 21 */
(PID.TID 0000.0001)                 3.172159248542454E+04,      /* J = 22 */
(PID.TID 0000.0001)                 3.240653131349731E+04,      /* J = 23 */
(PID.TID 0000.0001)                 3.310640962675057E+04,      /* J = 24 */
(PID.TID 0000.0001)                 3.382129779388320E+04,      /* J = 25 */
(PID.TID 0000.0001)                 3.455126972555294E+04,      /* J = 26 */
(PID.TID 0000.0001)                 3.529640253603521E+04,      /* J = 27 */
(PID.TID 0000.0001)                 3.605677618612848E+04,      /* J = 28 */
(PID.TID 0000.0001)                 3.683247311866502E+04,      /* J = 29 */
(PID.TID 0000.0001)                 3.762357793548112E+04       /* J = 30 */
(PID.TID 0000.0001)     ;
(PID.TID 0000.0001) dyF =  /* dyF(:,1,:,1) ( units: m ) */
(PID.TID 0000.0001)                 3.700742300337598E+04,      /* I =  1 */
(PID.TID 0000.0001)                 3.707905556394973E+04,      /* I =  2 */
(PID.TID 0000.0001)                 3.714471828319018E+04,      /* I =  3 */
(PID.TID 0000.0001)                 3.720441078960103E+04,      /* I =  4 */
(PID.TID 0000.0001)                 3.725813297080282E+04,      /* I =  5 */
(PID.TID 0000.0001)                 3.730588490725751E+04,      /* I =  6 */
(PID.TID 0000.0001)                 3.734766681359038E+04,      /* I =  7 */
(PID.TID 0000.0001)                 3.738347898712025E+04,      /* I =  8 */
(PID.TID 0000.0001)                 3.741332176340629E+04,      /* I =  9 */
(PID.TID 0000.0001)                 3.743719547859261E+04,      /* I = 10 */
(PID.TID 0000.0001)                 3.745510043824806E+04,      /* I = 11 */
(PID.TID 0000.0001)                 3.746703689267323E+04,      /* I = 12 */
(PID.TID 0000.0001)     2 @  3.747300501832417E+04,             /* I = 13: 14 */
(PID.TID 0000.0001)                 3.746703689267323E+04,      /* I = 15 */
(PID.TID 0000.0001)                 3.745510043824806E+04,      /* I = 16 */
(PID.TID 0000.0001)                 3.743719547859261E+04,      /* I = 17 */
(PID.TID 0000.0001)                 3.741332176340628E+04,      /* I = 18 */
(PID.TID 0000.0001)                 3.738347898712024E+04,      /* I = 19 */
(PID.TID 0000.0001)                 3.734766681359040E+04,      /* I = 20 */
(PID.TID 0000.0001)                 3.730588490725750E+04,      /* I = 21 */
(PID.TID 0000.0001)                 3.725813297080281E+04,      /* I = 22 */
(PID.TID 0000.0001)                 3.720441078960103E+04,      /* I = 23 */
(PID.TID 0000.0001)                 3.714471828319017E+04,      /* I = 24 */
(PID.TID 0000.0001)                 3.707905556394973E+04,      /* I = 25 */
(PID.TID 0000.0001)                 3.700742300337599E+04,      /* I = 26 */
(PID.TID 0000.0001)                 3.692982130617692E+04,      /* I = 27 */
(PID.TID 0000.0001)                 3.684625159269555E+04,      /* I = 28 */
(PID.TID 0000.0001)                 3.675671548992459E+04,      /* I = 29 */
(PID.TID 0000.0001)                 3.666121523181524E+04       /* I = 30 */
(PID.TID 0000.0001)     ;
(PID.TID 0000.0001) dyF =  /* dyF(1,:,1,:) ( units: m ) */
(PID.TID 0000.0001)                 3.700742300337598E+04,      /* J =  1 */
(PID.TID 0000.0001)                 3.745555642044499E+04,      /* J =  2 */
(PID.TID 0000.0001)                 3.790206217653974E+04,      /* J =  3 */
(PID.TID 0000.0001)                 3.834684105117956E+04,      /* J =  4 */
(PID.TID 0000.0001)                 3.878979459357282E+04,      /* J =  5 */
(PID.TID 0000.0001)                 3.923082521328924E+04,      /* J =  6 */
(PID.TID 0000.0001)                 3.966983623246408E+04,      /* J =  7 */
(PID.TID 0000.0001)                 4.010673190475840E+04,      /* J =  8 */
(PID.TID 0000.0001)                 4.054141740950450E+04,      /* J =  9 */
(PID.TID 0000.0001)                 4.097379882434454E+04,      /* J = 10 */
(PID.TID 0000.0001)                 4.140378308084428E+04,      /* J = 11 */
(PID.TID 0000.0001)                 4.183127790875583E+04,      /* J = 12 */
(PID.TID 0000.0001)                 4.225619177206317E+04,      /* J = 13 */
(PID.TID 0000.0001)                 4.267843379867976E+04,      /* J = 14 */
(PID.TID 0000.0001)                 4.309791371221616E+04,      /* J = 15 */
(PID.TID 0000.0001)                 4.351454176087940E+04,      /* J = 16 */
(PID.TID 0000.0001)                 4.392822864881465E+04,      /* J = 17 */
(PID.TID 0000.0001)                 4.433888547805120E+04,      /* J = 18 */
(PID.TID 0000.0001)                 4.474642369096899E+04,      /* J = 19 */
(PID.TID 0000.0001)                 4.515075502217317E+04,      /* J = 20 */
(PID.TID 0000.0001)                 4.555179145554101E+04,      /* J = 21 */
(PID.TID 0000.0001)                 4.594944520275577E+04,      /* J = 22 */
(PID.TID 0000.0001)                 4.634362867401398E+04,      /* J = 23 */
(PID.TID 0000.0001)                 4.673425447947427E+04,      /* J = 24 */
(PID.TID 0000.0001)                 4.712123544873745E+04,      /* J = 25 */
(PID.TID 0000.0001)                 4.750448467975499E+04,      /* J = 26 */
(PID.TID 0000.0001)                 4.788391567392174E+04,      /* J = 27 */
(PID.TID 0000.0001)                 4.825944271092693E+04,      /* J = 28 */
(PID.TID 0000.0001)                 4.863098220111143E+04,      /* J = 29 */
(PID.TID 0000.0001)                 4.899845499569884E+04       /* J = 30 */
(PID.TID 0000.0001)     ;
(PID.TID 0000.0001) dxG =  /* dxG(:,1,:,1) ( units: m ) */
(PID.TID 0000.0001)                 2.052711702021451E+04,      /* I =  1 */
(PID.TID 0000.0001)                 2.051953983526162E+04,      /* I =  2 */
(PID.TID 0000.0001)                 2.051251425926268E+04,      /* I =  3 */
(PID.TID 0000.0001)                 2.050606148013825E+04,      /* I =  4 */
(PID.TID 0000.0001)                 2.050020059906299E+04,      /* I =  5 */
(PID.TID 0000.0001)                 2.049494867086169E+04,      /* I =  6 */
(PID.TID 0000.0001)                 2.049032075633103E+04,      /* I =  7 */
(PID.TID 0000.0001)                 2.048632995314923E+04,      /* I =  8 */
(PID.TID 0000.0001)                 2.048298743895549E+04,      /* I =  9 */
(PID.TID 0000.0001)                 2.048030251694177E+04,      /* I = 10 */
(PID.TID 0000.0001)                 2.047828270203973E+04,      /* I = 11 */
(PID.TID 0000.0001)                 2.047693414389448E+04,      /* I = 12 */
(PID.TID 0000.0001)     2 @  2.047624433858785E+04,             /* I = 13: 14 */
(PID.TID 0000.0001)                 2.047693414389443E+04,      /* I = 15 */
(PID.TID 0000.0001)                 2.047828270203978E+04,      /* I = 16 */
(PID.TID 0000.0001)                 2.048030251694177E+04,      /* I = 17 */
(PID.TID 0000.0001)                 2.048298743895548E+04,      /* I = 18 */
(PID.TID 0000.0001)                 2.048632995314927E+04,      /* I = 19 */
(PID.TID 0000.0001)                 2.049032075633093E+04,      /* I = 20 */
(PID.TID 0000.0001)                 2.049494867086174E+04,      /* I = 21 */
(PID.TID 0000.0001)                 2.050020059906297E+04,      /* I = 22 */
(PID.TID 0000.0001)                 2.050606148013830E+04,      /* I = 23 */
(PID.TID 0000.0001)                 2.051251425926268E+04,      /* I = 24 */
(PID.TID 0000.0001)                 2.051953983526163E+04,      /* I = 25 */
(PID.TID 0000.0001)                 2.052711702021443E+04,      /* I = 26 */
(PID.TID 0000.0001)                 2.053522248594683E+04,      /* I = 27 */
(PID.TID 0000.0001)                 2.054383070727552E+04,      /* I = 28 */
(PID.TID 0000.0001)                 2.055291390664790E+04,      /* I = 29 */
(PID.TID 0000.0001)                 2.056244198352907E+04       /* I = 30 */
(PID.TID 0000.0001)     ;
(PID.TID 0000.0001) dxG =  /* dxG(1,:,1,:) ( units: m ) */
(PID.TID 0000.0001)                 2.052711702021451E+04,      /* J =  1 */
(PID.TID 0000.0001)                 2.089954736357391E+04,      /* J =  2 */
(PID.TID 0000.0001)                 2.128641124518697E+04,      /* J =  3 */
(PID.TID 0000.0001)                 2.168771062037700E+04,      /* J =  4 */
(PID.TID 0000.0001)                 2.210344484655194E+04,      /* J =  5 */
(PID.TID 0000.0001)                 2.253361185972884E+04,      /* J =  6 */
(PID.TID 0000.0001)                 2.297820925105574E+04,      /* J =  7 */
(PID.TID 0000.0001)                 2.343723524028478E+04,      /* J =  8 */
(PID.TID 0000.0001)                 2.391068954427550E+04,      /* J =  9 */
(PID.TID 0000.0001)                 2.439857414125275E+04,      /* J = 10 */
(PID.TID 0000.0001)                 2.490089393241153E+04,      /* J = 11 */
(PID.TID 0000.0001)                 2.541765730414359E+04,      /* J = 12 */
(PID.TID 0000.0001)                 2.594887659459613E+04,      /* J = 13 */
(PID.TID 0000.0001)                 2.649456846940333E+04,      /* J = 14 */
(PID.TID 0000.0001)                 2.705475421181358E+04,      /* J = 15 */
(PID.TID 0000.0001)                 2.762945993231310E+04,      /* J = 16 */
(PID.TID 0000.0001)                 2.821871670385097E+04,      /* J = 17 */
(PID.TID 0000.0001)                 2.882256062780631E+04,      /* J = 18 */
(PID.TID 0000.0001)                 2.944103283669238E+04,      /* J = 19 */
(PID.TID 0000.0001)                 3.007417943861200E+04,      /* J = 20 */
(PID.TID 0000.0001)                 3.072205140902393E+04,      /* J = 21 */
(PID.TID 0000.0001)                 3.138470443467240E+04,      /* J = 22 */
(PID.TID 0000.0001)                 3.206219871470027E+04,      /* J = 23 */
(PID.TID 0000.0001)                 3.275459872326910E+04,      /* J = 24 */
(PID.TID 0000.0001)                 3.346197293831744E+04,      /* J = 25 */
(PID.TID 0000.0001)                 3.418439354048331E+04,      /* J = 26 */
(PID.TID 0000.0001)                 3.492193608585089E+04,      /* J = 27 */
(PID.TID 0000.0001)                 3.567467915738818E+04,      /* J = 28 */
(PID.TID 0000.0001)                 3.644270400216877E+04,      /* J = 29 */
(PID.TID 0000.0001)                 3.722609417427087E+04       /* J = 30 */
(PID.TID 0000.0001)     ;
(PID.TID 0000.0001) dyG =  /* dyG(:,1,:,1) ( units: m ) */
(PID.TID 0000.0001)                 3.696936823759973E+04,      /* I =  1 */
(PID.TID 0000.0001)                 3.704398547852144E+04,      /* I =  2 */
(PID.TID 0000.0001)                 3.711263318385338E+04,      /* I =  3 */
(PID.TID 0000.0001)                 3.717531082528212E+04,      /* I =  4 */
(PID.TID 0000.0001)                 3.723201816961422E+04,      /* I =  5 */
(PID.TID 0000.0001)                 3.728275520872145E+04,      /* I =  6 */
(PID.TID 0000.0001)                 3.732752209699158E+04,      /* I =  7 */
(PID.TID 0000.0001)                 3.736631909640826E+04,      /* I =  8 */
(PID.TID 0000.0001)                 3.739914652852553E+04,      /* I =  9 */
(PID.TID 0000.0001)                 3.742600473350589E+04,      /* I = 10 */
(PID.TID 0000.0001)                 3.744689403567852E+04,      /* I = 11 */
(PID.TID 0000.0001)                 3.746181471567877E+04,      /* I = 12 */
(PID.TID 0000.0001)                 3.747076698884368E+04,      /* I = 13 */
(PID.TID 0000.0001)                 3.747376174977726E+04,      /* I = 14 */
(PID.TID 0000.0001)                 3.747076698884368E+04,      /* I = 15 */
(PID.TID 0000.0001)                 3.746181471567877E+04,      /* I = 16 */
(PID.TID 0000.0001)                 3.744689403567852E+04,      /* I = 17 */
(PID.TID 0000.0001)                 3.742600473350589E+04,      /* I = 18 */
(PID.TID 0000.0001)                 3.739914652852552E+04,      /* I = 19 */
(PID.TID 0000.0001)                 3.736631909640826E+04,      /* I = 20 */
(PID.TID 0000.0001)                 3.732752209699157E+04,      /* I = 21 */
(PID.TID 0000.0001)                 3.728275520872146E+04,      /* I = 22 */
(PID.TID 0000.0001)                 3.723201816961422E+04,      /* I = 23 */
(PID.TID 0000.0001)                 3.717531082528211E+04,      /* I = 24 */
(PID.TID 0000.0001)                 3.711263318385338E+04,      /* I = 25 */
(PID.TID 0000.0001)                 3.704398547852145E+04,      /* I = 26 */
(PID.TID 0000.0001)                 3.696936823759972E+04,      /* I = 27 */
(PID.TID 0000.0001)                 3.688878236278851E+04,      /* I = 28 */
(PID.TID 0000.0001)                 3.680222921581766E+04,      /* I = 29 */
(PID.TID 0000.0001)                 3.670971071402137E+04       /* I = 30 */
(PID.TID 0000.0001)     ;
(PID.TID 0000.0001) dyG =  /* dyG(1,:,1,:) ( units: m ) */
(PID.TID 0000.0001)                 3.696936823759973E+04,      /* J =  1 */
(PID.TID 0000.0001)                 3.741746190559281E+04,      /* J =  2 */
(PID.TID 0000.0001)                 3.786390067184393E+04,      /* J =  3 */
(PID.TID 0000.0001)                 3.830858172733455E+04,      /* J =  4 */
(PID.TID 0000.0001)                 3.875140319955796E+04,      /* J =  5 */
(PID.TID 0000.0001)                 3.919226424948571E+04,      /* J =  6 */
(PID.TID 0000.0001)                 3.963106512715793E+04,      /* J =  7 */
(PID.TID 0000.0001)                 4.006770719102380E+04,      /* J =  8 */
(PID.TID 0000.0001)                 4.050209290047463E+04,      /* J =  9 */
(PID.TID 0000.0001)                 4.093412578484027E+04,      /* J = 10 */
(PID.TID 0000.0001)                 4.136371039407872E+04,      /* J = 11 */
(PID.TID 0000.0001)                 4.179075223673176E+04,      /* J = 12 */
(PID.TID 0000.0001)                 4.221515770920290E+04,      /* J = 13 */
(PID.TID 0000.0001)                 4.263683401805614E+04,      /* J = 14 */
(PID.TID 0000.0001)                 4.305568910412182E+04,      /* J = 15 */
(PID.TID 0000.0001)                 4.347163156363047E+04,      /* J = 16 */
(PID.TID 0000.0001)                 4.388457057225752E+04,      /* J = 17 */
(PID.TID 0000.0001)                 4.429441581934092E+04,      /* J = 18 */
(PID.TID 0000.0001)                 4.470107744374240E+04,      /* J = 19 */
(PID.TID 0000.0001)                 4.510446597891348E+04,      /* J = 20 */
(PID.TID 0000.0001)                 4.550449230395439E+04,      /* J = 21 */
(PID.TID 0000.0001)                 4.590106761654920E+04,      /* J = 22 */
(PID.TID 0000.0001)                 4.629410339849156E+04,      /* J = 23 */
(PID.TID 0000.0001)                 4.668351141269982E+04,      /* J = 24 */
(PID.TID 0000.0001)                 4.706920371856177E+04,      /* J = 25 */
(PID.TID 0000.0001)                 4.745109271730031E+04,      /* J = 26 */
(PID.TID 0000.0001)                 4.782909128417812E+04,      /* J = 27 */
(PID.TID 0000.0001)                 4.820311314005602E+04,      /* J = 28 */
(PID.TID 0000.0001)                 4.857307420014453E+04,      /* J = 29 */
(PID.TID 0000.0001)                 4.893889490827491E+04       /* J = 30 */
(PID.TID 0000.0001)     ;
(PID.TID 0000.0001) dxC =  /* dxC(:,1,:,1) ( units: m ) */
(PID.TID 0000.0001)                 2.071567651695695E+04,      /* I =  1 */
(PID.TID 0000.0001)                 2.070751892245589E+04,      /* I =  2 */
(PID.TID 0000.0001)                 2.069992855779408E+04,      /* I =  3 */
(PID.TID 0000.0001)                 2.069292717562287E+04,      /* I =  4 */
(PID.TID 0000.0001)                 2.068653446229046E+04,      /* I =  5 */
(PID.TID 0000.0001)                 2.068076808552306E+04,      /* I =  6 */
(PID.TID 0000.0001)                 2.067564373903614E+04,      /* I =  7 */
(PID.TID 0000.0001)                 2.067117518190149E+04,      /* I =  8 */
(PID.TID 0000.0001)                 2.066737427558298E+04,      /* I =  9 */
(PID.TID 0000.0001)                 2.066425102685107E+04,      /* I = 10 */
(PID.TID 0000.0001)                 2.066181364132844E+04,      /* I = 11 */
(PID.TID 0000.0001)                 2.066006869803818E+04,      /* I = 12 */
(PID.TID 0000.0001)                 2.065902266229015E+04,      /* I = 13 */
(PID.TID 0000.0001)                 2.065863826775786E+04,      /* I = 14 */
(PID.TID 0000.0001)                 2.065902266229016E+04,      /* I = 15 */
(PID.TID 0000.0001)                 2.066006869803813E+04,      /* I = 16 */
(PID.TID 0000.0001)                 2.066181364132850E+04,      /* I = 17 */
(PID.TID 0000.0001)                 2.066425102685108E+04,      /* I = 18 */
(PID.TID 0000.0001)                 2.066737427558298E+04,      /* I = 19 */
(PID.TID 0000.0001)                 2.067117518190149E+04,      /* I = 20 */
(PID.TID 0000.0001)                 2.067564373903615E+04,      /* I = 21 */
(PID.TID 0000.0001)                 2.068076808552304E+04,      /* I = 22 */
(PID.TID 0000.0001)                 2.068653446229045E+04,      /* I = 23 */
(PID.TID 0000.0001)                 2.069292717562287E+04,      /* I = 24 */
(PID.TID 0000.0001)                 2.069992855779413E+04,      /* I = 25 */
(PID.TID 0000.0001)                 2.070751892245584E+04,      /* I = 26 */
(PID.TID 0000.0001)                 2.071567651695691E+04,      /* I = 27 */
(PID.TID 0000.0001)                 2.072437747324421E+04,      /* I = 28 */
(PID.TID 0000.0001)                 2.073359574551806E+04,      /* I = 29 */
(PID.TID 0000.0001)                 2.074330305575613E+04       /* I = 30 */
(PID.TID 0000.0001)     ;
(PID.TID 0000.0001) dxC =  /* dxC(1,:,1,:) ( units: m ) */
(PID.TID 0000.0001)                 2.071567651695695E+04,      /* J =  1 */
(PID.TID 0000.0001)                 2.109563672137949E+04,      /* J =  2 */
(PID.TID 0000.0001)                 2.149002149497106E+04,      /* J =  3 */
(PID.TID 0000.0001)                 2.189882927482529E+04,      /* J =  4 */
(PID.TID 0000.0001)                 2.232205646389843E+04,      /* J =  5 */
(PID.TID 0000.0001)                 2.275969855854128E+04,      /* J =  6 */
(PID.TID 0000.0001)                 2.321175117362029E+04,      /* J =  7 */
(PID.TID 0000.0001)                 2.367821096276529E+04,      /* J =  8 */
(PID.TID 0000.0001)                 2.415907643347346E+04,      /* J =  9 */
(PID.TID 0000.0001)                 2.465434865814045E+04,      /* J = 10 */
(PID.TID 0000.0001)                 2.516403188365780E+04,      /* J = 11 */
(PID.TID 0000.0001)                 2.568813404310613E+04,      /* J = 12 */
(PID.TID 0000.0001)                 2.622666717399572E+04,      /* J = 13 */
(PID.TID 0000.0001)                 2.677964774799169E+04,      /* J = 14 */
(PID.TID 0000.0001)                 2.734709691757753E+04,      /* J = 15 */
(PID.TID 0000.0001)                 2.792904068517491E+04,      /* J = 16 */
(PID.TID 0000.0001)                 2.852551000032625E+04,      /* J = 17 */
(PID.TID 0000.0001)                 2.913654079081990E+04,      /* J = 18 */
(PID.TID 0000.0001)                 2.976217393306023E+04,      /* J = 19 */
(PID.TID 0000.0001)                 3.040245516699173E+04,      /* J = 20 */
(PID.TID 0000.0001)                 3.105743496108396E+04,      /* J = 21 */
(PID.TID 0000.0001)                 3.172716833208323E+04,      /* J = 22 */
(PID.TID 0000.0001)                 3.241171462422546E+04,      /* J = 23 */
(PID.TID 0000.0001)                 3.311113725244482E+04,      /* J = 24 */
(PID.TID 0000.0001)                 3.382550341391024E+04,      /* J = 25 */
(PID.TID 0000.0001)                 3.455488377140061E+04,      /* J = 26 */
(PID.TID 0000.0001)                 3.529935211332738E+04,      /* J = 27 */
(PID.TID 0000.0001)                 3.605898499520765E+04,      /* J = 28 */
(PID.TID 0000.0001)                 3.683386137397906E+04,      /* J = 29 */
(PID.TID 0000.0001)                 3.762406228407349E+04       /* J = 30 */
(PID.TID 0000.0001)     ;
(PID.TID 0000.0001) dyC =  /* dyC(:,1,:,1) ( units: m ) */
(PID.TID 0000.0001)                 3.678277710845771E+04,      /* I =  1 */
(PID.TID 0000.0001)                 3.685438685866048E+04,      /* I =  2 */
(PID.TID 0000.0001)                 3.692002588020908E+04,      /* I =  3 */
(PID.TID 0000.0001)                 3.697969453541307E+04,      /* I =  4 */
(PID.TID 0000.0001)                 3.703339337607873E+04,      /* I =  5 */
(PID.TID 0000.0001)                 3.708112307814123E+04,      /* I =  6 */
(PID.TID 0000.0001)                 3.712288438364359E+04,      /* I =  7 */
(PID.TID 0000.0001)                 3.715867804995441E+04,      /* I =  8 */
(PID.TID 0000.0001)                 3.718850480589901E+04,      /* I =  9 */
(PID.TID 0000.0001)                 3.721236531452968E+04,      /* I = 10 */
(PID.TID 0000.0001)                 3.723026014246432E+04,      /* I = 11 */
(PID.TID 0000.0001)                 3.724218973548726E+04,      /* I = 12 */
(PID.TID 0000.0001)     2 @  3.724815440020872E+04,             /* I = 13: 14 */
(PID.TID 0000.0001)                 3.724218973548726E+04,      /* I = 15 */
(PID.TID 0000.0001)                 3.723026014246432E+04,      /* I = 16 */
(PID.TID 0000.0001)                 3.721236531452968E+04,      /* I = 17 */
(PID.TID 0000.0001)                 3.718850480589901E+04,      /* I = 18 */
(PID.TID 0000.0001)                 3.715867804995440E+04,      /* I = 19 */
(PID.TID 0000.0001)                 3.712288438364359E+04,      /* I = 20 */
(PID.TID 0000.0001)                 3.708112307814122E+04,      /* I = 21 */
(PID.TID 0000.0001)                 3.703339337607873E+04,      /* I = 22 */
(PID.TID 0000.0001)                 3.697969453541307E+04,      /* I = 23 */
(PID.TID 0000.0001)                 3.692002588020908E+04,      /* I = 24 */
(PID.TID 0000.0001)                 3.685438685866047E+04,      /* I = 25 */
(PID.TID 0000.0001)                 3.678277710845772E+04,      /* I = 26 */
(PID.TID 0000.0001)                 3.670519653011381E+04,      /* I = 27 */
(PID.TID 0000.0001)                 3.662164536844059E+04,      /* I = 28 */
(PID.TID 0000.0001)                 3.653212430257830E+04,      /* I = 29 */
(PID.TID 0000.0001)                 3.643663454523116E+04       /* I = 30 */
(PID.TID 0000.0001)     ;
(PID.TID 0000.0001) dyC =  /* dyC(1,:,1,:) ( units: m ) */
(PID.TID 0000.0001)                 3.678277710845771E+04,      /* J =  1 */
(PID.TID 0000.0001)                 3.723168694115569E+04,      /* J =  2 */
(PID.TID 0000.0001)                 3.767901897410101E+04,      /* J =  3 */
(PID.TID 0000.0001)                 3.812467364657602E+04,      /* J =  4 */
(PID.TID 0000.0001)                 3.856855210935249E+04,      /* J =  5 */
(PID.TID 0000.0001)                 3.901055633269680E+04,      /* J =  6 */
(PID.TID 0000.0001)                 3.945058917911859E+04,      /* J =  7 */
(PID.TID 0000.0001)                 3.988855443472220E+04,      /* J =  8 */
(PID.TID 0000.0001)                 4.032435681898361E+04,      /* J =  9 */
(PID.TID 0000.0001)                 4.075790196435841E+04,      /* J = 10 */
(PID.TID 0000.0001)                 4.118909638222960E+04,      /* J = 11 */
(PID.TID 0000.0001)                 4.161784741043697E+04,      /* J = 12 */
(PID.TID 0000.0001)                 4.204406315499045E+04,      /* J = 13 */
(PID.TID 0000.0001)                 4.246765242091182E+04,      /* J = 14 */
(PID.TID 0000.0001)                 4.288852464034393E+04,      /* J = 15 */
(PID.TID 0000.0001)                 4.330658981118225E+04,      /* J = 16 */
(PID.TID 0000.0001)                 4.372175841431943E+04,      /* J = 17 */
(PID.TID 0000.0001)                 4.413394136293020E+04,      /* J = 18 */
(PID.TID 0000.0001)                 4.454304993440304E+04,      /* J = 19 */
(PID.TID 0000.0001)                 4.494899572325061E+04,      /* J = 20 */
(PID.TID 0000.0001)                 4.535169059286820E+04,      /* J = 21 */
(PID.TID 0000.0001)                 4.575104664412256E+04,      /* J = 22 */
(PID.TID 0000.0001)                 4.614697618947234E+04,      /* J = 23 */
(PID.TID 0000.0001)                 4.653939173844085E+04,      /* J = 24 */
(PID.TID 0000.0001)                 4.692820600744408E+04,      /* J = 25 */
(PID.TID 0000.0001)                 4.731333194957835E+04,      /* J = 26 */
(PID.TID 0000.0001)                 4.769468283927006E+04,      /* J = 27 */
(PID.TID 0000.0001)                 4.807217249390641E+04,      /* J = 28 */
(PID.TID 0000.0001)                 4.844571593362943E+04,      /* J = 29 */
(PID.TID 0000.0001)                 4.881523285497380E+04       /* J = 30 */
(PID.TID 0000.0001)     ;
(PID.TID 0000.0001) dxV =  /* dxV(:,1,:,1) ( units: m ) */
(PID.TID 0000.0001)                 2.053110526075532E+04,      /* I =  1 */
(PID.TID 0000.0001)                 2.052326088418283E+04,      /* I =  2 */
(PID.TID 0000.0001)                 2.051595672244828E+04,      /* I =  3 */
(PID.TID 0000.0001)                 2.050921502797681E+04,      /* I =  4 */
(PID.TID 0000.0001)                 2.050305593886370E+04,      /* I =  5 */
(PID.TID 0000.0001)                 2.049749752783181E+04,      /* I =  6 */
(PID.TID 0000.0001)                 2.049255584793284E+04,      /* I =  7 */
(PID.TID 0000.0001)                 2.048824497292525E+04,      /* I =  8 */
(PID.TID 0000.0001)                 2.048457703515834E+04,      /* I =  9 */
(PID.TID 0000.0001)                 2.048156226915133E+04,      /* I = 10 */
(PID.TID 0000.0001)                 2.047920906551970E+04,      /* I = 11 */
(PID.TID 0000.0001)                 2.047752414469434E+04,      /* I = 12 */
(PID.TID 0000.0001)                 2.047651405696554E+04,      /* I = 13 */
(PID.TID 0000.0001)                 2.047614194664622E+04,      /* I = 14 */
(PID.TID 0000.0001)                 2.047651405696559E+04,      /* I = 15 */
(PID.TID 0000.0001)                 2.047752414469430E+04,      /* I = 16 */
(PID.TID 0000.0001)                 2.047920906551971E+04,      /* I = 17 */
(PID.TID 0000.0001)                 2.048156226915138E+04,      /* I = 18 */
(PID.TID 0000.0001)                 2.048457703515829E+04,      /* I = 19 */
(PID.TID 0000.0001)                 2.048824497292535E+04,      /* I = 20 */
(PID.TID 0000.0001)                 2.049255584793274E+04,      /* I = 21 */
(PID.TID 0000.0001)                 2.049749752783187E+04,      /* I = 22 */
(PID.TID 0000.0001)                 2.050305593886373E+04,      /* I = 23 */
(PID.TID 0000.0001)                 2.050921502797675E+04,      /* I = 24 */
(PID.TID 0000.0001)                 2.051595672244826E+04,      /* I = 25 */
(PID.TID 0000.0001)                 2.052326088418290E+04,      /* I = 26 */
(PID.TID 0000.0001)                 2.053110526075532E+04,      /* I = 27 */
(PID.TID 0000.0001)                 2.053946543494557E+04,      /* I = 28 */
(PID.TID 0000.0001)                 2.054831476098181E+04,      /* I = 29 */
(PID.TID 0000.0001)                 2.055762430839241E+04       /* I = 30 */
(PID.TID 0000.0001)     ;
(PID.TID 0000.0001) dxV =  /* dxV(1,:,1,:) ( units: m ) */
(PID.TID 0000.0001)                 2.053110526075532E+04,      /* J =  1 */
(PID.TID 0000.0001)                 2.090385356266093E+04,      /* J =  2 */
(PID.TID 0000.0001)                 2.129102607314009E+04,      /* J =  3 */
(PID.TID 0000.0001)                 2.169262269996662E+04,      /* J =  4 */
(PID.TID 0000.0001)                 2.210864071595607E+04,      /* J =  5 */
(PID.TID 0000.0001)                 2.253907593617405E+04,      /* J =  6 */
(PID.TID 0000.0001)                 2.298392379458377E+04,      /* J =  7 */
(PID.TID 0000.0001)                 2.344318031700113E+04,      /* J =  8 */
(PID.TID 0000.0001)                 2.391684298864163E+04,      /* J =  9 */
(PID.TID 0000.0001)                 2.440491151699962E+04,      /* J = 10 */
(PID.TID 0000.0001)                 2.490738849171163E+04,      /* J = 11 */
(PID.TID 0000.0001)                 2.542427994477456E+04,      /* J = 12 */
(PID.TID 0000.0001)                 2.595559581485789E+04,      /* J = 13 */
(PID.TID 0000.0001)                 2.650135032062733E+04,      /* J = 14 */
(PID.TID 0000.0001)                 2.706156224833991E+04,      /* J = 15 */
(PID.TID 0000.0001)                 2.763625515890197E+04,      /* J = 16 */
(PID.TID 0000.0001)                 2.822545752042790E+04,      /* J = 17 */
(PID.TID 0000.0001)                 2.882920277162976E+04,      /* J = 18 */
(PID.TID 0000.0001)                 2.944752932187136E+04,      /* J = 19 */
(PID.TID 0000.0001)                 3.008048049319959E+04,      /* J = 20 */
(PID.TID 0000.0001)                 3.072810440966728E+04,      /* J = 21 */
(PID.TID 0000.0001)                 3.139045383903842E+04,      /* J = 22 */
(PID.TID 0000.0001)                 3.206758599174654E+04,      /* J = 23 */
(PID.TID 0000.0001)                 3.275956228156967E+04,      /* J = 24 */
(PID.TID 0000.0001)                 3.346644805244220E+04,      /* J = 25 */
(PID.TID 0000.0001)                 3.418831227550044E+04,      /* J = 26 */
(PID.TID 0000.0001)                 3.492522722017510E+04,      /* J = 27 */
(PID.TID 0000.0001)                 3.567726810399632E+04,      /* J = 28 */
(PID.TID 0000.0001)                 3.644451272859776E+04,      /* J = 29 */
(PID.TID 0000.0001)                 3.722704112152557E+04       /* J = 30 */
(PID.TID 0000.0001)     ;
(PID.TID 0000.0001) dyU =  /* dyU(:,1,:,1) ( units: m ) */
(PID.TID 0000.0001)                 3.674473316658630E+04,      /* I =  1 */
(PID.TID 0000.0001)                 3.681932833792822E+04,      /* I =  2 */
(PID.TID 0000.0001)                 3.688795269313092E+04,      /* I =  3 */
(PID.TID 0000.0001)                 3.695060647275718E+04,      /* I =  4 */
(PID.TID 0000.0001)                 3.700729014250917E+04,      /* I =  5 */
(PID.TID 0000.0001)                 3.705800432398131E+04,      /* I =  6 */
(PID.TID 0000.0001)                 3.710274973294064E+04,      /* I =  7 */
(PID.TID 0000.0001)                 3.714152712500728E+04,      /* I =  8 */
(PID.TID 0000.0001)                 3.717433724834998E+04,      /* I =  9 */
(PID.TID 0000.0001)                 3.720118080314009E+04,      /* I = 10 */
(PID.TID 0000.0001)                 3.722205840764935E+04,      /* I = 11 */
(PID.TID 0000.0001)                 3.723697057073888E+04,      /* I = 12 */
(PID.TID 0000.0001)                 3.724591767054543E+04,      /* I = 13 */
(PID.TID 0000.0001)                 3.724891083990022E+04,      /* I = 14 */
(PID.TID 0000.0001)                 3.724591767054542E+04,      /* I = 15 */
(PID.TID 0000.0001)                 3.723697057073889E+04,      /* I = 16 */
(PID.TID 0000.0001)                 3.722205840764935E+04,      /* I = 17 */
(PID.TID 0000.0001)                 3.720118080314008E+04,      /* I = 18 */
(PID.TID 0000.0001)                 3.717433724834998E+04,      /* I = 19 */
(PID.TID 0000.0001)                 3.714152712500728E+04,      /* I = 20 */
(PID.TID 0000.0001)                 3.710274973294063E+04,      /* I = 21 */
(PID.TID 0000.0001)                 3.705800432398131E+04,      /* I = 22 */
(PID.TID 0000.0001)                 3.700729014250917E+04,      /* I = 23 */
(PID.TID 0000.0001)                 3.695060647275716E+04,      /* I = 24 */
(PID.TID 0000.0001)                 3.688795269313094E+04,      /* I = 25 */
(PID.TID 0000.0001)                 3.681932833792821E+04,      /* I = 26 */
(PID.TID 0000.0001)                 3.674473316658630E+04,      /* I = 27 */
(PID.TID 0000.0001)                 3.666416724104654E+04,      /* I = 28 */
(PID.TID 0000.0001)                 3.657763101146962E+04,      /* I = 29 */
(PID.TID 0000.0001)                 3.648512541079492E+04       /* I = 30 */
(PID.TID 0000.0001)     ;
(PID.TID 0000.0001) dyU =  /* dyU(1,:,1,:) ( units: m ) */
(PID.TID 0000.0001)                 3.674473316658630E+04,      /* J =  1 */
(PID.TID 0000.0001)                 3.719361547538896E+04,      /* J =  2 */
(PID.TID 0000.0001)                 3.764089459751266E+04,      /* J =  3 */
(PID.TID 0000.0001)                 3.808646730382765E+04,      /* J =  4 */
(PID.TID 0000.0001)                 3.853023123895088E+04,      /* J =  5 */
(PID.TID 0000.0001)                 3.897208503739593E+04,      /* J =  6 */
(PID.TID 0000.0001)                 3.941192840112046E+04,      /* J =  7 */
(PID.TID 0000.0001)                 3.984966213263487E+04,      /* J =  8 */
(PID.TID 0000.0001)                 4.028518814419441E+04,      /* J =  9 */
(PID.TID 0000.0001)                 4.071840943468107E+04,      /* J = 10 */
(PID.TID 0000.0001)                 4.114923005120406E+04,      /* J = 11 */
(PID.TID 0000.0001)                 4.157755503103340E+04,      /* J = 12 */
(PID.TID 0000.0001)                 4.200329033666767E+04,      /* J = 13 */
(PID.TID 0000.0001)                 4.242634277960793E+04,      /* J = 14 */
(PID.TID 0000.0001)                 4.284661994092684E+04,      /* J = 15 */
(PID.TID 0000.0001)                 4.326403010205203E+04,      /* J = 16 */
(PID.TID 0000.0001)                 4.367848215462093E+04,      /* J = 17 */
(PID.TID 0000.0001)                 4.408988554208750E+04,      /* J = 18 */
(PID.TID 0000.0001)                 4.449815018464295E+04,      /* J = 19 */
(PID.TID 0000.0001)                 4.490318642518511E+04,      /* J = 20 */
(PID.TID 0000.0001)                 4.530490497491705E+04,      /* J = 21 */
(PID.TID 0000.0001)                 4.570321687598708E+04,      /* J = 22 */
(PID.TID 0000.0001)                 4.609803347024994E+04,      /* J = 23 */
(PID.TID 0000.0001)                 4.648926637992392E+04,      /* J = 24 */
(PID.TID 0000.0001)                 4.687682751321772E+04,      /* J = 25 */
(PID.TID 0000.0001)                 4.726062909013533E+04,      /* J = 26 */
(PID.TID 0000.0001)                 4.764058372401170E+04,      /* J = 27 */
(PID.TID 0000.0001)                 4.801660464021451E+04,      /* J = 28 */
(PID.TID 0000.0001)                 4.838860633247659E+04,      /* J = 29 */
(PID.TID 0000.0001)                 4.875650803021456E+04       /* J = 30 */
(PID.TID 0000.0001)     ;
(PID.TID 0000.0001) rA  =  /* rA (:,1,:,1) ( units: m^2 ) */
(PID.TID 0000.0001)                 7.665113621396177E+08,      /* I =  1 */
(PID.TID 0000.0001)                 7.677029697239892E+08,      /* I =  2 */
(PID.TID 0000.0001)                 7.687913877455838E+08,      /* I =  3 */
(PID.TID 0000.0001)                 7.697775979751738E+08,      /* I =  4 */
(PID.TID 0000.0001)                 7.706625466485583E+08,      /* I =  5 */
(PID.TID 0000.0001)                 7.714470546020026E+08,      /* I =  6 */
(PID.TID 0000.0001)                 7.721318586456149E+08,      /* I =  7 */
(PID.TID 0000.0001)                 7.727176271684608E+08,      /* I =  8 */
(PID.TID 0000.0001)                 7.732049082776864E+08,      /* I =  9 */
(PID.TID 0000.0001)                 7.735941717305043E+08,      /* I = 10 */
(PID.TID 0000.0001)                 7.738858051500469E+08,      /* I = 11 */
(PID.TID 0000.0001)                 7.740801100790358E+08,      /* I = 12 */
(PID.TID 0000.0001)                 7.741766386182301E+08,      /* I = 13 */
(PID.TID 0000.0001)                 7.741766369784317E+08,      /* I = 14 */
(PID.TID 0000.0001)                 7.740801094843833E+08,      /* I = 15 */
(PID.TID 0000.0001)                 7.738858062852919E+08,      /* I = 16 */
(PID.TID 0000.0001)                 7.735941726495122E+08,      /* I = 17 */
(PID.TID 0000.0001)                 7.732049061873938E+08,      /* I = 18 */
(PID.TID 0000.0001)                 7.727176277450933E+08,      /* I = 19 */
(PID.TID 0000.0001)                 7.721318658895597E+08,      /* I = 20 */
(PID.TID 0000.0001)                 7.714470531424019E+08,      /* I = 21 */
(PID.TID 0000.0001)                 7.706625470810328E+08,      /* I = 22 */
(PID.TID 0000.0001)                 7.697776024260553E+08,      /* I = 23 */
(PID.TID 0000.0001)                 7.687913844659867E+08,      /* I = 24 */
(PID.TID 0000.0001)                 7.677029712196296E+08,      /* I = 25 */
(PID.TID 0000.0001)                 7.665113646083255E+08,      /* I = 26 */
(PID.TID 0000.0001)                 7.652154604170089E+08,      /* I = 27 */
(PID.TID 0000.0001)                 7.638140926048064E+08,      /* I = 28 */
(PID.TID 0000.0001)                 7.623059927966076E+08,      /* I = 29 */
(PID.TID 0000.0001)                 7.606898330980235E+08       /* I = 30 */
(PID.TID 0000.0001)     ;
(PID.TID 0000.0001) rA  =  /* rA (1,:,1,:) ( units: m^2 ) */
(PID.TID 0000.0001)                 7.665113621396177E+08,      /* J =  1 */
(PID.TID 0000.0001)                 7.900134359449342E+08,      /* J =  2 */
(PID.TID 0000.0001)                 8.143679155417176E+08,      /* J =  3 */
(PID.TID 0000.0001)                 8.395900636155584E+08,      /* J =  4 */
(PID.TID 0000.0001)                 8.656947784023314E+08,      /* J =  5 */
(PID.TID 0000.0001)                 8.926966010402582E+08,      /* J =  6 */
(PID.TID 0000.0001)                 9.206097737377057E+08,      /* J =  7 */
(PID.TID 0000.0001)                 9.494482582794807E+08,      /* J =  8 */
(PID.TID 0000.0001)                 9.792257431806778E+08,      /* J =  9 */
(PID.TID 0000.0001)                 1.009955679131553E+09,      /* J = 10 */
(PID.TID 0000.0001)                 1.041651296044221E+09,      /* J = 11 */
(PID.TID 0000.0001)                 1.074325614369065E+09,      /* J = 12 */
(PID.TID 0000.0001)                 1.107991467925779E+09,      /* J = 13 */
(PID.TID 0000.0001)                 1.142661498173082E+09,      /* J = 14 */
(PID.TID 0000.0001)                 1.178348167164929E+09,      /* J = 15 */
(PID.TID 0000.0001)                 1.215063762235644E+09,      /* J = 16 */
(PID.TID 0000.0001)                 1.252820414073754E+09,      /* J = 17 */
(PID.TID 0000.0001)                 1.291630043617734E+09,      /* J = 18 */
(PID.TID 0000.0001)                 1.331504416619858E+09,      /* J = 19 */
(PID.TID 0000.0001)                 1.372455096362339E+09,      /* J = 20 */
(PID.TID 0000.0001)                 1.414493440828222E+09,      /* J = 21 */
(PID.TID 0000.0001)                 1.457630613639386E+09,      /* J = 22 */
(PID.TID 0000.0001)                 1.501877517761831E+09,      /* J = 23 */
(PID.TID 0000.0001)                 1.547244834049951E+09,      /* J = 24 */
(PID.TID 0000.0001)                 1.593742963439136E+09,      /* J = 25 */
(PID.TID 0000.0001)                 1.641382020566774E+09,      /* J = 26 */
(PID.TID 0000.0001)                 1.690171807481416E+09,      /* J = 27 */
(PID.TID 0000.0001)                 1.740121820832662E+09,      /* J = 28 */
(PID.TID 0000.0001)                 1.791241246411172E+09,      /* J = 29 */
(PID.TID 0000.0001)                 1.843539059771026E+09       /* J = 30 */
(PID.TID 0000.0001)     ;
(PID.TID 0000.0001) rAw =  /* rAw(:,1,:,1) ( units: m^2 ) */
(PID.TID 0000.0001)                 7.658765213139513E+08,      /* I =  1 */
(PID.TID 0000.0001)                 7.671201328724998E+08,      /* I =  2 */
(PID.TID 0000.0001)                 7.682600121490355E+08,      /* I =  3 */
(PID.TID 0000.0001)                 7.692972101823016E+08,      /* I =  4 */
(PID.TID 0000.0001)                 7.702326756407654E+08,      /* I =  5 */
(PID.TID 0000.0001)                 7.710673044850856E+08,      /* I =  6 */
(PID.TID 0000.0001)                 7.718018764844863E+08,      /* I =  7 */
(PID.TID 0000.0001)                 7.724370884091616E+08,      /* I =  8 */
(PID.TID 0000.0001)                 7.729735468223690E+08,      /* I =  9 */
(PID.TID 0000.0001)                 7.734117650170708E+08,      /* I = 10 */
(PID.TID 0000.0001)                 7.737521718456172E+08,      /* I = 11 */
(PID.TID 0000.0001)                 7.739951054308500E+08,      /* I = 12 */
(PID.TID 0000.0001)                 7.741408739107244E+08,      /* I = 13 */
(PID.TID 0000.0001)                 7.741880730050739E+08,      /* I = 14 */
(PID.TID 0000.0001)                 7.741408710636016E+08,      /* I = 15 */
(PID.TID 0000.0001)                 7.739951071427275E+08,      /* I = 16 */
(PID.TID 0000.0001)                 7.737521718095777E+08,      /* I = 17 */
(PID.TID 0000.0001)                 7.734117675938969E+08,      /* I = 18 */
(PID.TID 0000.0001)                 7.729735457051437E+08,      /* I = 19 */
(PID.TID 0000.0001)                 7.724370889497546E+08,      /* I = 20 */
(PID.TID 0000.0001)                 7.718018793856685E+08,      /* I = 21 */
(PID.TID 0000.0001)                 7.710673053320146E+08,      /* I = 22 */
(PID.TID 0000.0001)                 7.702326816053071E+08,      /* I = 23 */
(PID.TID 0000.0001)                 7.692972065242898E+08,      /* I = 24 */
(PID.TID 0000.0001)                 7.682600115363635E+08,      /* I = 25 */
(PID.TID 0000.0001)                 7.671201363863536E+08,      /* I = 26 */
(PID.TID 0000.0001)                 7.658765213499908E+08,      /* I = 27 */
(PID.TID 0000.0001)                 7.645280345158333E+08,      /* I = 28 */
(PID.TID 0000.0001)                 7.630734673343852E+08,      /* I = 29 */
(PID.TID 0000.0001)                 7.615115062009304E+08       /* I = 30 */
(PID.TID 0000.0001)     ;
(PID.TID 0000.0001) rAw =  /* rAw(1,:,1,:) ( units: m^2 ) */
(PID.TID 0000.0001)                 7.658765213139513E+08,      /* J =  1 */
(PID.TID 0000.0001)                 7.893768970448780E+08,      /* J =  2 */
(PID.TID 0000.0001)                 8.137283914516071E+08,      /* J =  3 */
(PID.TID 0000.0001)                 8.389460603348250E+08,      /* J =  4 */
(PID.TID 0000.0001)                 8.650445848102766E+08,      /* J =  5 */
(PID.TID 0000.0001)                 8.920382782103341E+08,      /* J =  6 */
(PID.TID 0000.0001)                 9.199411445401106E+08,      /* J =  7 */
(PID.TID 0000.0001)                 9.487668893433769E+08,      /* J =  8 */
(PID.TID 0000.0001)                 9.785289545527842E+08,      /* J =  9 */
(PID.TID 0000.0001)                 1.009240515336406E+09,      /* J = 10 */
(PID.TID 0000.0001)                 1.040914522930714E+09,      /* J = 11 */
(PID.TID 0000.0001)                 1.073563715488477E+09,      /* J = 12 */
(PID.TID 0000.0001)                 1.107200612276400E+09,      /* J = 13 */
(PID.TID 0000.0001)                 1.141837554111466E+09,      /* J = 14 */
(PID.TID 0000.0001)                 1.177486672294872E+09,      /* J = 15 */
(PID.TID 0000.0001)                 1.214159933192917E+09,      /* J = 16 */
(PID.TID 0000.0001)                 1.251869095602249E+09,      /* J = 17 */
(PID.TID 0000.0001)                 1.290625742284441E+09,      /* J = 18 */
(PID.TID 0000.0001)                 1.330441258846839E+09,      /* J = 19 */
(PID.TID 0000.0001)                 1.371326820624166E+09,      /* J = 20 */
(PID.TID 0000.0001)                 1.413293399742275E+09,      /* J = 21 */
(PID.TID 0000.0001)                 1.456351737475827E+09,      /* J = 22 */
(PID.TID 0000.0001)                 1.500512320083793E+09,      /* J = 23 */
(PID.TID 0000.0001)                 1.545785394792978E+09,      /* J = 24 */
(PID.TID 0000.0001)                 1.592180902277974E+09,      /* J = 25 */
(PID.TID 0000.0001)                 1.639708504465653E+09,      /* J = 26 */
(PID.TID 0000.0001)                 1.688377519501836E+09,      /* J = 27 */
(PID.TID 0000.0001)                 1.738196956421325E+09,      /* J = 28 */
(PID.TID 0000.0001)                 1.789175499722981E+09,      /* J = 29 */
(PID.TID 0000.0001)                 1.841321602441802E+09       /* J = 30 */
(PID.TID 0000.0001)     ;
(PID.TID 0000.0001) rAs =  /* rAs(:,1,:,1) ( units: m^2 ) */
(PID.TID 0000.0001)                 7.550751050606852E+08,      /* I =  1 */
(PID.TID 0000.0001)                 7.562658447772087E+08,      /* I =  2 */
(PID.TID 0000.0001)                 7.573533970032284E+08,      /* I =  3 */
(PID.TID 0000.0001)                 7.583387692957978E+08,      /* I =  4 */
(PID.TID 0000.0001)                 7.592229121974397E+08,      /* I =  5 */
(PID.TID 0000.0001)                 7.600066705467438E+08,      /* I =  6 */
(PID.TID 0000.0001)                 7.606907923080522E+08,      /* I =  7 */
(PID.TID 0000.0001)                 7.612759532224941E+08,      /* I =  8 */
(PID.TID 0000.0001)                 7.617627129118443E+08,      /* I =  9 */
(PID.TID 0000.0001)                 7.621515550445726E+08,      /* I = 10 */
(PID.TID 0000.0001)                 7.624428588466020E+08,      /* I = 11 */
(PID.TID 0000.0001)                 7.626369483673384E+08,      /* I = 12 */
(PID.TID 0000.0001)                 7.627333738515058E+08,      /* I = 13 */
(PID.TID 0000.0001)                 7.627333728604188E+08,      /* I = 14 */
(PID.TID 0000.0001)                 7.626369508901051E+08,      /* I = 15 */
(PID.TID 0000.0001)                 7.624428655319341E+08,      /* I = 16 */
(PID.TID 0000.0001)                 7.621515526659639E+08,      /* I = 17 */
(PID.TID 0000.0001)                 7.617627197953936E+08,      /* I = 18 */
(PID.TID 0000.0001)                 7.612759510961621E+08,      /* I = 19 */
(PID.TID 0000.0001)                 7.606907969030919E+08,      /* I = 20 */
(PID.TID 0000.0001)                 7.600066694295187E+08,      /* I = 21 */
(PID.TID 0000.0001)                 7.592229103594238E+08,      /* I = 22 */
(PID.TID 0000.0001)                 7.583387684488690E+08,      /* I = 23 */
(PID.TID 0000.0001)                 7.573533915792797E+08,      /* I = 24 */
(PID.TID 0000.0001)                 7.562658465071062E+08,      /* I = 25 */
(PID.TID 0000.0001)                 7.550751079979067E+08,      /* I = 26 */
(PID.TID 0000.0001)                 7.537800585200102E+08,      /* I = 27 */
(PID.TID 0000.0001)                 7.523795064624999E+08,      /* I = 28 */
(PID.TID 0000.0001)                 7.508721675027735E+08,      /* I = 29 */
(PID.TID 0000.0001)                 7.492566800675046E+08       /* I = 30 */
(PID.TID 0000.0001)     ;
(PID.TID 0000.0001) rAs =  /* rAs(1,:,1,:) ( units: m^2 ) */
(PID.TID 0000.0001)                 7.550751050606852E+08,      /* J =  1 */
(PID.TID 0000.0001)                 7.781568160584769E+08,      /* J =  2 */
(PID.TID 0000.0001)                 8.020831616625657E+08,      /* J =  3 */
(PID.TID 0000.0001)                 8.268695937660589E+08,      /* J =  4 */
(PID.TID 0000.0001)                 8.525311818286231E+08,      /* J =  5 */
(PID.TID 0000.0001)                 8.790826547724357E+08,      /* J =  6 */
(PID.TID 0000.0001)                 9.065383887828039E+08,      /* J =  7 */
(PID.TID 0000.0001)                 9.349124897125442E+08,      /* J =  8 */
(PID.TID 0000.0001)                 9.642187819277472E+08,      /* J =  9 */
(PID.TID 0000.0001)                 9.944708240750725E+08,      /* J = 10 */
(PID.TID 0000.0001)                 1.025681954725808E+09,      /* J = 11 */
(PID.TID 0000.0001)                 1.057865313008499E+09,      /* J = 12 */
(PID.TID 0000.0001)                 1.091033805921100E+09,      /* J = 13 */
(PID.TID 0000.0001)                 1.125200178247652E+09,      /* J = 14 */
(PID.TID 0000.0001)                 1.160376979600140E+09,      /* J = 15 */
(PID.TID 0000.0001)                 1.196576586510721E+09,      /* J = 16 */
(PID.TID 0000.0001)                 1.233811208089928E+09,      /* J = 17 */
(PID.TID 0000.0001)                 1.272092866313053E+09,      /* J = 18 */
(PID.TID 0000.0001)                 1.311433405822894E+09,      /* J = 19 */
(PID.TID 0000.0001)                 1.351844507714875E+09,      /* J = 20 */
(PID.TID 0000.0001)                 1.393337606051485E+09,      /* J = 21 */
(PID.TID 0000.0001)                 1.435923987908001E+09,      /* J = 22 */
(PID.TID 0000.0001)                 1.479614675036705E+09,      /* J = 23 */
(PID.TID 0000.0001)                 1.524420466465598E+09,      /* J = 24 */
(PID.TID 0000.0001)                 1.570351910729954E+09,      /* J = 25 */
(PID.TID 0000.0001)                 1.617419255741331E+09,      /* J = 26 */
(PID.TID 0000.0001)                 1.665632470339211E+09,      /* J = 27 */
(PID.TID 0000.0001)                 1.715001205152071E+09,      /* J = 28 */
(PID.TID 0000.0001)                 1.765534790867491E+09,      /* J = 29 */
(PID.TID 0000.0001)                 1.817242347954489E+09       /* J = 30 */
(PID.TID 0000.0001)     ;
(PID.TID 0000.0001) globalArea = /* Integrated horizontal Area (m^2) */
(PID.TID 0000.0001)                 3.580138611494435E+14
(PID.TID 0000.0001)     ;
(PID.TID 0000.0001) hasWetCSCorners = /* Domain contains CS corners (True/False) */
(PID.TID 0000.0001)                   F
(PID.TID 0000.0001)     ;
(PID.TID 0000.0001) // =======================================================
(PID.TID 0000.0001) // End of Model config. summary
(PID.TID 0000.0001) // =======================================================
(PID.TID 0000.0001) 
(PID.TID 0000.0001) == Packages configuration : Check & print summary ==
(PID.TID 0000.0001) 
(PID.TID 0000.0001) GGL90_CHECK: #define ALLOW_GGL90
(PID.TID 0000.0001) GGL90_CHECK: Some form of convection has been enabled
(PID.TID 0000.0001) GMREDI_CHECK: #define GMREDI
(PID.TID 0000.0001) GM_AdvForm =     /* if FALSE => use SkewFlux Form */
(PID.TID 0000.0001)                   T
(PID.TID 0000.0001)     ;
(PID.TID 0000.0001) GM_InMomAsStress = /* if TRUE => apply as Eddy Stress */
(PID.TID 0000.0001)                   F
(PID.TID 0000.0001)     ;
(PID.TID 0000.0001) GM_AdvSeparate = /* Calc Bolus & Euler Adv. separately */
(PID.TID 0000.0001)                   F
(PID.TID 0000.0001)     ;
(PID.TID 0000.0001) GM_ExtraDiag =   /* Tensor Extra Diag (line 1&2) non 0 */
(PID.TID 0000.0001)                   T
(PID.TID 0000.0001)     ;
(PID.TID 0000.0001) GM_isopycK =    /* Background Isopyc. Diffusivity [m^2/s] */
(PID.TID 0000.0001)                 1.000000000000000E+03
(PID.TID 0000.0001)     ;
(PID.TID 0000.0001) GM_skewflx*K =  /* Background GM_SkewFlx Diffusivity [m^2/s] */
(PID.TID 0000.0001)                 0.000000000000000E+00
(PID.TID 0000.0001)     ;
(PID.TID 0000.0001) GM_advec*K =    /* Backg. GM-Advec(=Bolus) Diffusivity [m^2/s]*/
(PID.TID 0000.0001)                 1.000000000000000E+03
(PID.TID 0000.0001)     ;
(PID.TID 0000.0001) GM_Kmin_horiz = /* Minimum Horizontal Diffusivity [m^2/s] */
(PID.TID 0000.0001)                 1.000000000000000E+02
(PID.TID 0000.0001)     ;
(PID.TID 0000.0001) GM_Visbeck_alpha = /* Visbeck alpha coeff. [-] */
(PID.TID 0000.0001)                 0.000000000000000E+00
(PID.TID 0000.0001)     ;
(PID.TID 0000.0001) GM_Small_Number =  /* epsilon used in slope calc */
(PID.TID 0000.0001)                 9.999999999999999E-21
(PID.TID 0000.0001)     ;
(PID.TID 0000.0001) GM_slopeSqCutoff = /* Slope^2 cut-off value */
(PID.TID 0000.0001)                 1.000000000000000E+08
(PID.TID 0000.0001)     ;
(PID.TID 0000.0001) GM_taper_scheme =  /* Type of Tapering/Clipping scheme */
(PID.TID 0000.0001)               'stableGmAdjTap                          '
(PID.TID 0000.0001)     ;
(PID.TID 0000.0001) GM_maxSlope =  /* Maximum Slope (Tapering/Clipping) */
(PID.TID 0000.0001)                 4.000000000000000E-03
(PID.TID 0000.0001)     ;
(PID.TID 0000.0001) GM_facTrL2dz = /* Minimum Trans.Layer Thick. (factor of dz) */
(PID.TID 0000.0001)                 1.000000000000000E+00
(PID.TID 0000.0001)     ;
(PID.TID 0000.0001) GM_facTrL2ML = /* Max.Trans.Layer Thick. (factor of MxL Depth)*/
(PID.TID 0000.0001)                 5.000000000000000E+00
(PID.TID 0000.0001)     ;
(PID.TID 0000.0001) GM_maxTransLay = /* Maximum Transition Layer Thickness [m] */
(PID.TID 0000.0001)                 5.000000000000000E+02
(PID.TID 0000.0001)     ;
(PID.TID 0000.0001) GM_UseBVP = /* if TRUE => use bvp a la Ferrari et al. (2010) */
(PID.TID 0000.0001)                   F
(PID.TID 0000.0001)     ;
(PID.TID 0000.0001) GM_BVP_ModeNumber = /* Vertical mode number for BVP wave speed */
(PID.TID 0000.0001)                       1
(PID.TID 0000.0001)     ;
(PID.TID 0000.0001) GM_BVP_cMin = /* Minimum wave speed for BVP [m/s] */
(PID.TID 0000.0001)                 1.000000000000000E-01
(PID.TID 0000.0001)     ;
(PID.TID 0000.0001) GM_useSubMeso = /* if TRUE => use Sub-Meso param. (B.Fox-Kemper) */
(PID.TID 0000.0001)                   F
(PID.TID 0000.0001)     ;
(PID.TID 0000.0001) subMeso_Ceff = /* efficiency coeff. of Mixed-Layer Eddies [-] */
(PID.TID 0000.0001)                 7.000000000000001E-02
(PID.TID 0000.0001)     ;
(PID.TID 0000.0001) subMeso_invTau = /* inverse of Sub-Meso mixing time-scale [/s] */
(PID.TID 0000.0001)                 2.000000000000000E-06
(PID.TID 0000.0001)     ;
(PID.TID 0000.0001) subMeso_LfMin = /* minimum length-scale "Lf" [m] */
(PID.TID 0000.0001)                 1.000000000000000E+03
(PID.TID 0000.0001)     ;
(PID.TID 0000.0001) subMeso_Lmax = /* maximum grid-scale length [m] */
(PID.TID 0000.0001)                 1.100000000000000E+05
(PID.TID 0000.0001)     ;
(PID.TID 0000.0001) EXF_CHECK: #define ALLOW_EXF
(PID.TID 0000.0001) SEAICE_CHECK: #define ALLOW_SEAICE
(PID.TID 0000.0001) SALT_PLUME_CHECK: #define SALT_PLUME
(PID.TID 0000.0001) CTRL_CHECK: #define ALLOW_CTRL
(PID.TID 0000.0001) COST_CHECK: #define ALLOW_COST
(PID.TID 0000.0001) SBO_CHECK: #define ALLOW_SBO
(PID.TID 0000.0001) etaday defined by gencost  28
(PID.TID 0000.0001) GAD_CHECK: #define ALLOW_GENERIC_ADVDIFF
(PID.TID 0000.0001) // =======================================================
(PID.TID 0000.0001) // Check Model config. (CONFIG_CHECK):
(PID.TID 0000.0001) // CONFIG_CHECK : Normal End
(PID.TID 0000.0001) // =======================================================
(PID.TID 0000.0001) 
(PID.TID 0000.0001)  nRecords = 403 ; filePrec =  64 ; fileIter =    192840
(PID.TID 0000.0001)     nDims =   2 , dims:
(PID.TID 0000.0001)    1:  90   1  90
(PID.TID 0000.0001)    2:1170   11170
(PID.TID 0000.0001)     nFlds =  11 , nFl3D =   8 , fields:
(PID.TID 0000.0001)  >Uvel    < >Vvel    < >Theta   < >Salt    < >GuNm1   < >GuNm2   < >GvNm1   < >GvNm2   < >EtaN    < >dEtaHdt < >EtaH    <
(PID.TID 0000.0001) missingVal=  1.00000000000000E+00 ; nTimRec =   1 , timeList:
(PID.TID 0000.0001)   6.942240000000E+08
(PID.TID 0000.0001) READ_MFLDS_3D_RL: read field: "Uvel    ", #   1 in fldList, rec=   1
(PID.TID 0000.0001) READ_MFLDS_3D_RL: read field: "Vvel    ", #   2 in fldList, rec=   2
(PID.TID 0000.0001) READ_MFLDS_3D_RL: read field: "Theta   ", #   3 in fldList, rec=   3
(PID.TID 0000.0001) READ_MFLDS_3D_RL: read field: "Salt    ", #   4 in fldList, rec=   4
(PID.TID 0000.0001) READ_MFLDS_3D_RL: read field: "GuNm1   ", #   5 in fldList, rec=   5
(PID.TID 0000.0001) READ_MFLDS_3D_RL: read field: "GuNm2   ", #   6 in fldList, rec=   6
(PID.TID 0000.0001) READ_MFLDS_3D_RL: read field: "GvNm1   ", #   7 in fldList, rec=   7
(PID.TID 0000.0001) READ_MFLDS_3D_RL: read field: "GvNm2   ", #   8 in fldList, rec=   8
(PID.TID 0000.0001) READ_MFLDS_3D_RL: read field: "EtaN    ", #   9 in fldList, rec= 401
(PID.TID 0000.0001) READ_MFLDS_3D_RL: read field: "dEtaHdt ", #  10 in fldList, rec= 402
(PID.TID 0000.0001) READ_MFLDS_3D_RL: read field: "EtaH    ", #  11 in fldList, rec= 403
(PID.TID 0000.0001) READ_MFLDS_CHECK: - normal end ; reset MFLDS file-name: pickup.0000000001
(PID.TID 0000.0001)  nRecords =   6 ; filePrec =  64 ; fileIter =    192840
(PID.TID 0000.0001)     nDims =   2 , dims:
(PID.TID 0000.0001)    1:  90   1  90
(PID.TID 0000.0001)    2:1170   11170
(PID.TID 0000.0001)     nFlds =   6 , nFl3D =   0 , fields:
(PID.TID 0000.0001)  >siTICE  < >siAREA  < >siHEFF  < >siHSNOW < >siUICE  < >siVICE  <
(PID.TID 0000.0001) missingVal=  1.00000000000000E+00 ; nTimRec =   1 , timeList:
(PID.TID 0000.0001)   6.942240000000E+08
(PID.TID 0000.0001) READ_MFLDS_LEV_RL: read field: "siTICE  ", #   1 in fldList, rec=   1
(PID.TID 0000.0001) READ_MFLDS_3D_RL: read field: "siAREA  ", #   2 in fldList, rec=   2
(PID.TID 0000.0001) READ_MFLDS_3D_RL: read field: "siHEFF  ", #   3 in fldList, rec=   3
(PID.TID 0000.0001) READ_MFLDS_3D_RL: read field: "siHSNOW ", #   4 in fldList, rec=   4
(PID.TID 0000.0001) READ_MFLDS_3D_RL: read field: "siUICE  ", #   5 in fldList, rec=   5
(PID.TID 0000.0001) READ_MFLDS_3D_RL: read field: "siVICE  ", #   6 in fldList, rec=   6
(PID.TID 0000.0001) READ_MFLDS_CHECK: - normal end ; reset MFLDS file-name: pickup_seaice.0000000001
(PID.TID 0000.0001)  ploadbar=  0.00000000000000E+00
(PID.TID 0000.0001) // =======================================================
(PID.TID 0000.0001) // Model current state
(PID.TID 0000.0001) // =======================================================
(PID.TID 0000.0001) 
(PID.TID 0000.0001) %SBO sbo_mass                     =   1.3737561289741E+21
(PID.TID 0000.0001) %SBO sbo_mass_fw                  =   4.3313603608215E+16
(PID.TID 0000.0001) %SBO sbo_zoamc                    =   1.1712417272784E+25
(PID.TID 0000.0001) %SBO sbo_zoamp                    =   2.9265929806492E+30
(PID.TID 0000.0001) whio : create lev 3 rec 221
(PID.TID 0000.0001) whio : create lev 2 rec 221
(PID.TID 0000.0001) SOLVE_FOR_PRESSURE: putPmEinXvector =    F
 cg2d: Sum(rhs),rhsMax =  -6.36393926056032E+01  2.27123055630667E+00
(PID.TID 0000.0001)  ploadbar=  1.01009886745450E+05
 cg2d: Sum(rhs),rhsMax =  -6.34974928928518E+01  2.27499183953291E+00
(PID.TID 0000.0001)  ploadbar=  1.01010710563278E+05
 cg2d: Sum(rhs),rhsMax =  -6.36224350641548E+01  2.26919831372456E+00
(PID.TID 0000.0001)  ploadbar=  1.01011534381107E+05
 cg2d: Sum(rhs),rhsMax =  -6.39407731700843E+01  2.25670151863129E+00
(PID.TID 0000.0001)  ploadbar=  1.01012424565966E+05
 cg2d: Sum(rhs),rhsMax =  -6.44770008100800E+01  2.23680164344716E+00
(PID.TID 0000.0001)  ploadbar=  1.01013314750826E+05
 cg2d: Sum(rhs),rhsMax =  -6.52215647802125E+01  2.21018610161095E+00
(PID.TID 0000.0001)  ploadbar=  1.01014204935685E+05
 cg2d: Sum(rhs),rhsMax =  -6.61118861869618E+01  2.17938329963774E+00
(PID.TID 0000.0001)  ploadbar=  1.01015095120545E+05
 cg2d: Sum(rhs),rhsMax =  -6.70571105583680E+01  2.14765907482293E+00
(PID.TID 0000.0001)  ploadbar=  1.01015985305405E+05
 cg2d: Sum(rhs),rhsMax =  -6.79572085636776E+01  2.11824054547057E+00
(PID.TID 0000.0001)  ploadbar=  1.01016875490264E+05
 cg2d: Sum(rhs),rhsMax =  -6.87474427074777E+01  2.09288028731919E+00
(PID.TID 0000.0001)  ploadbar=  1.01017559921981E+05
 cg2d: Sum(rhs),rhsMax =  -6.94178717866774E+01  2.07160028093694E+00
(PID.TID 0000.0001)  ploadbar=  1.01018244353699E+05
 cg2d: Sum(rhs),rhsMax =  -6.99911321894133E+01  2.05350175568993E+00
(PID.TID 0000.0001)  ploadbar=  1.01018928785416E+05
 cg2d: Sum(rhs),rhsMax =  -7.05708948773449E+01  2.03543335407803E+00
(PID.TID 0000.0001)  ploadbar=  1.01019613217133E+05
 cg2d: Sum(rhs),rhsMax =  -7.12132777272496E+01  2.01580724897836E+00
(PID.TID 0000.0001)  ploadbar=  1.01020297648851E+05
 cg2d: Sum(rhs),rhsMax =  -7.15902679714712E+01  2.00385147784159E+00
(PID.TID 0000.0001)  ploadbar=  1.01020982080568E+05
 cg2d: Sum(rhs),rhsMax =  -7.17232274352614E+01  1.99889092116305E+00
(PID.TID 0000.0001)  ploadbar=  1.01020515482134E+05
 cg2d: Sum(rhs),rhsMax =  -7.18256150104662E+01  1.99488410038789E+00
(PID.TID 0000.0001)  ploadbar=  1.01020048883700E+05
 cg2d: Sum(rhs),rhsMax =  -7.21113634349585E+01  1.98591092826136E+00
(PID.TID 0000.0001)  ploadbar=  1.01019582285266E+05
 cg2d: Sum(rhs),rhsMax =  -7.25634808453431E+01  1.97255424045361E+00
(PID.TID 0000.0001)  ploadbar=  1.01019115686832E+05
 cg2d: Sum(rhs),rhsMax =  -7.31267204033967E+01  1.95645747964646E+00
(PID.TID 0000.0001)  ploadbar=  1.01018649088397E+05
 cg2d: Sum(rhs),rhsMax =  -7.37244615919846E+01  1.93976066962699E+00
(PID.TID 0000.0001)  ploadbar=  1.01018182489963E+05
 cg2d: Sum(rhs),rhsMax =  -7.42148321421947E+01  1.92612260062240E+00
(PID.TID 0000.0001)  ploadbar=  1.01017897262275E+05
 cg2d: Sum(rhs),rhsMax =  -7.48450428787242E+01  1.90908727124230E+00
(PID.TID 0000.0001)  ploadbar=  1.01017612034587E+05
 cg2d: Sum(rhs),rhsMax =  -7.53652348502156E+01  1.89509307325767E+00
(PID.TID 0000.0001)  ploadbar=  1.01017326806899E+05
 cg2d: Sum(rhs),rhsMax =  -7.57972668113386E+01  1.88347614743899E+00
(PID.TID 0000.0001)  ploadbar=  1.01017041579210E+05
 cg2d: Sum(rhs),rhsMax =  -7.62665770484348E+01  1.87108735041755E+00
(PID.TID 0000.0001)  ploadbar=  1.01016756351522E+05
 cg2d: Sum(rhs),rhsMax =  -7.68323130802406E+01  1.85653048077833E+00
(PID.TID 0000.0001)  ploadbar=  1.01016471123834E+05
 cg2d: Sum(rhs),rhsMax =  -7.74927314830164E+01  1.83998151605205E+00
(PID.TID 0000.0001)  ploadbar=  1.01015226684405E+05
 cg2d: Sum(rhs),rhsMax =  -7.82297741768279E+01  1.82195476035703E+00
(PID.TID 0000.0001)  ploadbar=  1.01013982244976E+05
 cg2d: Sum(rhs),rhsMax =  -7.90202606225276E+01  1.80306896658458E+00
(PID.TID 0000.0001)  ploadbar=  1.01012737805547E+05
 cg2d: Sum(rhs),rhsMax =  -7.98369294045902E+01  1.78399504595927E+00
(PID.TID 0000.0001)  ploadbar=  1.01011493366117E+05
 cg2d: Sum(rhs),rhsMax =  -8.06429399271050E+01  1.76556481523025E+00
(PID.TID 0000.0001)  ploadbar=  1.01010248926688E+05
 cg2d: Sum(rhs),rhsMax =  -8.14141818127478E+01  1.74827104063543E+00
(PID.TID 0000.0001)  ploadbar=  1.01009004487259E+05
 cg2d: Sum(rhs),rhsMax =  -8.21238751229449E+01  1.73257465725293E+00
(PID.TID 0000.0001)  ploadbar=  1.01008451653189E+05
 cg2d: Sum(rhs),rhsMax =  -8.22952548520756E+01  1.72834611600554E+00
(PID.TID 0000.0001)  ploadbar=  1.01007898819118E+05
 cg2d: Sum(rhs),rhsMax =  -8.22526267928046E+01  1.72858318543653E+00
(PID.TID 0000.0001)  ploadbar=  1.01007345985047E+05
 cg2d: Sum(rhs),rhsMax =  -8.22034663329936E+01  1.72891772497636E+00
(PID.TID 0000.0001)  ploadbar=  1.01006793150977E+05
 cg2d: Sum(rhs),rhsMax =  -8.21414187430573E+01  1.72948062875848E+00
(PID.TID 0000.0001)  ploadbar=  1.01006240316906E+05
 cg2d: Sum(rhs),rhsMax =  -8.20591400416295E+01  1.73042372995839E+00
(PID.TID 0000.0001)  ploadbar=  1.01005687482836E+05
 cg2d: Sum(rhs),rhsMax =  -8.19193627420313E+01  1.73263806164322E+00
(PID.TID 0000.0001)  ploadbar=  1.01003949274458E+05
 cg2d: Sum(rhs),rhsMax =  -8.17485243402987E+01  1.73556729893335E+00
(PID.TID 0000.0001)  ploadbar=  1.01002211066080E+05
 cg2d: Sum(rhs),rhsMax =  -8.15571413925773E+01  1.73899199464400E+00
(PID.TID 0000.0001)  ploadbar=  1.01000472857703E+05
 cg2d: Sum(rhs),rhsMax =  -8.13686854789514E+01  1.74241050809366E+00
(PID.TID 0000.0001)  ploadbar=  1.00998734649325E+05
 cg2d: Sum(rhs),rhsMax =  -8.12140926781040E+01  1.74515819877302E+00
(PID.TID 0000.0001)  ploadbar=  1.00996996440947E+05
 cg2d: Sum(rhs),rhsMax =  -8.11302719223092E+01  1.74642504836417E+00
(PID.TID 0000.0001)  ploadbar=  1.00995258232570E+05
 cg2d: Sum(rhs),rhsMax =  -8.11112156207111E+01  1.74631105569912E+00
(PID.TID 0000.0001)  ploadbar=  1.00995220295049E+05
 cg2d: Sum(rhs),rhsMax =  -8.11446032971435E+01  1.74507037844836E+00
(PID.TID 0000.0001)  ploadbar=  1.00995182357528E+05
 cg2d: Sum(rhs),rhsMax =  -8.12137294200690E+01  1.74306326484785E+00
(PID.TID 0000.0001)  ploadbar=  1.00995144420007E+05
 cg2d: Sum(rhs),rhsMax =  -8.13045929822888E+01  1.74059375158652E+00
(PID.TID 0000.0001)  ploadbar=  1.00995106482486E+05
 cg2d: Sum(rhs),rhsMax =  -8.14145529884223E+01  1.73772242361251E+00
(PID.TID 0000.0001)  ploadbar=  1.00995068544965E+05
 cg2d: Sum(rhs),rhsMax =  -8.15568076118787E+01  1.73417456003588E+00
(PID.TID 0000.0001)  ploadbar=  1.00995030607444E+05
 cg2d: Sum(rhs),rhsMax =  -8.16947365900211E+01  1.73074432548340E+00
(PID.TID 0000.0001)  ploadbar=  1.00995217602907E+05
 cg2d: Sum(rhs),rhsMax =  -8.18125977349444E+01  1.72775187944795E+00
(PID.TID 0000.0001)  ploadbar=  1.00995404598371E+05
 cg2d: Sum(rhs),rhsMax =  -8.18984589399013E+01  1.72544040928617E+00
(PID.TID 0000.0001)  ploadbar=  1.00995591593835E+05
 cg2d: Sum(rhs),rhsMax =  -8.19691454614966E+01  1.72345006214606E+00
(PID.TID 0000.0001)  ploadbar=  1.00995778589299E+05
 cg2d: Sum(rhs),rhsMax =  -8.20385963970828E+01  1.72148759245444E+00
(PID.TID 0000.0001)  ploadbar=  1.00995965584763E+05
 cg2d: Sum(rhs),rhsMax =  -8.21171639862414E+01  1.71933623745255E+00
(PID.TID 0000.0001)  ploadbar=  1.00996152580227E+05
 cg2d: Sum(rhs),rhsMax =  -8.21717891422775E+01  1.71765748539376E+00
(PID.TID 0000.0001)  ploadbar=  1.00996796836576E+05
 cg2d: Sum(rhs),rhsMax =  -8.19472616662340E+01  1.72178823224500E+00
(PID.TID 0000.0001)  ploadbar=  1.00997441092926E+05
 cg2d: Sum(rhs),rhsMax =  -8.17221213592852E+01  1.72591163763090E+00
(PID.TID 0000.0001)  ploadbar=  1.00998085349276E+05
 cg2d: Sum(rhs),rhsMax =  -8.15493374168123E+01  1.72890366127539E+00
(PID.TID 0000.0001)  ploadbar=  1.00998729605625E+05
 cg2d: Sum(rhs),rhsMax =  -8.14313134862573E+01  1.73070083449719E+00
(PID.TID 0000.0001)  ploadbar=  1.00999373861975E+05
 cg2d: Sum(rhs),rhsMax =  -8.13576800946229E+01  1.73151041363093E+00
(PID.TID 0000.0001)  ploadbar=  1.01000018118325E+05
 cg2d: Sum(rhs),rhsMax =  -8.12601308584369E+01  1.73285992999918E+00
(PID.TID 0000.0001)  ploadbar=  1.01000113562829E+05
 cg2d: Sum(rhs),rhsMax =  -8.11738089914267E+01  1.73399575802167E+00
(PID.TID 0000.0001)  ploadbar=  1.01000209007332E+05
 cg2d: Sum(rhs),rhsMax =  -8.10897704395952E+01  1.73510534645623E+00
(PID.TID 0000.0001)  ploadbar=  1.01000304451836E+05
 cg2d: Sum(rhs),rhsMax =  -8.10031592202168E+01  1.73628962553423E+00
(PID.TID 0000.0001)  ploadbar=  1.01000399896340E+05
 cg2d: Sum(rhs),rhsMax =  -8.09130532829924E+01  1.73756891583302E+00
(PID.TID 0000.0001)  ploadbar=  1.01000495340844E+05
 cg2d: Sum(rhs),rhsMax =  -8.08244133104305E+01  1.73882719190011E+00
(PID.TID 0000.0001)  ploadbar=  1.01000590785348E+05
 cg2d: Sum(rhs),rhsMax =  -8.07329302018930E+01  1.74018342840800E+00
(PID.TID 0000.0001)  ploadbar=  1.01001617682849E+05
 cg2d: Sum(rhs),rhsMax =  -8.04332863324293E+01  1.74607954303419E+00
(PID.TID 0000.0001)  ploadbar=  1.01002644580350E+05
 cg2d: Sum(rhs),rhsMax =  -8.00977167529915E+01  1.75283335215778E+00
(PID.TID 0000.0001)  ploadbar=  1.01003671477850E+05
 cg2d: Sum(rhs),rhsMax =  -7.97767852035776E+01  1.75934732705223E+00
(PID.TID 0000.0001)  ploadbar=  1.01004698375351E+05
 cg2d: Sum(rhs),rhsMax =  -7.94727281495499E+01  1.76556047901364E+00
(PID.TID 0000.0001)  ploadbar=  1.01005725272852E+05
 cg2d: Sum(rhs),rhsMax =  -7.91876317491947E+01  1.77141686687878E+00
(PID.TID 0000.0001)  ploadbar=  1.01006752170353E+05
 cg2d: Sum(rhs),rhsMax =  -7.89669909680998E+01  1.77589755058258E+00
(PID.TID 0000.0001)  ploadbar=  1.01007648246474E+05
 cg2d: Sum(rhs),rhsMax =  -7.89900868802589E+01  1.77492975500504E+00
(PID.TID 0000.0001)  ploadbar=  1.01008544322596E+05
 cg2d: Sum(rhs),rhsMax =  -7.90514168297697E+01  1.77312507086566E+00
(PID.TID 0000.0001)  ploadbar=  1.01009440398718E+05
 cg2d: Sum(rhs),rhsMax =  -7.91443488292629E+01  1.77063421812838E+00
(PID.TID 0000.0001)  ploadbar=  1.01010336474839E+05
 cg2d: Sum(rhs),rhsMax =  -7.92717679365317E+01  1.76739710336426E+00
(PID.TID 0000.0001)  ploadbar=  1.01011232550961E+05
 cg2d: Sum(rhs),rhsMax =  -7.91538932803034E+01  1.76965448151161E+00
(PID.TID 0000.0001)  ploadbar=  1.01012128627083E+05
 cg2d: Sum(rhs),rhsMax =  -7.88605349472364E+01  1.77579955260882E+00
(PID.TID 0000.0001)  ploadbar=  1.01012584927308E+05
 cg2d: Sum(rhs),rhsMax =  -7.85841068982179E+01  1.78153593707741E+00
(PID.TID 0000.0001)  ploadbar=  1.01013041227533E+05
 cg2d: Sum(rhs),rhsMax =  -7.83608333081183E+01  1.78602690028158E+00
(PID.TID 0000.0001)  ploadbar=  1.01013497527758E+05
 cg2d: Sum(rhs),rhsMax =  -7.81927549936734E+01  1.78920862244858E+00
(PID.TID 0000.0001)  ploadbar=  1.01013953827983E+05
 cg2d: Sum(rhs),rhsMax =  -7.80820117862401E+01  1.79101977156002E+00
(PID.TID 0000.0001)  ploadbar=  1.01014410128208E+05
 cg2d: Sum(rhs),rhsMax =  -7.75319903658854E+01  1.80292021260799E+00
(PID.TID 0000.0001)  ploadbar=  1.01014866428433E+05
 cg2d: Sum(rhs),rhsMax =  -7.64211313833332E+01  1.82835746099228E+00
(PID.TID 0000.0001)  ploadbar=  1.01015381708840E+05
 cg2d: Sum(rhs),rhsMax =  -7.53907239688693E+01  1.85260713413036E+00
(PID.TID 0000.0001)  ploadbar=  1.01015896989247E+05
 cg2d: Sum(rhs),rhsMax =  -7.44211089598058E+01  1.87603498700341E+00
(PID.TID 0000.0001)  ploadbar=  1.01016412269654E+05
 cg2d: Sum(rhs),rhsMax =  -7.34781117903242E+01  1.89943407414954E+00
(PID.TID 0000.0001)  ploadbar=  1.01016927550062E+05
 cg2d: Sum(rhs),rhsMax =  -7.25148626265434E+01  1.92402127102365E+00
(PID.TID 0000.0001)  ploadbar=  1.01017442830469E+05
 cg2d: Sum(rhs),rhsMax =  -7.15378361239817E+01  1.94968362855333E+00
(PID.TID 0000.0001)  ploadbar=  1.01017958110876E+05
 cg2d: Sum(rhs),rhsMax =  -7.05858983336169E+01  1.97536860183230E+00
(PID.TID 0000.0001)  ploadbar=  1.01017973438592E+05
 cg2d: Sum(rhs),rhsMax =  -6.96749418878364E+01  2.00058794016569E+00
(PID.TID 0000.0001)  ploadbar=  1.01017988766307E+05
 cg2d: Sum(rhs),rhsMax =  -6.88251799947985E+01  2.02468086212416E+00
(PID.TID 0000.0001)  ploadbar=  1.01018004094023E+05
 cg2d: Sum(rhs),rhsMax =  -6.80604629036174E+01  2.04681992850111E+00
(PID.TID 0000.0001)  ploadbar=  1.01018019421738E+05
 cg2d: Sum(rhs),rhsMax =  -6.74176381752198E+01  2.06572410269107E+00
(PID.TID 0000.0001)  ploadbar=  1.01018034749454E+05
 cg2d: Sum(rhs),rhsMax =  -6.69219358461061E+01  2.08040837084046E+00
(PID.TID 0000.0001)  ploadbar=  1.01018050077169E+05
 cg2d: Sum(rhs),rhsMax =  -6.66142599926486E+01  2.08942978243440E+00
(PID.TID 0000.0001)  ploadbar=  1.01018983920961E+05
 cg2d: Sum(rhs),rhsMax =  -6.65171669090785E+01  2.09191640151103E+00
(PID.TID 0000.0001)  ploadbar=  1.01019917764753E+05
 cg2d: Sum(rhs),rhsMax =  -6.66311050492738E+01  2.08779883352979E+00
(PID.TID 0000.0001)  ploadbar=  1.01020851608545E+05
 cg2d: Sum(rhs),rhsMax =  -6.69332541534810E+01  2.07785694827967E+00
(PID.TID 0000.0001)  ploadbar=  1.01021785452337E+05
 cg2d: Sum(rhs),rhsMax =  -6.73748881435806E+01  2.06374415458793E+00
(PID.TID 0000.0001)  ploadbar=  1.01022719296128E+05
 cg2d: Sum(rhs),rhsMax =  -6.78955757306886E+01  2.04745132032382E+00
(PID.TID 0000.0001)  ploadbar=  1.01023653139920E+05
 cg2d: Sum(rhs),rhsMax =  -6.84608151590542E+01  2.03006155145985E+00
(PID.TID 0000.0001)  ploadbar=  1.01025076405127E+05
 cg2d: Sum(rhs),rhsMax =  -6.90827037563843E+01  2.01127306956395E+00
(PID.TID 0000.0001)  ploadbar=  1.01026499670335E+05
 cg2d: Sum(rhs),rhsMax =  -6.97863587900286E+01  1.99044715686494E+00
(PID.TID 0000.0001)  ploadbar=  1.01027922935542E+05
 cg2d: Sum(rhs),rhsMax =  -7.05824813425524E+01  1.96741867807909E+00
(PID.TID 0000.0001)  ploadbar=  1.01029346200750E+05
 cg2d: Sum(rhs),rhsMax =  -7.14570080309709E+01  1.94273142159871E+00
(PID.TID 0000.0001)  ploadbar=  1.01030769465957E+05
 cg2d: Sum(rhs),rhsMax =  -7.23640991126083E+01  1.91773671786166E+00
(PID.TID 0000.0001)  ploadbar=  1.01032192731164E+05
 cg2d: Sum(rhs),rhsMax =  -7.32587204557321E+01  1.89371220364971E+00
(PID.TID 0000.0001)  ploadbar=  1.01033636514029E+05
 cg2d: Sum(rhs),rhsMax =  -7.41483018292843E+01  1.87041954314937E+00
(PID.TID 0000.0001)  ploadbar=  1.01035080296894E+05
 cg2d: Sum(rhs),rhsMax =  -7.50439273948991E+01  1.84755148402034E+00
(PID.TID 0000.0001)  ploadbar=  1.01036524079758E+05
 cg2d: Sum(rhs),rhsMax =  -7.59524387353141E+01  1.82493346700864E+00
(PID.TID 0000.0001)  ploadbar=  1.01037967862623E+05
 cg2d: Sum(rhs),rhsMax =  -7.68731965416509E+01  1.80258152126725E+00
(PID.TID 0000.0001)  ploadbar=  1.01039411645488E+05
 cg2d: Sum(rhs),rhsMax =  -7.78147448717434E+01  1.78028882602993E+00
(PID.TID 0000.0001)  ploadbar=  1.01040855428352E+05
 cg2d: Sum(rhs),rhsMax =  -7.87796755875498E+01  1.75797705325269E+00
(PID.TID 0000.0001)  ploadbar=  1.01041991999889E+05
 cg2d: Sum(rhs),rhsMax =  -7.97784646551077E+01  1.73543497479410E+00
(PID.TID 0000.0001)  ploadbar=  1.01043128571425E+05
 cg2d: Sum(rhs),rhsMax =  -8.08137473176274E+01  1.71264135135530E+00
(PID.TID 0000.0001)  ploadbar=  1.01044265142961E+05
 cg2d: Sum(rhs),rhsMax =  -8.18809663816358E+01  1.68972893668790E+00
(PID.TID 0000.0001)  ploadbar=  1.01045401714497E+05
 cg2d: Sum(rhs),rhsMax =  -8.28409315229906E+01  1.66952726122296E+00
(PID.TID 0000.0001)  ploadbar=  1.01046538286033E+05
 cg2d: Sum(rhs),rhsMax =  -8.29070503379676E+01  1.66753496782591E+00
(PID.TID 0000.0001)  ploadbar=  1.01047674857569E+05
 cg2d: Sum(rhs),rhsMax =  -8.29522995116478E+01  1.66597855268447E+00
(PID.TID 0000.0001)  ploadbar=  1.01048912970943E+05
 cg2d: Sum(rhs),rhsMax =  -8.29699253210593E+01  1.66498160834961E+00
(PID.TID 0000.0001)  ploadbar=  1.01050151084317E+05
 cg2d: Sum(rhs),rhsMax =  -8.29431703906468E+01  1.66487696254384E+00
(PID.TID 0000.0001)  ploadbar=  1.01051389197691E+05
 cg2d: Sum(rhs),rhsMax =  -8.28631132939506E+01  1.66584110501971E+00
(PID.TID 0000.0001)  ploadbar=  1.01052627311065E+05
 cg2d: Sum(rhs),rhsMax =  -8.27327931219001E+01  1.66781577962028E+00
(PID.TID 0000.0001)  ploadbar=  1.01053865424439E+05
 cg2d: Sum(rhs),rhsMax =  -8.25604446612497E+01  1.67064085870377E+00
(PID.TID 0000.0001)  ploadbar=  1.01055103537813E+05
 cg2d: Sum(rhs),rhsMax =  -8.23585200027453E+01  1.67405339940999E+00
(PID.TID 0000.0001)  ploadbar=  1.01056222874109E+05
 cg2d: Sum(rhs),rhsMax =  -8.21205178321372E+01  1.67819096573667E+00
(PID.TID 0000.0001)  ploadbar=  1.01057342210404E+05
 cg2d: Sum(rhs),rhsMax =  -8.18553124535417E+01  1.68287835702370E+00
(PID.TID 0000.0001)  ploadbar=  1.01058461546698E+05
 cg2d: Sum(rhs),rhsMax =  -8.15757876338966E+01  1.68785868891326E+00
(PID.TID 0000.0001)  ploadbar=  1.01059580882993E+05
 cg2d: Sum(rhs),rhsMax =  -8.12877522240930E+01  1.69301643294318E+00
(PID.TID 0000.0001)  ploadbar=  1.01060700219288E+05
 cg2d: Sum(rhs),rhsMax =  -8.09917378077862E+01  1.69834020116488E+00
(PID.TID 0000.0001)  ploadbar=  1.01061819555583E+05
 cg2d: Sum(rhs),rhsMax =  -8.07583394956867E+01  1.70241701032829E+00
(PID.TID 0000.0001)  ploadbar=  1.01061930850003E+05
 cg2d: Sum(rhs),rhsMax =  -8.04645236712009E+01  1.70783026108673E+00
(PID.TID 0000.0001)  ploadbar=  1.01062042144422E+05
 cg2d: Sum(rhs),rhsMax =  -8.01330097904436E+01  1.71411969948543E+00
(PID.TID 0000.0001)  ploadbar=  1.01062153438841E+05
 cg2d: Sum(rhs),rhsMax =  -7.97739760197214E+01  1.72108616779889E+00
(PID.TID 0000.0001)  ploadbar=  1.01062264733261E+05
 cg2d: Sum(rhs),rhsMax =  -7.94069409795717E+01  1.72831605723600E+00
(PID.TID 0000.0001)  ploadbar=  1.01062376027680E+05
 cg2d: Sum(rhs),rhsMax =  -7.90548201706378E+01  1.73530235033912E+00
(PID.TID 0000.0001)  ploadbar=  1.01062487322099E+05
 cg2d: Sum(rhs),rhsMax =  -7.86968878221142E+01  1.74247538172308E+00
(PID.TID 0000.0001)  ploadbar=  1.01062159977140E+05
 cg2d: Sum(rhs),rhsMax =  -7.83690952248009E+01  1.74903466576883E+00
(PID.TID 0000.0001)  ploadbar=  1.01061832632180E+05
 cg2d: Sum(rhs),rhsMax =  -7.80792778568327E+01  1.75479067157723E+00
(PID.TID 0000.0001)  ploadbar=  1.01061505287220E+05
 cg2d: Sum(rhs),rhsMax =  -7.78024368729054E+01  1.76028821853870E+00
(PID.TID 0000.0001)  ploadbar=  1.01061177942260E+05
 cg2d: Sum(rhs),rhsMax =  -7.75453753527299E+01  1.76536361296304E+00
(PID.TID 0000.0001)  ploadbar=  1.01060850597300E+05
 cg2d: Sum(rhs),rhsMax =  -7.68714215562244E+01  1.78006172711260E+00
(PID.TID 0000.0001)  ploadbar=  1.01060523252340E+05
 cg2d: Sum(rhs),rhsMax =  -7.59297170778150E+01  1.80137567428447E+00
(PID.TID 0000.0001)  ploadbar=  1.01060507317938E+05
 cg2d: Sum(rhs),rhsMax =  -7.49161764107940E+01  1.82498993252707E+00
(PID.TID 0000.0001)  ploadbar=  1.01060491383536E+05
 cg2d: Sum(rhs),rhsMax =  -7.38636320864449E+01  1.85024255285856E+00
(PID.TID 0000.0001)  ploadbar=  1.01060475449135E+05
 cg2d: Sum(rhs),rhsMax =  -7.28017067935595E+01  1.87647875528250E+00
(PID.TID 0000.0001)  ploadbar=  1.01060459514733E+05
 cg2d: Sum(rhs),rhsMax =  -7.17261201630598E+01  1.90386363784989E+00
(PID.TID 0000.0001)  ploadbar=  1.01060443580331E+05
 cg2d: Sum(rhs),rhsMax =  -7.06518970272813E+01  1.93205256072677E+00
(PID.TID 0000.0001)  ploadbar=  1.01060427645930E+05
 cg2d: Sum(rhs),rhsMax =  -6.95701545515748E+01  1.96130769542742E+00
(PID.TID 0000.0001)  ploadbar=  1.01060225530149E+05
 cg2d: Sum(rhs),rhsMax =  -6.84704735254300E+01  1.99199013216502E+00
(PID.TID 0000.0001)  ploadbar=  1.01060023414368E+05
 cg2d: Sum(rhs),rhsMax =  -6.73648820309280E+01  2.02383170588073E+00
(PID.TID 0000.0001)  ploadbar=  1.01059821298588E+05
 cg2d: Sum(rhs),rhsMax =  -6.62704313934548E+01  2.05637190028414E+00
(PID.TID 0000.0001)  ploadbar=  1.01059619182807E+05
 cg2d: Sum(rhs),rhsMax =  -6.52338578420601E+01  2.08812967225707E+00
(PID.TID 0000.0001)  ploadbar=  1.01059417067026E+05
 cg2d: Sum(rhs),rhsMax =  -6.42981241948340E+01  2.11755316332433E+00
(PID.TID 0000.0001)  ploadbar=  1.01059214951246E+05
 cg2d: Sum(rhs),rhsMax =  -6.34767383187242E+01  2.14405100088645E+00
(PID.TID 0000.0001)  ploadbar=  1.01059225595712E+05
 cg2d: Sum(rhs),rhsMax =  -6.27770150451047E+01  2.16710476532055E+00
(PID.TID 0000.0001)  ploadbar=  1.01059236240179E+05
 cg2d: Sum(rhs),rhsMax =  -6.21909280145257E+01  2.18673931395890E+00
(PID.TID 0000.0001)  ploadbar=  1.01059246884646E+05
 cg2d: Sum(rhs),rhsMax =  -6.16929486705434E+01  2.20365868238496E+00
(PID.TID 0000.0001)  ploadbar=  1.01059257529112E+05
 cg2d: Sum(rhs),rhsMax =  -6.12484349168530E+01  2.21896813736909E+00
(PID.TID 0000.0001)  ploadbar=  1.01059268173579E+05
 cg2d: Sum(rhs),rhsMax =  -6.08258025723394E+01  2.23374136389617E+00
(PID.TID 0000.0001)  ploadbar=  1.01059278818046E+05
 cg2d: Sum(rhs),rhsMax =  -6.04228289519697E+01  2.24794284295021E+00
(PID.TID 0000.0001)  ploadbar=  1.01059579434945E+05
 cg2d: Sum(rhs),rhsMax =  -6.00447849716416E+01  2.26134215857827E+00
(PID.TID 0000.0001)  ploadbar=  1.01059880051844E+05
 cg2d: Sum(rhs),rhsMax =  -5.96938946843606E+01  2.27382970187518E+00
(PID.TID 0000.0001)  ploadbar=  1.01060180668743E+05
 cg2d: Sum(rhs),rhsMax =  -5.93820202175090E+01  2.28491605122734E+00
(PID.TID 0000.0001)  ploadbar=  1.01060481285643E+05
 cg2d: Sum(rhs),rhsMax =  -5.91115656195019E+01  2.29445582907684E+00
(PID.TID 0000.0001)  ploadbar=  1.01060781902542E+05
 cg2d: Sum(rhs),rhsMax =  -5.88870114790040E+01  2.30222813398213E+00
(PID.TID 0000.0001)  ploadbar=  1.01061082519441E+05
 cg2d: Sum(rhs),rhsMax =  -5.87141297904794E+01  2.30807002806830E+00
(PID.TID 0000.0001)  ploadbar=  1.01060440369864E+05
 cg2d: Sum(rhs),rhsMax =  -5.85900905181729E+01  2.31204855547925E+00
(PID.TID 0000.0001)  ploadbar=  1.01059798220287E+05
 cg2d: Sum(rhs),rhsMax =  -5.85082800074759E+01  2.31439900990137E+00
(PID.TID 0000.0001)  ploadbar=  1.01059156070709E+05
 cg2d: Sum(rhs),rhsMax =  -5.84558484498726E+01  2.31561195575973E+00
(PID.TID 0000.0001)  ploadbar=  1.01058513921132E+05
 cg2d: Sum(rhs),rhsMax =  -5.84285455651344E+01  2.31584782705313E+00
(PID.TID 0000.0001)  ploadbar=  1.01057871771555E+05
 cg2d: Sum(rhs),rhsMax =  -5.84205625984079E+01  2.31533251363712E+00
(PID.TID 0000.0001)  ploadbar=  1.01057229621978E+05
 cg2d: Sum(rhs),rhsMax =  -5.84151075195487E+01  2.31468157392528E+00
(PID.TID 0000.0001)  ploadbar=  1.01058152794450E+05
 cg2d: Sum(rhs),rhsMax =  -5.84076879857829E+01  2.31406627375441E+00
(PID.TID 0000.0001)  ploadbar=  1.01059075966922E+05
 cg2d: Sum(rhs),rhsMax =  -5.83969427645346E+01  2.31353680612085E+00
(PID.TID 0000.0001)  ploadbar=  1.01059999139395E+05
 cg2d: Sum(rhs),rhsMax =  -5.83854647489092E+01  2.31298656861621E+00
(PID.TID 0000.0001)  ploadbar=  1.01060922311867E+05
 cg2d: Sum(rhs),rhsMax =  -5.83803472037742E+01  2.31212832493849E+00
(PID.TID 0000.0001)  ploadbar=  1.01061845484339E+05
 cg2d: Sum(rhs),rhsMax =  -5.83914116572348E+01  2.31056424287869E+00
(PID.TID 0000.0001)  ploadbar=  1.01062768656812E+05
 cg2d: Sum(rhs),rhsMax =  -5.84215008132657E+01  2.30830970764609E+00
(PID.TID 0000.0001)  ploadbar=  1.01063531774286E+05
 cg2d: Sum(rhs),rhsMax =  -5.84758021829757E+01  2.30515709489309E+00
(PID.TID 0000.0001)  ploadbar=  1.01064294891760E+05
 cg2d: Sum(rhs),rhsMax =  -5.85592973011432E+01  2.30091083450567E+00
(PID.TID 0000.0001)  ploadbar=  1.01065058009234E+05
 cg2d: Sum(rhs),rhsMax =  -5.86741869980970E+01  2.29548886128761E+00
(PID.TID 0000.0001)  ploadbar=  1.01065821126709E+05
 cg2d: Sum(rhs),rhsMax =  -5.88175972087918E+01  2.28901048486511E+00
(PID.TID 0000.0001)  ploadbar=  1.01066584244183E+05
 cg2d: Sum(rhs),rhsMax =  -5.89922769319932E+01  2.28138013323085E+00
(PID.TID 0000.0001)  ploadbar=  1.01067347361657E+05
 cg2d: Sum(rhs),rhsMax =  -5.91970352543400E+01  2.27265197776852E+00
(PID.TID 0000.0001)  ploadbar=  1.01067469434674E+05
 cg2d: Sum(rhs),rhsMax =  -5.94259018377772E+01  2.26306808223854E+00
(PID.TID 0000.0001)  ploadbar=  1.01067591507692E+05
 cg2d: Sum(rhs),rhsMax =  -5.96776348025743E+01  2.25269541973847E+00
(PID.TID 0000.0001)  ploadbar=  1.01067713580709E+05
 cg2d: Sum(rhs),rhsMax =  -5.99533627102425E+01  2.24151844504215E+00
(PID.TID 0000.0001)  ploadbar=  1.01067835653727E+05
 cg2d: Sum(rhs),rhsMax =  -6.02552612476421E+01  2.22948453780480E+00
(PID.TID 0000.0001)  ploadbar=  1.01067957726744E+05
 cg2d: Sum(rhs),rhsMax =  -6.05861094103516E+01  2.21651468181049E+00
(PID.TID 0000.0001)  ploadbar=  1.01068079799762E+05
 cg2d: Sum(rhs),rhsMax =  -6.09462076973015E+01  2.20266912715915E+00
(PID.TID 0000.0001)  ploadbar=  1.01068888736797E+05
 cg2d: Sum(rhs),rhsMax =  -6.13300341787670E+01  2.18817359775763E+00
(PID.TID 0000.0001)  ploadbar=  1.01069697673832E+05
 cg2d: Sum(rhs),rhsMax =  -6.17319250848952E+01  2.17325176358983E+00
(PID.TID 0000.0001)  ploadbar=  1.01070506610867E+05
 cg2d: Sum(rhs),rhsMax =  -6.21447336129317E+01  2.15816731266208E+00
(PID.TID 0000.0001)  ploadbar=  1.01071315547902E+05
 cg2d: Sum(rhs),rhsMax =  -6.25613990412298E+01  2.14316983311962E+00
(PID.TID 0000.0001)  ploadbar=  1.01072124484937E+05
 cg2d: Sum(rhs),rhsMax =  -6.29773654954433E+01  2.12841320934781E+00
(PID.TID 0000.0001)  ploadbar=  1.01072933421972E+05
 cg2d: Sum(rhs),rhsMax =  -6.33947938270319E+01  2.11376420108390E+00
(PID.TID 0000.0001)  ploadbar=  1.01072560508577E+05
 cg2d: Sum(rhs),rhsMax =  -6.38135182766855E+01  2.09922485957717E+00
(PID.TID 0000.0001)  ploadbar=  1.01072187595181E+05
 cg2d: Sum(rhs),rhsMax =  -6.42351053950560E+01  2.08474060456315E+00
(PID.TID 0000.0001)  ploadbar=  1.01071814681786E+05
 cg2d: Sum(rhs),rhsMax =  -6.46620479004137E+01  2.07023177513421E+00
(PID.TID 0000.0001)  ploadbar=  1.01071441768391E+05
 cg2d: Sum(rhs),rhsMax =  -6.50936850710681E+01  2.05572358661198E+00
(PID.TID 0000.0001)  ploadbar=  1.01071068854995E+05
 cg2d: Sum(rhs),rhsMax =  -6.55285891956496E+01  2.04125935008096E+00
(PID.TID 0000.0001)  ploadbar=  1.01070695941600E+05
 cg2d: Sum(rhs),rhsMax =  -6.59595001671990E+01  2.02715289451193E+00
(PID.TID 0000.0001)  ploadbar=  1.01069761110068E+05
 cg2d: Sum(rhs),rhsMax =  -6.63846450430248E+01  2.01344539058576E+00
(PID.TID 0000.0001)  ploadbar=  1.01068826278536E+05
 cg2d: Sum(rhs),rhsMax =  -6.68104467499239E+01  1.99992991209065E+00
(PID.TID 0000.0001)  ploadbar=  1.01067891447004E+05
 cg2d: Sum(rhs),rhsMax =  -6.72367075226725E+01  1.98660741039539E+00
(PID.TID 0000.0001)  ploadbar=  1.01066956615473E+05
 cg2d: Sum(rhs),rhsMax =  -6.76639883107049E+01  1.97345569551791E+00
(PID.TID 0000.0001)  ploadbar=  1.01066021783941E+05
 cg2d: Sum(rhs),rhsMax =  -6.80930158152881E+01  1.96044485333929E+00
(PID.TID 0000.0001)  ploadbar=  1.01065086952409E+05
 cg2d: Sum(rhs),rhsMax =  -6.85232261012149E+01  1.94755876423417E+00
(PID.TID 0000.0001)  ploadbar=  1.01064411192842E+05
 cg2d: Sum(rhs),rhsMax =  -6.89549193037418E+01  1.93478141447484E+00
(PID.TID 0000.0001)  ploadbar=  1.01063735433275E+05
 cg2d: Sum(rhs),rhsMax =  -6.93874085000882E+01  1.92212904518866E+00
(PID.TID 0000.0001)  ploadbar=  1.01063059673708E+05
 cg2d: Sum(rhs),rhsMax =  -6.98196337799549E+01  1.90962630425508E+00
(PID.TID 0000.0001)  ploadbar=  1.01062383914141E+05
 cg2d: Sum(rhs),rhsMax =  -7.02506786273232E+01  1.89729557680294E+00
(PID.TID 0000.0001)  ploadbar=  1.01061708154574E+05
 cg2d: Sum(rhs),rhsMax =  -7.06656109168387E+01  1.88553015045463E+00
(PID.TID 0000.0001)  ploadbar=  1.01061032395007E+05
 cg2d: Sum(rhs),rhsMax =  -7.10839255909349E+01  1.87385088351363E+00
(PID.TID 0000.0001)  ploadbar=  1.01059208684305E+05
 cg2d: Sum(rhs),rhsMax =  -7.15082980722775E+01  1.86218047724321E+00
(PID.TID 0000.0001)  ploadbar=  1.01057384973604E+05
 cg2d: Sum(rhs),rhsMax =  -7.19397488082674E+01  1.85049029764690E+00
(PID.TID 0000.0001)  ploadbar=  1.01055561262902E+05
 cg2d: Sum(rhs),rhsMax =  -7.23787358206023E+01  1.83876894837539E+00
(PID.TID 0000.0001)  ploadbar=  1.01053737552200E+05
 cg2d: Sum(rhs),rhsMax =  -7.28253622977181E+01  1.82701502459896E+00
(PID.TID 0000.0001)  ploadbar=  1.01051913841499E+05
 cg2d: Sum(rhs),rhsMax =  -7.32777021955673E+01  1.81527914794902E+00
(PID.TID 0000.0001)  ploadbar=  1.01050090130797E+05
 cg2d: Sum(rhs),rhsMax =  -7.37307588766640E+01  1.80362856955912E+00
(PID.TID 0000.0001)  ploadbar=  1.01049135529062E+05
 cg2d: Sum(rhs),rhsMax =  -7.41855781957854E+01  1.79203271689287E+00
(PID.TID 0000.0001)  ploadbar=  1.01048180927327E+05
 cg2d: Sum(rhs),rhsMax =  -7.46428226079770E+01  1.78047113949404E+00
(PID.TID 0000.0001)  ploadbar=  1.01047226325591E+05
 cg2d: Sum(rhs),rhsMax =  -7.51028187028110E+01  1.76893322265962E+00
(PID.TID 0000.0001)  ploadbar=  1.01046271723856E+05
 cg2d: Sum(rhs),rhsMax =  -7.55675373088553E+01  1.75737004089017E+00
(PID.TID 0000.0001)  ploadbar=  1.01045317122121E+05
 cg2d: Sum(rhs),rhsMax =  -7.57933737694811E+01  1.75139269429307E+00
(PID.TID 0000.0001)  ploadbar=  1.01044362520385E+05
 cg2d: Sum(rhs),rhsMax =  -7.59572208185908E+01  1.74690599387503E+00
(PID.TID 0000.0001)  ploadbar=  1.01044772393056E+05
 cg2d: Sum(rhs),rhsMax =  -7.61063377242370E+01  1.74280102262924E+00
(PID.TID 0000.0001)  ploadbar=  1.01045182265727E+05
 cg2d: Sum(rhs),rhsMax =  -7.63042514843663E+01  1.73762300742465E+00
(PID.TID 0000.0001)  ploadbar=  1.01045592138397E+05
 cg2d: Sum(rhs),rhsMax =  -7.65406148569581E+01  1.73162315965484E+00
(PID.TID 0000.0001)  ploadbar=  1.01046002011068E+05
 cg2d: Sum(rhs),rhsMax =  -7.68214999858099E+01  1.72467875014368E+00
(PID.TID 0000.0001)  ploadbar=  1.01046411883738E+05
 cg2d: Sum(rhs),rhsMax =  -7.71508487481464E+01  1.71671563096323E+00
(PID.TID 0000.0001)  ploadbar=  1.01046821756409E+05
 cg2d: Sum(rhs),rhsMax =  -7.74483444581672E+01  1.70951470938964E+00
(PID.TID 0000.0001)  ploadbar=  1.01047566950099E+05
 cg2d: Sum(rhs),rhsMax =  -7.76994829444327E+01  1.70336780486640E+00
(PID.TID 0000.0001)  ploadbar=  1.01048312143789E+05
 cg2d: Sum(rhs),rhsMax =  -7.79192092240971E+01  1.69792618782602E+00
(PID.TID 0000.0001)  ploadbar=  1.01049057337479E+05
 cg2d: Sum(rhs),rhsMax =  -7.81685344198618E+01  1.69185722052041E+00
(PID.TID 0000.0001)  ploadbar=  1.01049802531169E+05
 cg2d: Sum(rhs),rhsMax =  -7.84570997605692E+01  1.68496645578753E+00
(PID.TID 0000.0001)  ploadbar=  1.01050547724859E+05
 cg2d: Sum(rhs),rhsMax =  -7.87936949453391E+01  1.67708549091674E+00
(PID.TID 0000.0001)  ploadbar=  1.01051292918549E+05
 cg2d: Sum(rhs),rhsMax =  -7.91213574525217E+01  1.66950695269331E+00
(PID.TID 0000.0001)  ploadbar=  1.01052884073538E+05
 cg2d: Sum(rhs),rhsMax =  -7.94864391755710E+01  1.66124400189825E+00
(PID.TID 0000.0001)  ploadbar=  1.01054475228527E+05
 cg2d: Sum(rhs),rhsMax =  -7.98499360852802E+01  1.65311921072577E+00
(PID.TID 0000.0001)  ploadbar=  1.01056066383516E+05
 cg2d: Sum(rhs),rhsMax =  -8.02361787256334E+01  1.64462799722683E+00
(PID.TID 0000.0001)  ploadbar=  1.01057657538505E+05
 cg2d: Sum(rhs),rhsMax =  -8.06167331115844E+01  1.63635534307123E+00
(PID.TID 0000.0001)  ploadbar=  1.01059248693494E+05
 cg2d: Sum(rhs),rhsMax =  -8.09701643023926E+01  1.62872538091653E+00
(PID.TID 0000.0001)  ploadbar=  1.01060839848483E+05
 cg2d: Sum(rhs),rhsMax =  -8.13077765922474E+01  1.62143974442915E+00
(PID.TID 0000.0001)  ploadbar=  1.01061749616573E+05
 cg2d: Sum(rhs),rhsMax =  -8.15857094475629E+01  1.61535348163102E+00
(PID.TID 0000.0001)  ploadbar=  1.01062659384663E+05
 cg2d: Sum(rhs),rhsMax =  -8.18062092088344E+01  1.61039124511246E+00
(PID.TID 0000.0001)  ploadbar=  1.01063569152753E+05
 cg2d: Sum(rhs),rhsMax =  -8.19785068738183E+01  1.60634704134230E+00
(PID.TID 0000.0001)  ploadbar=  1.01064478920843E+05
 cg2d: Sum(rhs),rhsMax =  -8.21157305561039E+01  1.60294954998994E+00
(PID.TID 0000.0001)  ploadbar=  1.01065388688932E+05
 cg2d: Sum(rhs),rhsMax =  -8.22315166748280E+01  1.59992048128240E+00
(PID.TID 0000.0001)  ploadbar=  1.01066298457022E+05
 cg2d: Sum(rhs),rhsMax =  -8.23421564813773E+01  1.59703879619962E+00
(PID.TID 0000.0001)  ploadbar=  1.01066706312671E+05
 cg2d: Sum(rhs),rhsMax =  -8.24220786321249E+01  1.59479554310813E+00
(PID.TID 0000.0001)  ploadbar=  1.01067114168320E+05
 cg2d: Sum(rhs),rhsMax =  -8.25464059908145E+01  1.59173648941543E+00
(PID.TID 0000.0001)  ploadbar=  1.01067522023968E+05
 cg2d: Sum(rhs),rhsMax =  -8.27276972725619E+01  1.58762691855753E+00
(PID.TID 0000.0001)  ploadbar=  1.01067929879617E+05
 cg2d: Sum(rhs),rhsMax =  -8.29632806926908E+01  1.58252638818396E+00
(PID.TID 0000.0001)  ploadbar=  1.01068337735266E+05
 cg2d: Sum(rhs),rhsMax =  -8.32507984435230E+01  1.57648668532933E+00
(PID.TID 0000.0001)  ploadbar=  1.01068745590915E+05
 cg2d: Sum(rhs),rhsMax =  -8.35238984602494E+01  1.57075897414966E+00
(PID.TID 0000.0001)  ploadbar=  1.01068221942273E+05
 cg2d: Sum(rhs),rhsMax =  -8.37962388543055E+01  1.56507457151778E+00
(PID.TID 0000.0001)  ploadbar=  1.01067698293631E+05
 cg2d: Sum(rhs),rhsMax =  -8.40520224364917E+01  1.55972577175428E+00
(PID.TID 0000.0001)  ploadbar=  1.01067174644989E+05
 cg2d: Sum(rhs),rhsMax =  -8.42796349008871E+01  1.55492229234660E+00
(PID.TID 0000.0001)  ploadbar=  1.01066650996347E+05
 cg2d: Sum(rhs),rhsMax =  -8.44740489446757E+01  1.55074571298698E+00
(PID.TID 0000.0001)  ploadbar=  1.01066127347706E+05
 cg2d: Sum(rhs),rhsMax =  -8.46373689909168E+01  1.54714619687049E+00
(PID.TID 0000.0001)  ploadbar=  1.01065603699064E+05
 cg2d: Sum(rhs),rhsMax =  -8.47605140627593E+01  1.54435337565747E+00
(PID.TID 0000.0001)  ploadbar=  1.01065268419311E+05
 cg2d: Sum(rhs),rhsMax =  -8.48564148365309E+01  1.54211373195152E+00
(PID.TID 0000.0001)  ploadbar=  1.01064933139557E+05
 cg2d: Sum(rhs),rhsMax =  -8.49451584065199E+01  1.54005096960217E+00
(PID.TID 0000.0001)  ploadbar=  1.01064597859804E+05
 cg2d: Sum(rhs),rhsMax =  -8.50392489352239E+01  1.53793336078809E+00
(PID.TID 0000.0001)  ploadbar=  1.01064262580051E+05
 cg2d: Sum(rhs),rhsMax =  -8.51436870859534E+01  1.53566725074863E+00
(PID.TID 0000.0001)  ploadbar=  1.01063927300298E+05
 cg2d: Sum(rhs),rhsMax =  -8.52901018608921E+01  1.53268112132003E+00
(PID.TID 0000.0001)  ploadbar=  1.01063592020545E+05
 cg2d: Sum(rhs),rhsMax =  -8.55296708118262E+01  1.52800498252298E+00
(PID.TID 0000.0001)  ploadbar=  1.01063234565544E+05
 cg2d: Sum(rhs),rhsMax =  -8.58435699841102E+01  1.52199955207746E+00
(PID.TID 0000.0001)  ploadbar=  1.01062877110542E+05
 cg2d: Sum(rhs),rhsMax =  -8.62288237165441E+01  1.51474180374975E+00
(PID.TID 0000.0001)  ploadbar=  1.01062519655541E+05
 cg2d: Sum(rhs),rhsMax =  -8.66807785250652E+01  1.50634187620916E+00
(PID.TID 0000.0001)  ploadbar=  1.01062162200540E+05
 cg2d: Sum(rhs),rhsMax =  -8.71929640834878E+01  1.49694182553025E+00
(PID.TID 0000.0001)  ploadbar=  1.01061804745539E+05
 cg2d: Sum(rhs),rhsMax =  -8.77609281440634E+01  1.48665073575436E+00
(PID.TID 0000.0001)  ploadbar=  1.01061447290538E+05
 cg2d: Sum(rhs),rhsMax =  -8.83832153858414E+01  1.47562547695773E+00
(PID.TID 0000.0001)  ploadbar=  1.01061434724580E+05
 cg2d: Sum(rhs),rhsMax =  -8.90890021236464E+01  1.46341775904182E+00
(PID.TID 0000.0001)  ploadbar=  1.01061422158622E+05
 cg2d: Sum(rhs),rhsMax =  -8.98130111945547E+01  1.45113843470780E+00
(PID.TID 0000.0001)  ploadbar=  1.01061409592664E+05
 cg2d: Sum(rhs),rhsMax =  -9.04825971530082E+01  1.43994561210875E+00
(PID.TID 0000.0001)  ploadbar=  1.01061397026705E+05
 cg2d: Sum(rhs),rhsMax =  -9.12247171054173E+01  1.42779792967805E+00
(PID.TID 0000.0001)  ploadbar=  1.01061384460747E+05
 cg2d: Sum(rhs),rhsMax =  -9.19528465602670E+01  1.41607091363824E+00
(PID.TID 0000.0001)  ploadbar=  1.01061371894789E+05
 cg2d: Sum(rhs),rhsMax =  -9.26954275249739E+01  1.40430464427301E+00
(PID.TID 0000.0001)  ploadbar=  1.01060543662697E+05
 cg2d: Sum(rhs),rhsMax =  -9.34557875375234E+01  1.39245159722868E+00
(PID.TID 0000.0001)  ploadbar=  1.01059715430606E+05
 cg2d: Sum(rhs),rhsMax =  -9.42290044372316E+01  1.38059207352205E+00
(PID.TID 0000.0001)  ploadbar=  1.01058887198514E+05
 cg2d: Sum(rhs),rhsMax =  -9.50128263108802E+01  1.36876404365983E+00
(PID.TID 0000.0001)  ploadbar=  1.01058058966423E+05
 cg2d: Sum(rhs),rhsMax =  -9.58053535468335E+01  1.35699909064936E+00
(PID.TID 0000.0001)  ploadbar=  1.01057230734331E+05
 cg2d: Sum(rhs),rhsMax =  -9.66039391867720E+01  1.34533301288203E+00
(PID.TID 0000.0001)  ploadbar=  1.01056402502239E+05
 cg2d: Sum(rhs),rhsMax =  -9.73321138585257E+01  1.33486084980910E+00
(PID.TID 0000.0001)  ploadbar=  1.01055727605672E+05
 cg2d: Sum(rhs),rhsMax =  -9.80895481802202E+01  1.32417392266395E+00
(PID.TID 0000.0001)  ploadbar=  1.01055052709105E+05
 cg2d: Sum(rhs),rhsMax =  -9.89024269956012E+01  1.31293175449016E+00
(PID.TID 0000.0001)  ploadbar=  1.01054377812538E+05
 cg2d: Sum(rhs),rhsMax =  -9.97890522633277E+01  1.30092296105477E+00
(PID.TID 0000.0001)  ploadbar=  1.01053702915971E+05
 cg2d: Sum(rhs),rhsMax =  -1.01045190558665E+02  1.28442015362507E+00
(PID.TID 0000.0001)  ploadbar=  1.01053028019404E+05
 cg2d: Sum(rhs),rhsMax =  -1.02333432220335E+02  1.26793502825642E+00
(PID.TID 0000.0001)  ploadbar=  1.01052353122837E+05
 cg2d: Sum(rhs),rhsMax =  -1.03570951560521E+02  1.25245145215083E+00
(PID.TID 0000.0001)  ploadbar=  1.01051792559225E+05
 cg2d: Sum(rhs),rhsMax =  -1.04788541106449E+02  1.23754171921199E+00
(PID.TID 0000.0001)  ploadbar=  1.01051231995613E+05
 cg2d: Sum(rhs),rhsMax =  -1.05979521596254E+02  1.22325143082589E+00
(PID.TID 0000.0001)  ploadbar=  1.01050671432002E+05
 cg2d: Sum(rhs),rhsMax =  -1.07159312777424E+02  1.20937068837378E+00
(PID.TID 0000.0001)  ploadbar=  1.01050110868390E+05
 cg2d: Sum(rhs),rhsMax =  -1.08302799800639E+02  1.19615476445447E+00
(PID.TID 0000.0001)  ploadbar=  1.01049550304778E+05
 cg2d: Sum(rhs),rhsMax =  -1.09499743983928E+02  1.18259738318992E+00
(PID.TID 0000.0001)  ploadbar=  1.01048989741166E+05
 cg2d: Sum(rhs),rhsMax =  -1.10728306804143E+02  1.16905157723512E+00
(PID.TID 0000.0001)  ploadbar=  1.01049103599286E+05
 cg2d: Sum(rhs),rhsMax =  -1.11897285751809E+02  1.15646654467552E+00
(PID.TID 0000.0001)  ploadbar=  1.01049217457406E+05
 cg2d: Sum(rhs),rhsMax =  -1.11556876393490E+02  1.15966674328696E+00
(PID.TID 0000.0001)  ploadbar=  1.01049331315526E+05
 cg2d: Sum(rhs),rhsMax =  -1.11222894592681E+02  1.16285665799587E+00
(PID.TID 0000.0001)  ploadbar=  1.01049445173646E+05
 cg2d: Sum(rhs),rhsMax =  -1.10996436771828E+02  1.16496581543347E+00
(PID.TID 0000.0001)  ploadbar=  1.01049559031766E+05
 cg2d: Sum(rhs),rhsMax =  -1.10873699522827E+02  1.16601626417293E+00
(PID.TID 0000.0001)  ploadbar=  1.01049672889886E+05
 cg2d: Sum(rhs),rhsMax =  -1.10882962483911E+02  1.16567146316030E+00
(PID.TID 0000.0001)  ploadbar=  1.01049323099528E+05
 cg2d: Sum(rhs),rhsMax =  -1.10864915305581E+02  1.16560301862777E+00
(PID.TID 0000.0001)  ploadbar=  1.01048973309170E+05
 cg2d: Sum(rhs),rhsMax =  -1.10865495293626E+02  1.16532673267481E+00
(PID.TID 0000.0001)  ploadbar=  1.01048623518812E+05
 cg2d: Sum(rhs),rhsMax =  -1.10922438820187E+02  1.16444760762673E+00
(PID.TID 0000.0001)  ploadbar=  1.01048273728454E+05
 cg2d: Sum(rhs),rhsMax =  -1.11031545227094E+02  1.16301416356301E+00
(PID.TID 0000.0001)  ploadbar=  1.01047923938095E+05
 cg2d: Sum(rhs),rhsMax =  -1.11204392254779E+02  1.16090803724887E+00
(PID.TID 0000.0001)  ploadbar=  1.01047574147737E+05
 cg2d: Sum(rhs),rhsMax =  -1.11488144430045E+02  1.15771694131871E+00
(PID.TID 0000.0001)  ploadbar=  1.01046111787835E+05
 cg2d: Sum(rhs),rhsMax =  -1.11776228197826E+02  1.15454578522834E+00
(PID.TID 0000.0001)  ploadbar=  1.01044649427934E+05
 cg2d: Sum(rhs),rhsMax =  -1.12083969372138E+02  1.15123213230210E+00
(PID.TID 0000.0001)  ploadbar=  1.01043187068032E+05
 cg2d: Sum(rhs),rhsMax =  -1.12417412298408E+02  1.14771496162535E+00
(PID.TID 0000.0001)  ploadbar=  1.01041724708130E+05
 cg2d: Sum(rhs),rhsMax =  -1.12779800693094E+02  1.14396476665650E+00
(PID.TID 0000.0001)  ploadbar=  1.01040262348228E+05
 cg2d: Sum(rhs),rhsMax =  -1.13177999014867E+02  1.13991631088559E+00
(PID.TID 0000.0001)  ploadbar=  1.01038799988327E+05
 cg2d: Sum(rhs),rhsMax =  -1.13629451814703E+02  1.13532337354886E+00
(PID.TID 0000.0001)  ploadbar=  1.01037923058345E+05
 cg2d: Sum(rhs),rhsMax =  -1.13495258761823E+02  1.13655529545615E+00
(PID.TID 0000.0001)  ploadbar=  1.01037046128363E+05
 cg2d: Sum(rhs),rhsMax =  -1.14615708997638E+02  1.12528596205498E+00
(PID.TID 0000.0001)  ploadbar=  1.01036169198381E+05
 cg2d: Sum(rhs),rhsMax =  -1.10890449349384E+02  1.16286983124564E+00
(PID.TID 0000.0001)  ploadbar=  1.01035292268399E+05
 cg2d: Sum(rhs),rhsMax =  -1.06168989256227E+02  1.21429542257823E+00
(PID.TID 0000.0001)  ploadbar=  1.01034415338417E+05
 cg2d: Sum(rhs),rhsMax =  -1.01844021456994E+02  1.26549502545122E+00
(PID.TID 0000.0001)  ploadbar=  1.01033538408435E+05
 cg2d: Sum(rhs),rhsMax =  -9.83489912639511E+01  1.31009992801160E+00
(PID.TID 0000.0001)  ploadbar=  1.01033319028179E+05
 cg2d: Sum(rhs),rhsMax =  -9.58063798174255E+01  1.34450405999147E+00
(PID.TID 0000.0001)  ploadbar=  1.01033099647924E+05
 cg2d: Sum(rhs),rhsMax =  -9.59921904085261E+01  1.34154313145640E+00
(PID.TID 0000.0001)  ploadbar=  1.01032880267668E+05
 cg2d: Sum(rhs),rhsMax =  -9.62510003433931E+01  1.33757715544216E+00
(PID.TID 0000.0001)  ploadbar=  1.01032660887413E+05
 cg2d: Sum(rhs),rhsMax =  -9.64383499716853E+01  1.33461211642275E+00
(PID.TID 0000.0001)  ploadbar=  1.01032441507157E+05
 cg2d: Sum(rhs),rhsMax =  -9.64330903661685E+01  1.33430379551702E+00
(PID.TID 0000.0001)  ploadbar=  1.01032222126901E+05
 cg2d: Sum(rhs),rhsMax =  -9.64750685109376E+01  1.33332387368039E+00
(PID.TID 0000.0001)  ploadbar=  1.01031015167768E+05
 cg2d: Sum(rhs),rhsMax =  -9.66654146321834E+01  1.33027811926667E+00
(PID.TID 0000.0001)  ploadbar=  1.01029808208634E+05
 cg2d: Sum(rhs),rhsMax =  -9.70793948257322E+01  1.32416707884248E+00
(PID.TID 0000.0001)  ploadbar=  1.01028601249500E+05
 cg2d: Sum(rhs),rhsMax =  -9.41113042984446E+01  1.36545654907628E+00
(PID.TID 0000.0001)  ploadbar=  1.01027394290366E+05
 cg2d: Sum(rhs),rhsMax =  -9.13245877092414E+01  1.40661643382730E+00
(PID.TID 0000.0001)  ploadbar=  1.01026187331232E+05
 cg2d: Sum(rhs),rhsMax =  -8.87594261722140E+01  1.44672947676810E+00
(PID.TID 0000.0001)  ploadbar=  1.01024980372098E+05
 cg2d: Sum(rhs),rhsMax =  -8.63765261501827E+01  1.48613909019137E+00
(PID.TID 0000.0001)  ploadbar=  1.01024086577425E+05
 cg2d: Sum(rhs),rhsMax =  -8.41924109223839E+01  1.52421272024991E+00
(PID.TID 0000.0001)  ploadbar=  1.01023192782753E+05
 cg2d: Sum(rhs),rhsMax =  -8.22373903729184E+01  1.55998600142660E+00
(PID.TID 0000.0001)  ploadbar=  1.01022298988080E+05
 cg2d: Sum(rhs),rhsMax =  -8.05354320810938E+01  1.59251064579472E+00
(PID.TID 0000.0001)  ploadbar=  1.01021405193407E+05
 cg2d: Sum(rhs),rhsMax =  -7.93125857760215E+01  1.61664288624351E+00
(PID.TID 0000.0001)  ploadbar=  1.01020511398735E+05
 cg2d: Sum(rhs),rhsMax =  -7.86646427736781E+01  1.62956210079108E+00
(PID.TID 0000.0001)  ploadbar=  1.01019617604062E+05
 cg2d: Sum(rhs),rhsMax =  -7.81574322984354E+01  1.63971359129599E+00
(PID.TID 0000.0001)  ploadbar=  1.01018880016954E+05
 cg2d: Sum(rhs),rhsMax =  -7.76583150614904E+01  1.64979354514259E+00
(PID.TID 0000.0001)  ploadbar=  1.01018142429847E+05
 cg2d: Sum(rhs),rhsMax =  -7.71590041538422E+01  1.65996928248843E+00
(PID.TID 0000.0001)  ploadbar=  1.01017404842739E+05
 cg2d: Sum(rhs),rhsMax =  -7.67122293091336E+01  1.66909020927242E+00
(PID.TID 0000.0001)  ploadbar=  1.01016667255632E+05
 cg2d: Sum(rhs),rhsMax =  -7.65947106289724E+01  1.67105435825131E+00
(PID.TID 0000.0001)  ploadbar=  1.01015929668524E+05
 cg2d: Sum(rhs),rhsMax =  -7.66998288285979E+01  1.66811130944084E+00
(PID.TID 0000.0001)  ploadbar=  1.01015192081417E+05
 cg2d: Sum(rhs),rhsMax =  -7.69372792256494E+01  1.66235911651759E+00
(PID.TID 0000.0001)  ploadbar=  1.01014828593766E+05
 cg2d: Sum(rhs),rhsMax =  -7.73711330205177E+01  1.65248111245454E+00
(PID.TID 0000.0001)  ploadbar=  1.01014465106115E+05
 cg2d: Sum(rhs),rhsMax =  -7.81569654420878E+01  1.63535206759910E+00
(PID.TID 0000.0001)  ploadbar=  1.01014101618464E+05
 cg2d: Sum(rhs),rhsMax =  -7.88288103162781E+01  1.62093323895639E+00
(PID.TID 0000.0001)  ploadbar=  1.01013738130812E+05
 cg2d: Sum(rhs),rhsMax =  -7.94800449773547E+01  1.60719513886370E+00
(PID.TID 0000.0001)  ploadbar=  1.01013374643161E+05
 cg2d: Sum(rhs),rhsMax =  -8.01554494400120E+01  1.59320996602938E+00
(PID.TID 0000.0001)  ploadbar=  1.01013011155510E+05
 cg2d: Sum(rhs),rhsMax =  -7.99456116656621E+01  1.59697436957758E+00
(PID.TID 0000.0001)  ploadbar=  1.01012523228494E+05
 cg2d: Sum(rhs),rhsMax =  -8.04286993491278E+01  1.58699209309444E+00
(PID.TID 0000.0001)  ploadbar=  1.01012035301478E+05
 cg2d: Sum(rhs),rhsMax =  -8.08773564271481E+01  1.57782473712738E+00
(PID.TID 0000.0001)  ploadbar=  1.01011547374462E+05
 cg2d: Sum(rhs),rhsMax =  -8.12768540028716E+01  1.56972920724493E+00
(PID.TID 0000.0001)  ploadbar=  1.01011059447446E+05
 cg2d: Sum(rhs),rhsMax =  -8.16171272774956E+01  1.56286529647655E+00
(PID.TID 0000.0001)  ploadbar=  1.01010571520429E+05
 cg2d: Sum(rhs),rhsMax =  -8.18967956374158E+01  1.55722737351629E+00
(PID.TID 0000.0001)  ploadbar=  1.01010083593413E+05
 cg2d: Sum(rhs),rhsMax =  -8.21199687725954E+01  1.55271795668760E+00
(PID.TID 0000.0001)  ploadbar=  1.01009811659654E+05
 cg2d: Sum(rhs),rhsMax =  -8.22846275453581E+01  1.54934163123723E+00
(PID.TID 0000.0001)  ploadbar=  1.01009539725895E+05
 cg2d: Sum(rhs),rhsMax =  -8.24385619234490E+01  1.54618043255203E+00
(PID.TID 0000.0001)  ploadbar=  1.01009267792136E+05
 cg2d: Sum(rhs),rhsMax =  -8.26406507710097E+01  1.54213103968722E+00
(PID.TID 0000.0001)  ploadbar=  1.01008995858376E+05
 cg2d: Sum(rhs),rhsMax =  -8.29329242713420E+01  1.53642458647199E+00
(PID.TID 0000.0001)  ploadbar=  1.01008723924617E+05
 cg2d: Sum(rhs),rhsMax =  -8.32720474144884E+01  1.52988848274410E+00
(PID.TID 0000.0001)  ploadbar=  1.01008451990858E+05
 cg2d: Sum(rhs),rhsMax =  -8.34601784697690E+01  1.52613163482013E+00
(PID.TID 0000.0001)  ploadbar=  1.01008382831036E+05
 cg2d: Sum(rhs),rhsMax =  -8.34943396655301E+01  1.52516150945214E+00
(PID.TID 0000.0001)  ploadbar=  1.01008313671213E+05
 cg2d: Sum(rhs),rhsMax =  -8.33935542886695E+01  1.52661493107916E+00
(PID.TID 0000.0001)  ploadbar=  1.01008244511391E+05
 cg2d: Sum(rhs),rhsMax =  -8.32787075496745E+01  1.52828197276232E+00
(PID.TID 0000.0001)  ploadbar=  1.01008175351569E+05
 cg2d: Sum(rhs),rhsMax =  -8.32038891547609E+01  1.52916603119566E+00
(PID.TID 0000.0001)  ploadbar=  1.01008106191747E+05
 cg2d: Sum(rhs),rhsMax =  -8.32114373234403E+01  1.52848160358219E+00
(PID.TID 0000.0001)  ploadbar=  1.01008037031924E+05
 cg2d: Sum(rhs),rhsMax =  -8.32841949348428E+01  1.52662248962127E+00
(PID.TID 0000.0001)  ploadbar=  1.01008266635890E+05
 cg2d: Sum(rhs),rhsMax =  -8.34274710024133E+01  1.52349578537208E+00
(PID.TID 0000.0001)  ploadbar=  1.01008496239856E+05
 cg2d: Sum(rhs),rhsMax =  -8.36191983857792E+01  1.51951492044330E+00
(PID.TID 0000.0001)  ploadbar=  1.01008725843821E+05
 cg2d: Sum(rhs),rhsMax =  -8.38369074960887E+01  1.51508971384754E+00
(PID.TID 0000.0001)  ploadbar=  1.01008955447787E+05
 cg2d: Sum(rhs),rhsMax =  -8.40926652199605E+01  1.50999953177195E+00
(PID.TID 0000.0001)  ploadbar=  1.01009185051752E+05
 cg2d: Sum(rhs),rhsMax =  -8.42936773137719E+01  1.50589924236235E+00
(PID.TID 0000.0001)  ploadbar=  1.01009414655718E+05
 cg2d: Sum(rhs),rhsMax =  -8.43910595562490E+01  1.50364760763482E+00
(PID.TID 0000.0001)  ploadbar=  1.01010056195046E+05
 cg2d: Sum(rhs),rhsMax =  -8.43793207887279E+01  1.50332167415460E+00
(PID.TID 0000.0001)  ploadbar=  1.01010697734373E+05
 cg2d: Sum(rhs),rhsMax =  -8.42921025268121E+01  1.50431588221203E+00
(PID.TID 0000.0001)  ploadbar=  1.01011339273701E+05
 cg2d: Sum(rhs),rhsMax =  -8.41841380209204E+01  1.50565294642822E+00
(PID.TID 0000.0001)  ploadbar=  1.01011980813028E+05
 cg2d: Sum(rhs),rhsMax =  -8.41142779689855E+01  1.50627963909962E+00
(PID.TID 0000.0001)  ploadbar=  1.01012622352356E+05
 cg2d: Sum(rhs),rhsMax =  -8.41256929210396E+01  1.50542047264784E+00
(PID.TID 0000.0001)  ploadbar=  1.01013263891684E+05
 cg2d: Sum(rhs),rhsMax =  -8.42208191396322E+01  1.50310511006132E+00
(PID.TID 0000.0001)  ploadbar=  1.01012232561383E+05
 cg2d: Sum(rhs),rhsMax =  -8.44164615441453E+01  1.49903664296054E+00
(PID.TID 0000.0001)  ploadbar=  1.01011201231082E+05
 cg2d: Sum(rhs),rhsMax =  -8.47095574894488E+01  1.49329137617854E+00
(PID.TID 0000.0001)  ploadbar=  1.01010169900781E+05
 cg2d: Sum(rhs),rhsMax =  -8.51406226345645E+01  1.48519220736045E+00
(PID.TID 0000.0001)  ploadbar=  1.01009138570480E+05
 cg2d: Sum(rhs),rhsMax =  -8.57319812549794E+01  1.47442299402241E+00
(PID.TID 0000.0001)  ploadbar=  1.01008107240180E+05
 cg2d: Sum(rhs),rhsMax =  -8.64432363963504E+01  1.46177401567965E+00
(PID.TID 0000.0001)  ploadbar=  1.01007075909879E+05
 cg2d: Sum(rhs),rhsMax =  -8.70332652050415E+01  1.45131138506150E+00
(PID.TID 0000.0001)  ploadbar=  1.01007186082476E+05
 cg2d: Sum(rhs),rhsMax =  -8.74651009619670E+01  1.44355347643838E+00
(PID.TID 0000.0001)  ploadbar=  1.01007296255072E+05
 cg2d: Sum(rhs),rhsMax =  -8.77255172667289E+01  1.43863333856772E+00
(PID.TID 0000.0001)  ploadbar=  1.01007406427669E+05
 cg2d: Sum(rhs),rhsMax =  -8.78679743950166E+01  1.43561857197491E+00
(PID.TID 0000.0001)  ploadbar=  1.01007516600266E+05
 cg2d: Sum(rhs),rhsMax =  -8.79638727573332E+01  1.43332022649418E+00
(PID.TID 0000.0001)  ploadbar=  1.01007626772863E+05
 cg2d: Sum(rhs),rhsMax =  -8.77357754901024E+01  1.43625668812282E+00
(PID.TID 0000.0001)  ploadbar=  1.01007736945460E+05
 cg2d: Sum(rhs),rhsMax =  -8.72799454814696E+01  1.44300674736291E+00
(PID.TID 0000.0001)  ploadbar=  1.01007281256670E+05
 cg2d: Sum(rhs),rhsMax =  -8.69017113416210E+01  1.44857301976631E+00
(PID.TID 0000.0001)  ploadbar=  1.01006825567880E+05
 cg2d: Sum(rhs),rhsMax =  -8.65980100767589E+01  1.45297266897445E+00
(PID.TID 0000.0001)  ploadbar=  1.01006369879090E+05
 cg2d: Sum(rhs),rhsMax =  -8.63579839179825E+01  1.45636004607090E+00
(PID.TID 0000.0001)  ploadbar=  1.01005914190300E+05
 cg2d: Sum(rhs),rhsMax =  -8.61899469690537E+01  1.45857229383640E+00
(PID.TID 0000.0001)  ploadbar=  1.01005458501511E+05
 cg2d: Sum(rhs),rhsMax =  -8.61581312348991E+01  1.45850000796884E+00
(PID.TID 0000.0001)  ploadbar=  1.01005002812721E+05
 cg2d: Sum(rhs),rhsMax =  -8.61272739781022E+01  1.45841778653258E+00
(PID.TID 0000.0001)  ploadbar=  1.01005219681515E+05
 cg2d: Sum(rhs),rhsMax =  -8.61480002287082E+01  1.45745906113118E+00
(PID.TID 0000.0001)  ploadbar=  1.01005436550310E+05
 cg2d: Sum(rhs),rhsMax =  -8.62103617543714E+01  1.45579047901848E+00
(PID.TID 0000.0001)  ploadbar=  1.01005653419105E+05
 cg2d: Sum(rhs),rhsMax =  -8.63098819778152E+01  1.45348771558524E+00
(PID.TID 0000.0001)  ploadbar=  1.01005870287900E+05
 cg2d: Sum(rhs),rhsMax =  -8.38971836208037E+01  1.49463290647528E+00
(PID.TID 0000.0001)  ploadbar=  1.01006087156694E+05
 cg2d: Sum(rhs),rhsMax =  -8.18733044910626E+01  1.53089654871032E+00
(PID.TID 0000.0001)  ploadbar=  1.01006304025489E+05
 cg2d: Sum(rhs),rhsMax =  -8.01651055238919E+01  1.56287034496689E+00
(PID.TID 0000.0001)  ploadbar=  1.01006653888064E+05
 cg2d: Sum(rhs),rhsMax =  -7.87692927332258E+01  1.58994925304702E+00
(PID.TID 0000.0001)  ploadbar=  1.01007003750640E+05
 cg2d: Sum(rhs),rhsMax =  -7.76154349964947E+01  1.61300024358765E+00
(PID.TID 0000.0001)  ploadbar=  1.01007353613215E+05
 cg2d: Sum(rhs),rhsMax =  -7.66907475540406E+01  1.63189216927570E+00
(PID.TID 0000.0001)  ploadbar=  1.01007703475790E+05
 cg2d: Sum(rhs),rhsMax =  -7.59530975049720E+01  1.64721025866572E+00
(PID.TID 0000.0001)  ploadbar=  1.01008053338366E+05
 cg2d: Sum(rhs),rhsMax =  -7.53635939832054E+01  1.65959194108490E+00
(PID.TID 0000.0001)  ploadbar=  1.01008403200941E+05
 cg2d: Sum(rhs),rhsMax =  -7.48417416732186E+01  1.67063126039544E+00
(PID.TID 0000.0001)  ploadbar=  1.01008588573197E+05
 cg2d: Sum(rhs),rhsMax =  -7.43791454696514E+01  1.68045108773122E+00
(PID.TID 0000.0001)  ploadbar=  1.01008773945452E+05
 cg2d: Sum(rhs),rhsMax =  -7.39754806499832E+01  1.68900824586795E+00
(PID.TID 0000.0001)  ploadbar=  1.01008959317708E+05
 cg2d: Sum(rhs),rhsMax =  -7.36367636603578E+01  1.69611970988625E+00
(PID.TID 0000.0001)  ploadbar=  1.01009144689964E+05
 cg2d: Sum(rhs),rhsMax =  -7.34300552664346E+01  1.70018931076791E+00
(PID.TID 0000.0001)  ploadbar=  1.01009330062220E+05
 cg2d: Sum(rhs),rhsMax =  -7.34419583851005E+01  1.69915989393556E+00
(PID.TID 0000.0001)  ploadbar=  1.01009515434476E+05
 cg2d: Sum(rhs),rhsMax =  -7.35764928242893E+01  1.69533790148682E+00
(PID.TID 0000.0001)  ploadbar=  1.01009338117609E+05
 cg2d: Sum(rhs),rhsMax =  -7.38244267153271E+01  1.68896148534858E+00
(PID.TID 0000.0001)  ploadbar=  1.01009160800742E+05
 cg2d: Sum(rhs),rhsMax =  -7.41134709138993E+01  1.68171923161282E+00
(PID.TID 0000.0001)  ploadbar=  1.01008983483875E+05
 cg2d: Sum(rhs),rhsMax =  -7.43486550210117E+01  1.67576320675116E+00
(PID.TID 0000.0001)  ploadbar=  1.01008806167008E+05
 cg2d: Sum(rhs),rhsMax =  -7.45784731545234E+01  1.66997095231923E+00
(PID.TID 0000.0001)  ploadbar=  1.01008628850141E+05
 cg2d: Sum(rhs),rhsMax =  -7.47747517499513E+01  1.66495830774752E+00
(PID.TID 0000.0001)  ploadbar=  1.01008451533274E+05
 cg2d: Sum(rhs),rhsMax =  -7.49395202037296E+01  1.66065716528098E+00
(PID.TID 0000.0001)  ploadbar=  1.01008344920993E+05
 cg2d: Sum(rhs),rhsMax =  -7.50475130556042E+01  1.65761196040914E+00
(PID.TID 0000.0001)  ploadbar=  1.01008238308713E+05
 cg2d: Sum(rhs),rhsMax =  -7.50586113552236E+01  1.65669311796902E+00
(PID.TID 0000.0001)  ploadbar=  1.01008131696432E+05
 cg2d: Sum(rhs),rhsMax =  -7.48415725371571E+01  1.66080246924617E+00
(PID.TID 0000.0001)  ploadbar=  1.01008025084151E+05
 cg2d: Sum(rhs),rhsMax =  -7.47020241304713E+01  1.66319146583713E+00
(PID.TID 0000.0001)  ploadbar=  1.01007918471871E+05
 cg2d: Sum(rhs),rhsMax =  -7.46615547420917E+01  1.66336684920848E+00
(PID.TID 0000.0001)  ploadbar=  1.01007811859590E+05
 cg2d: Sum(rhs),rhsMax =  -7.46830742880105E+01  1.66222872198463E+00
(PID.TID 0000.0001)  ploadbar=  1.01006176724662E+05
 cg2d: Sum(rhs),rhsMax =  -7.47605953970062E+01  1.65989754998041E+00
(PID.TID 0000.0001)  ploadbar=  1.01004541589734E+05
 cg2d: Sum(rhs),rhsMax =  -7.48618944736646E+01  1.65708623932176E+00
(PID.TID 0000.0001)  ploadbar=  1.01002906454807E+05
 cg2d: Sum(rhs),rhsMax =  -7.49823174895336E+01  1.65389922874729E+00
(PID.TID 0000.0001)  ploadbar=  1.01001271319879E+05
 cg2d: Sum(rhs),rhsMax =  -7.51173058429119E+01  1.65043849787025E+00
(PID.TID 0000.0001)  ploadbar=  1.00999636184951E+05
 cg2d: Sum(rhs),rhsMax =  -7.52205396456954E+01  1.64771919355367E+00
(PID.TID 0000.0001)  ploadbar=  1.00998001050023E+05
 cg2d: Sum(rhs),rhsMax =  -7.52878725471763E+01  1.64576367109463E+00
(PID.TID 0000.0001)  ploadbar=  1.00997569634129E+05
 cg2d: Sum(rhs),rhsMax =  -7.43693400448946E+01  1.66556681075272E+00
(PID.TID 0000.0001)  ploadbar=  1.00997138218234E+05
 cg2d: Sum(rhs),rhsMax =  -7.34556252364678E+01  1.68571529391534E+00
(PID.TID 0000.0001)  ploadbar=  1.00996706802340E+05
 cg2d: Sum(rhs),rhsMax =  -7.25867309474946E+01  1.70527254142251E+00
(PID.TID 0000.0001)  ploadbar=  1.00996275386445E+05
 cg2d: Sum(rhs),rhsMax =  -7.17554116280978E+01  1.72435312339381E+00
(PID.TID 0000.0001)  ploadbar=  1.00995843970551E+05
 cg2d: Sum(rhs),rhsMax =  -7.09664860905197E+01  1.74278770595531E+00
(PID.TID 0000.0001)  ploadbar=  1.00995412554656E+05
 cg2d: Sum(rhs),rhsMax =  -7.02166267814666E+01  1.76069210900228E+00
(PID.TID 0000.0001)  ploadbar=  1.00995176021064E+05
 cg2d: Sum(rhs),rhsMax =  -7.07984655971786E+01  1.74554718673617E+00
(PID.TID 0000.0001)  ploadbar=  1.00994939487472E+05
 cg2d: Sum(rhs),rhsMax =  -7.11947731723967E+01  1.73518307057233E+00
(PID.TID 0000.0001)  ploadbar=  1.00994702953881E+05
 cg2d: Sum(rhs),rhsMax =  -7.15218336896823E+01  1.72662322055588E+00
(PID.TID 0000.0001)  ploadbar=  1.00994466420289E+05
 cg2d: Sum(rhs),rhsMax =  -7.18441114285477E+01  1.71826857722310E+00
(PID.TID 0000.0001)  ploadbar=  1.00994229886697E+05
 cg2d: Sum(rhs),rhsMax =  -7.21600550451813E+01  1.71013981359540E+00
(PID.TID 0000.0001)  ploadbar=  1.00993993353105E+05
 cg2d: Sum(rhs),rhsMax =  -7.24582837552587E+01  1.70249857106408E+00
(PID.TID 0000.0001)  ploadbar=  1.00993566290419E+05
 cg2d: Sum(rhs),rhsMax =  -7.27485734833718E+01  1.69510167946167E+00
(PID.TID 0000.0001)  ploadbar=  1.00993139227732E+05
 cg2d: Sum(rhs),rhsMax =  -7.30274642671788E+01  1.68801924571919E+00
(PID.TID 0000.0001)  ploadbar=  1.00992712165046E+05
 cg2d: Sum(rhs),rhsMax =  -7.30117392970201E+01  1.68776326665562E+00
(PID.TID 0000.0001)  ploadbar=  1.00992285102359E+05
 cg2d: Sum(rhs),rhsMax =  -7.28785997967069E+01  1.69021480019480E+00
(PID.TID 0000.0001)  ploadbar=  1.00991858039673E+05
 cg2d: Sum(rhs),rhsMax =  -7.27879277628188E+01  1.69167659323292E+00
(PID.TID 0000.0001)  ploadbar=  1.00991430976986E+05
 cg2d: Sum(rhs),rhsMax =  -7.27439727622498E+01  1.69208269540473E+00
(PID.TID 0000.0001)  ploadbar=  1.00991302255753E+05
 cg2d: Sum(rhs),rhsMax =  -7.27591908660210E+01  1.69111925240042E+00
(PID.TID 0000.0001)  ploadbar=  1.00991173534520E+05
 cg2d: Sum(rhs),rhsMax =  -7.28336705319750E+01  1.68877951278626E+00
(PID.TID 0000.0001)  ploadbar=  1.00991044813287E+05
 cg2d: Sum(rhs),rhsMax =  -7.29622845804531E+01  1.68518817093770E+00
(PID.TID 0000.0001)  ploadbar=  1.00990916092054E+05
 cg2d: Sum(rhs),rhsMax =  -7.31367161219627E+01  1.68054997004083E+00
(PID.TID 0000.0001)  ploadbar=  1.00990787370821E+05
 cg2d: Sum(rhs),rhsMax =  -7.34123751439033E+01  1.67361459053857E+00
(PID.TID 0000.0001)  ploadbar=  1.00990658649588E+05
 cg2d: Sum(rhs),rhsMax =  -7.35872055735179E+01  1.66898716361822E+00
(PID.TID 0000.0001)  ploadbar=  1.00991150435881E+05
 cg2d: Sum(rhs),rhsMax =  -7.34096092190874E+01  1.67233941179616E+00
(PID.TID 0000.0001)  ploadbar=  1.00991642222175E+05
 cg2d: Sum(rhs),rhsMax =  -7.32367076662197E+01  1.67556157262940E+00
(PID.TID 0000.0001)  ploadbar=  1.00992134008468E+05
 cg2d: Sum(rhs),rhsMax =  -7.30926405407329E+01  1.67809265933460E+00
(PID.TID 0000.0001)  ploadbar=  1.00992625794762E+05
 cg2d: Sum(rhs),rhsMax =  -7.29513651743706E+01  1.68052101163597E+00
(PID.TID 0000.0001)  ploadbar=  1.00993117581055E+05
 cg2d: Sum(rhs),rhsMax =  -7.28115904391733E+01  1.68287171667435E+00
(PID.TID 0000.0001)  ploadbar=  1.00993609367348E+05
 cg2d: Sum(rhs),rhsMax =  -7.26733023928968E+01  1.68524724301326E+00
(PID.TID 0000.0001)  ploadbar=  1.00994272671245E+05
 cg2d: Sum(rhs),rhsMax =  -7.25046784367231E+01  1.68838114349749E+00
(PID.TID 0000.0001)  ploadbar=  1.00994935975142E+05
 cg2d: Sum(rhs),rhsMax =  -7.23118959953943E+01  1.69213865147138E+00
(PID.TID 0000.0001)  ploadbar=  1.00995599279038E+05
 cg2d: Sum(rhs),rhsMax =  -7.21367392610993E+01  1.69554348566915E+00
(PID.TID 0000.0001)  ploadbar=  1.00996262582935E+05
 cg2d: Sum(rhs),rhsMax =  -7.20252862954619E+01  1.69749338582553E+00
(PID.TID 0000.0001)  ploadbar=  1.00996925886832E+05
 cg2d: Sum(rhs),rhsMax =  -7.19992451804645E+01  1.69745493966331E+00
(PID.TID 0000.0001)  ploadbar=  1.00997589190728E+05
 cg2d: Sum(rhs),rhsMax =  -7.19684794179788E+01  1.69752211125903E+00
(PID.TID 0000.0001)  ploadbar=  1.00999434833049E+05
 cg2d: Sum(rhs),rhsMax =  -7.19602258384636E+01  1.69704709003053E+00
(PID.TID 0000.0001)  ploadbar=  1.01001280475370E+05
 cg2d: Sum(rhs),rhsMax =  -7.19784692053540E+01  1.69592901014952E+00
(PID.TID 0000.0001)  ploadbar=  1.01003126117691E+05
 cg2d: Sum(rhs),rhsMax =  -7.20203098746352E+01  1.69423437176335E+00
(PID.TID 0000.0001)  ploadbar=  1.01004971760011E+05
 cg2d: Sum(rhs),rhsMax =  -7.20880419745260E+01  1.69191150761169E+00
(PID.TID 0000.0001)  ploadbar=  1.01006817402332E+05
 cg2d: Sum(rhs),rhsMax =  -7.21833090719365E+01  1.68892860029818E+00
(PID.TID 0000.0001)  ploadbar=  1.01008663044653E+05
 cg2d: Sum(rhs),rhsMax =  -7.23159661102857E+01  1.68514039305141E+00
(PID.TID 0000.0001)  ploadbar=  1.01009516014276E+05
 cg2d: Sum(rhs),rhsMax =  -7.24553159913888E+01  1.68125186463632E+00
(PID.TID 0000.0001)  ploadbar=  1.01010368983900E+05
 cg2d: Sum(rhs),rhsMax =  -7.25909361472364E+01  1.67750305671000E+00
(PID.TID 0000.0001)  ploadbar=  1.01011221953524E+05
 cg2d: Sum(rhs),rhsMax =  -7.27161983793633E+01  1.67404353441981E+00
(PID.TID 0000.0001)  ploadbar=  1.01012074923147E+05
 cg2d: Sum(rhs),rhsMax =  -7.28604832522930E+01  1.67019699234325E+00
(PID.TID 0000.0001)  ploadbar=  1.01012927892771E+05
 cg2d: Sum(rhs),rhsMax =  -7.30281036102768E+01  1.66586434133419E+00
(PID.TID 0000.0001)  ploadbar=  1.01013780862395E+05
 cg2d: Sum(rhs),rhsMax =  -7.31552451558835E+01  1.66244094975815E+00
(PID.TID 0000.0001)  ploadbar=  1.01012978704038E+05
 cg2d: Sum(rhs),rhsMax =  -7.32645431771287E+01  1.65940136213120E+00
(PID.TID 0000.0001)  ploadbar=  1.01012176545682E+05
 cg2d: Sum(rhs),rhsMax =  -7.33642421073666E+01  1.65655177118782E+00
(PID.TID 0000.0001)  ploadbar=  1.01011374387326E+05
 cg2d: Sum(rhs),rhsMax =  -7.34724932489484E+01  1.65347820361826E+00
(PID.TID 0000.0001)  ploadbar=  1.01010572228969E+05
 cg2d: Sum(rhs),rhsMax =  -7.36021083053626E+01  1.64989123987982E+00
(PID.TID 0000.0001)  ploadbar=  1.01009770070613E+05
 cg2d: Sum(rhs),rhsMax =  -7.37563516105170E+01  1.64571995236817E+00
(PID.TID 0000.0001)  ploadbar=  1.01008967912257E+05
 cg2d: Sum(rhs),rhsMax =  -7.38915283691369E+01  1.64202814357681E+00
(PID.TID 0000.0001)  ploadbar=  1.01007902221550E+05
 cg2d: Sum(rhs),rhsMax =  -7.39835839319585E+01  1.63933963380802E+00
(PID.TID 0000.0001)  ploadbar=  1.01006836530843E+05
 cg2d: Sum(rhs),rhsMax =  -7.40167770663146E+01  1.63798881229362E+00
(PID.TID 0000.0001)  ploadbar=  1.01005770840136E+05
 cg2d: Sum(rhs),rhsMax =  -7.40252477146485E+01  1.63721105013789E+00
(PID.TID 0000.0001)  ploadbar=  1.01004705149429E+05
 cg2d: Sum(rhs),rhsMax =  -7.40136535146769E+01  1.63689758835781E+00
(PID.TID 0000.0001)  ploadbar=  1.01003639458722E+05
 cg2d: Sum(rhs),rhsMax =  -7.39996451515461E+01  1.63665495364197E+00
(PID.TID 0000.0001)  ploadbar=  1.01002573768016E+05
 cg2d: Sum(rhs),rhsMax =  -7.39605352271950E+01  1.63695330851509E+00
(PID.TID 0000.0001)  ploadbar=  1.01001160029187E+05
 cg2d: Sum(rhs),rhsMax =  -7.38923139103881E+01  1.63787579730981E+00
(PID.TID 0000.0001)  ploadbar=  1.00999746290358E+05
 cg2d: Sum(rhs),rhsMax =  -7.37951964521793E+01  1.63941626891189E+00
(PID.TID 0000.0001)  ploadbar=  1.00998332551530E+05
 cg2d: Sum(rhs),rhsMax =  -7.36741868848179E+01  1.64146379209140E+00
(PID.TID 0000.0001)  ploadbar=  1.00996918812701E+05
 cg2d: Sum(rhs),rhsMax =  -7.35354622781655E+01  1.64388466832576E+00
(PID.TID 0000.0001)  ploadbar=  1.00995505073873E+05
 cg2d: Sum(rhs),rhsMax =  -7.33973602732813E+01  1.64627662971284E+00
(PID.TID 0000.0001)  ploadbar=  1.00994091335044E+05
 cg2d: Sum(rhs),rhsMax =  -7.32704910003153E+01  1.64848224356810E+00
(PID.TID 0000.0001)  ploadbar=  1.00993687957754E+05
 cg2d: Sum(rhs),rhsMax =  -7.31491548814678E+01  1.65061721850967E+00
(PID.TID 0000.0001)  ploadbar=  1.00993284580463E+05
 cg2d: Sum(rhs),rhsMax =  -7.30389757007126E+01  1.65254977758141E+00
(PID.TID 0000.0001)  ploadbar=  1.00992881203173E+05
 cg2d: Sum(rhs),rhsMax =  -7.29387147930925E+01  1.65430393342963E+00
(PID.TID 0000.0001)  ploadbar=  1.00992477825883E+05
 cg2d: Sum(rhs),rhsMax =  -7.28872389152812E+01  1.65499167432359E+00
(PID.TID 0000.0001)  ploadbar=  1.00992074448592E+05
 cg2d: Sum(rhs),rhsMax =  -7.28958336011138E+01  1.65434960416464E+00
(PID.TID 0000.0001)  ploadbar=  1.00991671071302E+05
 cg2d: Sum(rhs),rhsMax =  -7.28699821564510E+01  1.65446973677554E+00
(PID.TID 0000.0001)  ploadbar=  1.00992372901243E+05
 cg2d: Sum(rhs),rhsMax =  -7.28103540773774E+01  1.65533241802496E+00
(PID.TID 0000.0001)  ploadbar=  1.00993074731184E+05
 cg2d: Sum(rhs),rhsMax =  -7.26483010577407E+01  1.65850066789762E+00
(PID.TID 0000.0001)  ploadbar=  1.00993776561125E+05
 cg2d: Sum(rhs),rhsMax =  -7.24370332606221E+01  1.66277768343099E+00
(PID.TID 0000.0001)  ploadbar=  1.00994478391067E+05
 cg2d: Sum(rhs),rhsMax =  -7.22248311160031E+01  1.66706132717121E+00
(PID.TID 0000.0001)  ploadbar=  1.00995180221008E+05
 cg2d: Sum(rhs),rhsMax =  -7.20431744715505E+01  1.67061652745480E+00
(PID.TID 0000.0001)  ploadbar=  1.00995882050949E+05
 cg2d: Sum(rhs),rhsMax =  -7.19286191800257E+01  1.67264675838518E+00
(PID.TID 0000.0001)  ploadbar=  1.00995987467059E+05
 cg2d: Sum(rhs),rhsMax =  -7.20752220196264E+01  1.66863086603059E+00
(PID.TID 0000.0001)  ploadbar=  1.00996092883169E+05
 cg2d: Sum(rhs),rhsMax =  -7.22280845513580E+01  1.66449710384406E+00
(PID.TID 0000.0001)  ploadbar=  1.00996198299279E+05
 cg2d: Sum(rhs),rhsMax =  -7.23853551327829E+01  1.66028210323410E+00
(PID.TID 0000.0001)  ploadbar=  1.00996303715389E+05
 cg2d: Sum(rhs),rhsMax =  -7.25873370023530E+01  1.65505880249682E+00
(PID.TID 0000.0001)  ploadbar=  1.00996409131499E+05
 cg2d: Sum(rhs),rhsMax =  -7.28171694861068E+01  1.64922014290734E+00
(PID.TID 0000.0001)  ploadbar=  1.00996514547609E+05
 cg2d: Sum(rhs),rhsMax =  -7.30302234743390E+01  1.64379329777420E+00
(PID.TID 0000.0001)  ploadbar=  1.00997443992891E+05
 cg2d: Sum(rhs),rhsMax =  -7.32309160214371E+01  1.63866732328247E+00
(PID.TID 0000.0001)  ploadbar=  1.00998373438173E+05
 cg2d: Sum(rhs),rhsMax =  -7.34202556522853E+01  1.63381217949380E+00
(PID.TID 0000.0001)  ploadbar=  1.00999302883455E+05
 cg2d: Sum(rhs),rhsMax =  -7.35999268442855E+01  1.62918098089824E+00
(PID.TID 0000.0001)  ploadbar=  1.01000232328737E+05
 cg2d: Sum(rhs),rhsMax =  -7.37725732216312E+01  1.62470977263648E+00
(PID.TID 0000.0001)  ploadbar=  1.01001161774019E+05
 cg2d: Sum(rhs),rhsMax =  -7.39394277733270E+01  1.62037022388778E+00
(PID.TID 0000.0001)  ploadbar=  1.01002091219301E+05
 cg2d: Sum(rhs),rhsMax =  -7.40911801854887E+01  1.61641410045058E+00
(PID.TID 0000.0001)  ploadbar=  1.01005213665892E+05
 cg2d: Sum(rhs),rhsMax =  -7.42338828014970E+01  1.61269410665009E+00
(PID.TID 0000.0001)  ploadbar=  1.01008336112482E+05
 cg2d: Sum(rhs),rhsMax =  -7.43723395539632E+01  1.60910306705672E+00
(PID.TID 0000.0001)  ploadbar=  1.01011458559073E+05
 cg2d: Sum(rhs),rhsMax =  -7.45041119804618E+01  1.60568854319513E+00
(PID.TID 0000.0001)  ploadbar=  1.01014581005664E+05
 cg2d: Sum(rhs),rhsMax =  -7.45887822649491E+01  1.60331584731855E+00
(PID.TID 0000.0001)  ploadbar=  1.01017703452255E+05
 cg2d: Sum(rhs),rhsMax =  -7.47049324009172E+01  1.60028759725095E+00
(PID.TID 0000.0001)  ploadbar=  1.01020825898845E+05
 cg2d: Sum(rhs),rhsMax =  -7.48065380094635E+01  1.59755362722168E+00
(PID.TID 0000.0001)  ploadbar=  1.01022076509501E+05
 cg2d: Sum(rhs),rhsMax =  -7.49012736581203E+01  1.59494007308342E+00
(PID.TID 0000.0001)  ploadbar=  1.01023327120156E+05
 cg2d: Sum(rhs),rhsMax =  -7.50020913896681E+01  1.59216635801398E+00
(PID.TID 0000.0001)  ploadbar=  1.01024577730811E+05
 cg2d: Sum(rhs),rhsMax =  -7.50789803681529E+01  1.58986379588919E+00
(PID.TID 0000.0001)  ploadbar=  1.01025828341467E+05
 cg2d: Sum(rhs),rhsMax =  -7.48288718486998E+01  1.59445859152270E+00
(PID.TID 0000.0001)  ploadbar=  1.01027078952122E+05
 cg2d: Sum(rhs),rhsMax =  -7.46036146863551E+01  1.59850526819387E+00
(PID.TID 0000.0001)  ploadbar=  1.01028329562777E+05
 cg2d: Sum(rhs),rhsMax =  -7.43076063061932E+01  1.60413507276470E+00
(PID.TID 0000.0001)  ploadbar=  1.01030123630907E+05
 cg2d: Sum(rhs),rhsMax =  -7.40528013548409E+01  1.60894271272115E+00
(PID.TID 0000.0001)  ploadbar=  1.01031917699036E+05
 cg2d: Sum(rhs),rhsMax =  -7.38360342894571E+01  1.61297619437691E+00
(PID.TID 0000.0001)  ploadbar=  1.01033711767165E+05
 cg2d: Sum(rhs),rhsMax =  -7.36579666061235E+01  1.61620196465183E+00
(PID.TID 0000.0001)  ploadbar=  1.01035505835295E+05
 cg2d: Sum(rhs),rhsMax =  -7.35469825575040E+01  1.61797793406168E+00
(PID.TID 0000.0001)  ploadbar=  1.01037299903424E+05
 cg2d: Sum(rhs),rhsMax =  -7.34809574370229E+01  1.61877885490242E+00
(PID.TID 0000.0001)  ploadbar=  1.01039093971553E+05
 cg2d: Sum(rhs),rhsMax =  -7.34173630785149E+01  1.61954645463182E+00
(PID.TID 0000.0001)  ploadbar=  1.01039805291665E+05
 cg2d: Sum(rhs),rhsMax =  -7.33383487276430E+01  1.62066728223992E+00
(PID.TID 0000.0001)  ploadbar=  1.01040516611777E+05
 cg2d: Sum(rhs),rhsMax =  -7.32416509637645E+01  1.62219565609978E+00
(PID.TID 0000.0001)  ploadbar=  1.01041227931890E+05
 cg2d: Sum(rhs),rhsMax =  -7.31281693298840E+01  1.62411768923415E+00
(PID.TID 0000.0001)  ploadbar=  1.01041939252002E+05
 cg2d: Sum(rhs),rhsMax =  -7.30000135172375E+01  1.62638098224766E+00
(PID.TID 0000.0001)  ploadbar=  1.01042650572114E+05
 cg2d: Sum(rhs),rhsMax =  -7.28639184976285E+01  1.62883106670134E+00
(PID.TID 0000.0001)  ploadbar=  1.01043361892226E+05
 cg2d: Sum(rhs),rhsMax =  -7.27307129888053E+01  1.63125553292567E+00
(PID.TID 0000.0001)  ploadbar=  1.01043076522375E+05
 cg2d: Sum(rhs),rhsMax =  -7.27975351468252E+01  1.62922742388170E+00
(PID.TID 0000.0001)  ploadbar=  1.01042791152524E+05
 cg2d: Sum(rhs),rhsMax =  -7.30895326563269E+01  1.62221330430754E+00
(PID.TID 0000.0001)  ploadbar=  1.01042505782673E+05
 cg2d: Sum(rhs),rhsMax =  -7.33743847131465E+01  1.61543295585535E+00
(PID.TID 0000.0001)  ploadbar=  1.01042220412822E+05
 cg2d: Sum(rhs),rhsMax =  -7.36698921948070E+01  1.60848862966849E+00
(PID.TID 0000.0001)  ploadbar=  1.01041935042971E+05
 cg2d: Sum(rhs),rhsMax =  -7.39412504543906E+01  1.60213368827440E+00
(PID.TID 0000.0001)  ploadbar=  1.01041649673120E+05
 cg2d: Sum(rhs),rhsMax =  -7.42062206528986E+01  1.59595054595911E+00
(PID.TID 0000.0001)  ploadbar=  1.01041555708217E+05
 cg2d: Sum(rhs),rhsMax =  -7.44694134958825E+01  1.58983426531132E+00
(PID.TID 0000.0001)  ploadbar=  1.01041461743314E+05
 cg2d: Sum(rhs),rhsMax =  -7.47178810885425E+01  1.58405901213439E+00
(PID.TID 0000.0001)  ploadbar=  1.01041367778411E+05
 cg2d: Sum(rhs),rhsMax =  -7.49350915930573E+01  1.57896373526328E+00
(PID.TID 0000.0001)  ploadbar=  1.01041273813508E+05
 cg2d: Sum(rhs),rhsMax =  -7.51092837585105E+01  1.57478043789304E+00
(PID.TID 0000.0001)  ploadbar=  1.01041179848605E+05
 cg2d: Sum(rhs),rhsMax =  -7.52294334060047E+01  1.57172026472295E+00
(PID.TID 0000.0001)  ploadbar=  1.01041085883702E+05
 cg2d: Sum(rhs),rhsMax =  -7.53580197926992E+01  1.56850372040727E+00
(PID.TID 0000.0001)  ploadbar=  1.01041933638959E+05
 cg2d: Sum(rhs),rhsMax =  -7.55889328245862E+01  1.56319044288938E+00
(PID.TID 0000.0001)  ploadbar=  1.01042781394216E+05
 cg2d: Sum(rhs),rhsMax =  -7.58837055715351E+01  1.55660736095581E+00
(PID.TID 0000.0001)  ploadbar=  1.01043629149473E+05
 cg2d: Sum(rhs),rhsMax =  -7.62530678817713E+01  1.54856652752437E+00
(PID.TID 0000.0001)  ploadbar=  1.01044476904730E+05
 cg2d: Sum(rhs),rhsMax =  -7.67205584991005E+01  1.53863804420323E+00
(PID.TID 0000.0001)  ploadbar=  1.01045324659988E+05
 cg2d: Sum(rhs),rhsMax =  -7.73078918630598E+01  1.52645710890638E+00
(PID.TID 0000.0001)  ploadbar=  1.01046172415245E+05
 cg2d: Sum(rhs),rhsMax =  -7.79694142985142E+01  1.51300061344731E+00
(PID.TID 0000.0001)  ploadbar=  1.01047186479165E+05
 cg2d: Sum(rhs),rhsMax =  -7.86708137311993E+01  1.49898976033207E+00
(PID.TID 0000.0001)  ploadbar=  1.01048200543086E+05
 cg2d: Sum(rhs),rhsMax =  -7.93695807775469E+01  1.48525177609454E+00
(PID.TID 0000.0001)  ploadbar=  1.01049214607006E+05
 cg2d: Sum(rhs),rhsMax =  -8.00182841478050E+01  1.47264756478039E+00
(PID.TID 0000.0001)  ploadbar=  1.01050228670927E+05
 cg2d: Sum(rhs),rhsMax =  -8.05781868535931E+01  1.46182731956891E+00
(PID.TID 0000.0001)  ploadbar=  1.01051242734847E+05
 cg2d: Sum(rhs),rhsMax =  -8.10261216503167E+01  1.45313070353057E+00
(PID.TID 0000.0001)  ploadbar=  1.01052256798768E+05
 cg2d: Sum(rhs),rhsMax =  -8.11337086006476E+01  1.45061399765691E+00
(PID.TID 0000.0001)  ploadbar=  1.01053097242186E+05
 cg2d: Sum(rhs),rhsMax =  -8.05875151043379E+01  1.45987142735778E+00
(PID.TID 0000.0001)  ploadbar=  1.01053937685603E+05
 cg2d: Sum(rhs),rhsMax =  -8.00423461517275E+01  1.46924921616624E+00
(PID.TID 0000.0001)  ploadbar=  1.01054778129020E+05
 cg2d: Sum(rhs),rhsMax =  -7.94615796979273E+01  1.47942669862981E+00
(PID.TID 0000.0001)  ploadbar=  1.01055618572438E+05
 cg2d: Sum(rhs),rhsMax =  -7.88227139926271E+01  1.49085270534123E+00
(PID.TID 0000.0001)  ploadbar=  1.01056459015855E+05
 cg2d: Sum(rhs),rhsMax =  -7.82556823890179E+01  1.50108057276443E+00
(PID.TID 0000.0001)  ploadbar=  1.01057299459273E+05
 cg2d: Sum(rhs),rhsMax =  -7.76976775773061E+01  1.51124809458922E+00
(PID.TID 0000.0001)  ploadbar=  1.01058293878541E+05
 cg2d: Sum(rhs),rhsMax =  -7.71910468264968E+01  1.52051174015610E+00
(PID.TID 0000.0001)  ploadbar=  1.01059288297810E+05
 cg2d: Sum(rhs),rhsMax =  -7.67306232949644E+01  1.52893303614244E+00
(PID.TID 0000.0001)  ploadbar=  1.01060282717079E+05
 cg2d: Sum(rhs),rhsMax =  -7.63189026908352E+01  1.53642875819462E+00
(PID.TID 0000.0001)  ploadbar=  1.01061277136347E+05
 cg2d: Sum(rhs),rhsMax =  -7.59533606308792E+01  1.54301703763125E+00
(PID.TID 0000.0001)  ploadbar=  1.01062271555616E+05
 cg2d: Sum(rhs),rhsMax =  -7.56300746631728E+01  1.54874643045277E+00
(PID.TID 0000.0001)  ploadbar=  1.01063265974885E+05
 cg2d: Sum(rhs),rhsMax =  -7.53274704897928E+01  1.55415016008937E+00
(PID.TID 0000.0001)  ploadbar=  1.01063887630204E+05
 cg2d: Sum(rhs),rhsMax =  -7.50204809533225E+01  1.55973545899948E+00
(PID.TID 0000.0001)  ploadbar=  1.01064509285523E+05
 cg2d: Sum(rhs),rhsMax =  -7.47537898199536E+01  1.56456344196359E+00
(PID.TID 0000.0001)  ploadbar=  1.01065130940842E+05
 cg2d: Sum(rhs),rhsMax =  -7.45195436711362E+01  1.56877588762185E+00
(PID.TID 0000.0001)  ploadbar=  1.01065752596161E+05
 cg2d: Sum(rhs),rhsMax =  -7.43100897693952E+01  1.57251656125370E+00
(PID.TID 0000.0001)  ploadbar=  1.01066374251480E+05
 cg2d: Sum(rhs),rhsMax =  -7.41177929569493E+01  1.57593549650393E+00
(PID.TID 0000.0001)  ploadbar=  1.01066995906799E+05
 cg2d: Sum(rhs),rhsMax =  -7.38582817336440E+01  1.58079940547224E+00
(PID.TID 0000.0001)  ploadbar=  1.01068030985796E+05
 cg2d: Sum(rhs),rhsMax =  -7.44351699169753E+01  1.56786991965359E+00
(PID.TID 0000.0001)  ploadbar=  1.01069066064793E+05
 cg2d: Sum(rhs),rhsMax =  -7.54788337639823E+01  1.54551424434788E+00
(PID.TID 0000.0001)  ploadbar=  1.01070101143790E+05
 cg2d: Sum(rhs),rhsMax =  -7.66417234898983E+01  1.52138235800977E+00
(PID.TID 0000.0001)  ploadbar=  1.01071136222787E+05
 cg2d: Sum(rhs),rhsMax =  -7.78762641812738E+01  1.49657654507432E+00
(PID.TID 0000.0001)  ploadbar=  1.01072171301784E+05
 cg2d: Sum(rhs),rhsMax =  -7.91334753230554E+01  1.47210486801372E+00
(PID.TID 0000.0001)  ploadbar=  1.01073206380781E+05
 cg2d: Sum(rhs),rhsMax =  -8.04008811336266E+01  1.44826645964201E+00
(PID.TID 0000.0001)  ploadbar=  1.01074601373780E+05
 cg2d: Sum(rhs),rhsMax =  -8.15582616198007E+01  1.42713647294633E+00
(PID.TID 0000.0001)  ploadbar=  1.01075996366778E+05
 cg2d: Sum(rhs),rhsMax =  -8.25903927867260E+01  1.40877303532812E+00
(PID.TID 0000.0001)  ploadbar=  1.01077391359777E+05
 cg2d: Sum(rhs),rhsMax =  -8.35025934030169E+01  1.39289916625509E+00
(PID.TID 0000.0001)  ploadbar=  1.01078786352776E+05
 cg2d: Sum(rhs),rhsMax =  -8.29864979516334E+01  1.40110882621236E+00
(PID.TID 0000.0001)  ploadbar=  1.01080181345775E+05
 cg2d: Sum(rhs),rhsMax =  -8.21927957231771E+01  1.41421196163627E+00
(PID.TID 0000.0001)  ploadbar=  1.01081576338773E+05
 cg2d: Sum(rhs),rhsMax =  -8.14707198117476E+01  1.42628806016000E+00
(PID.TID 0000.0001)  ploadbar=  1.01082180847726E+05
 cg2d: Sum(rhs),rhsMax =  -8.08070832783083E+01  1.43750810006471E+00
(PID.TID 0000.0001)  ploadbar=  1.01082785356679E+05
 cg2d: Sum(rhs),rhsMax =  -8.01875178417169E+01  1.44808151569180E+00
(PID.TID 0000.0001)  ploadbar=  1.01083389865632E+05
 cg2d: Sum(rhs),rhsMax =  -7.96071378166290E+01  1.45805815499579E+00
(PID.TID 0000.0001)  ploadbar=  1.01083994374585E+05
 cg2d: Sum(rhs),rhsMax =  -7.90609447120623E+01  1.46750020866865E+00
(PID.TID 0000.0001)  ploadbar=  1.01084598883538E+05
 cg2d: Sum(rhs),rhsMax =  -7.85461672725941E+01  1.47643489300207E+00
(PID.TID 0000.0001)  ploadbar=  1.01085203392491E+05
 cg2d: Sum(rhs),rhsMax =  -7.79798132294102E+01  1.48649901736467E+00
(PID.TID 0000.0001)  ploadbar=  1.01085876466224E+05
 cg2d: Sum(rhs),rhsMax =  -7.73905444431012E+01  1.49717560916430E+00
(PID.TID 0000.0001)  ploadbar=  1.01086549539957E+05
 cg2d: Sum(rhs),rhsMax =  -7.68302713643159E+01  1.50746360040495E+00
(PID.TID 0000.0001)  ploadbar=  1.01087222613690E+05
 cg2d: Sum(rhs),rhsMax =  -7.62980509030881E+01  1.51735911692725E+00
(PID.TID 0000.0001)  ploadbar=  1.01087895687423E+05
 cg2d: Sum(rhs),rhsMax =  -7.57922320400944E+01  1.52687032972839E+00
(PID.TID 0000.0001)  ploadbar=  1.01088568761156E+05
 cg2d: Sum(rhs),rhsMax =  -7.53093785873693E+01  1.53604537898191E+00
(PID.TID 0000.0001)  ploadbar=  1.01089241834889E+05
 cg2d: Sum(rhs),rhsMax =  -7.48256372961503E+01  1.54535831327313E+00
(PID.TID 0000.0001)  ploadbar=  1.01088694311032E+05
 cg2d: Sum(rhs),rhsMax =  -7.43279138203118E+01  1.55508575965805E+00
(PID.TID 0000.0001)  ploadbar=  1.01088146787176E+05
 cg2d: Sum(rhs),rhsMax =  -7.38080710162453E+01  1.56541196937103E+00
(PID.TID 0000.0001)  ploadbar=  1.01087599263319E+05
 cg2d: Sum(rhs),rhsMax =  -7.32685602786247E+01  1.57630480931252E+00
(PID.TID 0000.0001)  ploadbar=  1.01087051739463E+05
 cg2d: Sum(rhs),rhsMax =  -7.27254356699696E+01  1.58743529201848E+00
(PID.TID 0000.0001)  ploadbar=  1.01086504215607E+05
 cg2d: Sum(rhs),rhsMax =  -7.23802342628911E+01  1.59436037829117E+00
(PID.TID 0000.0001)  ploadbar=  1.01085956691750E+05
 cg2d: Sum(rhs),rhsMax =  -7.25327967130550E+01  1.59040624941152E+00
(PID.TID 0000.0001)  ploadbar=  1.01085289453685E+05
 cg2d: Sum(rhs),rhsMax =  -7.25769539012412E+01  1.58887166098542E+00
(PID.TID 0000.0001)  ploadbar=  1.01084622215621E+05
 cg2d: Sum(rhs),rhsMax =  -7.25674503394083E+01  1.58853976845709E+00
(PID.TID 0000.0001)  ploadbar=  1.01083954977556E+05
 cg2d: Sum(rhs),rhsMax =  -7.25648719572509E+01  1.58807695771088E+00
(PID.TID 0000.0001)  ploadbar=  1.01083287739491E+05
 cg2d: Sum(rhs),rhsMax =  -7.25933726942350E+01  1.58694841932451E+00
(PID.TID 0000.0001)  ploadbar=  1.01082620501426E+05
 cg2d: Sum(rhs),rhsMax =  -7.27127122105362E+01  1.58384741117830E+00
(PID.TID 0000.0001)  ploadbar=  1.01081953263362E+05
 cg2d: Sum(rhs),rhsMax =  -7.29392173597583E+01  1.57839596649589E+00
(PID.TID 0000.0001)  ploadbar=  1.01081310934051E+05
 cg2d: Sum(rhs),rhsMax =  -7.33558772366077E+01  1.56885925581415E+00
(PID.TID 0000.0001)  ploadbar=  1.01080668604740E+05
 cg2d: Sum(rhs),rhsMax =  -7.39359351050241E+01  1.55594055944761E+00
(PID.TID 0000.0001)  ploadbar=  1.01080026275429E+05
 cg2d: Sum(rhs),rhsMax =  -7.46090672299770E+01  1.54125084832823E+00
(PID.TID 0000.0001)  ploadbar=  1.01079383946119E+05
 cg2d: Sum(rhs),rhsMax =  -7.53315074558321E+01  1.52577196295614E+00
(PID.TID 0000.0001)  ploadbar=  1.01078741616808E+05
 cg2d: Sum(rhs),rhsMax =  -7.60712338757963E+01  1.51018785618847E+00
(PID.TID 0000.0001)  ploadbar=  1.01078099287497E+05
 cg2d: Sum(rhs),rhsMax =  -7.56015002869543E+01  1.51883487732628E+00
(PID.TID 0000.0001)  ploadbar=  1.01077135315459E+05
 cg2d: Sum(rhs),rhsMax =  -7.48849336498578E+01  1.53263817977026E+00
(PID.TID 0000.0001)  ploadbar=  1.01076171343420E+05
 cg2d: Sum(rhs),rhsMax =  -7.42234860280465E+01  1.54556970648232E+00
(PID.TID 0000.0001)  ploadbar=  1.01075207371382E+05
 cg2d: Sum(rhs),rhsMax =  -7.36017527594760E+01  1.55789863739701E+00
(PID.TID 0000.0001)  ploadbar=  1.01074243399343E+05
 cg2d: Sum(rhs),rhsMax =  -7.29970900652569E+01  1.57007093580729E+00
(PID.TID 0000.0001)  ploadbar=  1.01073279427304E+05
 cg2d: Sum(rhs),rhsMax =  -7.23805100436144E+01  1.58270165581446E+00
(PID.TID 0000.0001)  ploadbar=  1.01072315455266E+05
 cg2d: Sum(rhs),rhsMax =  -7.17554805325638E+01  1.59573801479805E+00
(PID.TID 0000.0001)  ploadbar=  1.01071801707993E+05
 cg2d: Sum(rhs),rhsMax =  -7.11349083537185E+01  1.60890210633022E+00
(PID.TID 0000.0001)  ploadbar=  1.01071287960721E+05
 cg2d: Sum(rhs),rhsMax =  -7.21113595331757E+01  1.58636873551147E+00
(PID.TID 0000.0001)  ploadbar=  1.01070774213448E+05
 cg2d: Sum(rhs),rhsMax =  -7.31206562668762E+01  1.56372934255800E+00
(PID.TID 0000.0001)  ploadbar=  1.01070260466175E+05
 cg2d: Sum(rhs),rhsMax =  -7.41414124867863E+01  1.54145821715586E+00
(PID.TID 0000.0001)  ploadbar=  1.01069746718902E+05
 cg2d: Sum(rhs),rhsMax =  -7.51566718089078E+01  1.51989122024778E+00
(PID.TID 0000.0001)  ploadbar=  1.01069232971630E+05
 cg2d: Sum(rhs),rhsMax =  -7.60698141787244E+01  1.50093851434320E+00
(PID.TID 0000.0001)  ploadbar=  1.01070592397653E+05
 cg2d: Sum(rhs),rhsMax =  -7.68608604186917E+01  1.48481193923957E+00
(PID.TID 0000.0001)  ploadbar=  1.01071951823676E+05
 cg2d: Sum(rhs),rhsMax =  -7.75273480298371E+01  1.47139109135061E+00
(PID.TID 0000.0001)  ploadbar=  1.01073311249699E+05
 cg2d: Sum(rhs),rhsMax =  -7.80787908499626E+01  1.46035999728801E+00
(PID.TID 0000.0001)  ploadbar=  1.01074670675722E+05
 cg2d: Sum(rhs),rhsMax =  -7.84948920023015E+01  1.45199034099123E+00
(PID.TID 0000.0001)  ploadbar=  1.01076030101745E+05
 cg2d: Sum(rhs),rhsMax =  -7.88827641715682E+01  1.44422733242885E+00
(PID.TID 0000.0001)  ploadbar=  1.01077389527768E+05
 cg2d: Sum(rhs),rhsMax =  -7.86488780085021E+01  1.44790437293352E+00
(PID.TID 0000.0001)  ploadbar=  1.01078453210284E+05
 cg2d: Sum(rhs),rhsMax =  -7.81716274821927E+01  1.45612562301834E+00
(PID.TID 0000.0001)  ploadbar=  1.01079516892800E+05
 cg2d: Sum(rhs),rhsMax =  -7.76986251804109E+01  1.46436784872002E+00
(PID.TID 0000.0001)  ploadbar=  1.01080580575316E+05
 cg2d: Sum(rhs),rhsMax =  -7.72147195891866E+01  1.47291646954467E+00
(PID.TID 0000.0001)  ploadbar=  1.01081644257833E+05
 cg2d: Sum(rhs),rhsMax =  -7.75035214586668E+01  1.46679335044097E+00
(PID.TID 0000.0001)  ploadbar=  1.01082707940349E+05
 cg2d: Sum(rhs),rhsMax =  -7.79565546632511E+01  1.45762567211063E+00
(PID.TID 0000.0001)  ploadbar=  1.01083771622865E+05
 cg2d: Sum(rhs),rhsMax =  -7.84446289687246E+01  1.44796731403743E+00
(PID.TID 0000.0001)  ploadbar=  1.01084557799129E+05
 cg2d: Sum(rhs),rhsMax =  -7.88805302627116E+01  1.43942516941761E+00
(PID.TID 0000.0001)  ploadbar=  1.01085343975394E+05
 cg2d: Sum(rhs),rhsMax =  -7.81787411582959E+01  1.45184285855433E+00
(PID.TID 0000.0001)  ploadbar=  1.01086130151659E+05
 cg2d: Sum(rhs),rhsMax =  -7.75412232047150E+01  1.46330916883509E+00
(PID.TID 0000.0001)  ploadbar=  1.01086916327923E+05
 cg2d: Sum(rhs),rhsMax =  -7.69589604082004E+01  1.47393953962675E+00
(PID.TID 0000.0001)  ploadbar=  1.01087702504188E+05
 cg2d: Sum(rhs),rhsMax =  -7.64188297909128E+01  1.48393864011606E+00
(PID.TID 0000.0001)  ploadbar=  1.01088488680452E+05
 cg2d: Sum(rhs),rhsMax =  -7.58894879828657E+01  1.49387332088921E+00
(PID.TID 0000.0001)  ploadbar=  1.01088141120850E+05
 cg2d: Sum(rhs),rhsMax =  -7.53714090636303E+01  1.50372632406457E+00
(PID.TID 0000.0001)  ploadbar=  1.01087793561248E+05
 cg2d: Sum(rhs),rhsMax =  -7.48612395012240E+01  1.51356020065174E+00
(PID.TID 0000.0001)  ploadbar=  1.01087446001646E+05
 cg2d: Sum(rhs),rhsMax =  -7.43616093558027E+01  1.52331848306839E+00
(PID.TID 0000.0001)  ploadbar=  1.01087098442044E+05
 cg2d: Sum(rhs),rhsMax =  -7.38788192499967E+01  1.53286478322042E+00
(PID.TID 0000.0001)  ploadbar=  1.01086750882442E+05
 cg2d: Sum(rhs),rhsMax =  -7.34226508912261E+01  1.54198521593183E+00
(PID.TID 0000.0001)  ploadbar=  1.01086403322840E+05
 cg2d: Sum(rhs),rhsMax =  -7.29968646150196E+01  1.55062329222809E+00
(PID.TID 0000.0001)  ploadbar=  1.01084754634727E+05
 cg2d: Sum(rhs),rhsMax =  -7.26222646639781E+01  1.55830587183481E+00
(PID.TID 0000.0001)  ploadbar=  1.01083105946614E+05
 cg2d: Sum(rhs),rhsMax =  -7.23088567932090E+01  1.56478040884786E+00
(PID.TID 0000.0001)  ploadbar=  1.01081457258501E+05
 cg2d: Sum(rhs),rhsMax =  -7.20610659126197E+01  1.56991505441627E+00
(PID.TID 0000.0001)  ploadbar=  1.01079808570388E+05
 cg2d: Sum(rhs),rhsMax =  -7.19372916335813E+01  1.57240027413852E+00
(PID.TID 0000.0001)  ploadbar=  1.01078159882275E+05
 cg2d: Sum(rhs),rhsMax =  -7.24631517741718E+01  1.56080005102608E+00
(PID.TID 0000.0001)  ploadbar=  1.01076511194162E+05
 cg2d: Sum(rhs),rhsMax =  -7.27883733564528E+01  1.55360016735628E+00
(PID.TID 0000.0001)  ploadbar=  1.01074940063146E+05
 cg2d: Sum(rhs),rhsMax =  -7.31186022144917E+01  1.54631914108574E+00
(PID.TID 0000.0001)  ploadbar=  1.01073368932129E+05
 cg2d: Sum(rhs),rhsMax =  -7.34492693463402E+01  1.53905452167541E+00
(PID.TID 0000.0001)  ploadbar=  1.01071797801113E+05
 cg2d: Sum(rhs),rhsMax =  -7.37678276962091E+01  1.53206106258449E+00
(PID.TID 0000.0001)  ploadbar=  1.01070226670097E+05
 cg2d: Sum(rhs),rhsMax =  -7.40582706831823E+01  1.52565951920528E+00
(PID.TID 0000.0001)  ploadbar=  1.01068655539081E+05
 cg2d: Sum(rhs),rhsMax =  -7.43119367269028E+01  1.52000976152450E+00
(PID.TID 0000.0001)  ploadbar=  1.01067084408065E+05
 cg2d: Sum(rhs),rhsMax =  -7.43861987598114E+01  1.51808627470711E+00
(PID.TID 0000.0001)  ploadbar=  1.01065520475315E+05
 cg2d: Sum(rhs),rhsMax =  -7.46226236440178E+01  1.51290321731214E+00
(PID.TID 0000.0001)  ploadbar=  1.01063956542565E+05
 cg2d: Sum(rhs),rhsMax =  -7.49186071501735E+01  1.50658192762352E+00
(PID.TID 0000.0001)  ploadbar=  1.01062392609814E+05
 cg2d: Sum(rhs),rhsMax =  -7.52698978650414E+01  1.49923228293527E+00
(PID.TID 0000.0001)  ploadbar=  1.01060828677064E+05
 cg2d: Sum(rhs),rhsMax =  -7.55923879086833E+01  1.49253883109964E+00
(PID.TID 0000.0001)  ploadbar=  1.01059264744314E+05
 cg2d: Sum(rhs),rhsMax =  -7.59019247930671E+01  1.48616821021890E+00
(PID.TID 0000.0001)  ploadbar=  1.01057700811564E+05
 cg2d: Sum(rhs),rhsMax =  -7.61758715586018E+01  1.48052267984117E+00
(PID.TID 0000.0001)  ploadbar=  1.01058365519147E+05
 cg2d: Sum(rhs),rhsMax =  -7.58303497621090E+01  1.48694503148619E+00
(PID.TID 0000.0001)  ploadbar=  1.01059030226730E+05
 cg2d: Sum(rhs),rhsMax =  -7.52617783046574E+01  1.49782941477464E+00
(PID.TID 0000.0001)  ploadbar=  1.01059694934313E+05
 cg2d: Sum(rhs),rhsMax =  -7.46281748330489E+01  1.51016882860545E+00
(PID.TID 0000.0001)  ploadbar=  1.01060359641897E+05
 cg2d: Sum(rhs),rhsMax =  -7.40337726380356E+01  1.52188445701424E+00
(PID.TID 0000.0001)  ploadbar=  1.01061024349480E+05
 cg2d: Sum(rhs),rhsMax =  -7.35050246067139E+01  1.53239257799278E+00
(PID.TID 0000.0001)  ploadbar=  1.01061689057063E+05
 cg2d: Sum(rhs),rhsMax =  -7.30997941168213E+01  1.54048496329160E+00
(PID.TID 0000.0001)  ploadbar=  1.01063808913747E+05
 cg2d: Sum(rhs),rhsMax =  -7.28317277413541E+01  1.54578189391901E+00
(PID.TID 0000.0001)  ploadbar=  1.01065928770430E+05
 cg2d: Sum(rhs),rhsMax =  -7.26971455355286E+01  1.54829342382648E+00
(PID.TID 0000.0001)  ploadbar=  1.01068048627114E+05
 cg2d: Sum(rhs),rhsMax =  -7.27734861437845E+01  1.54633784614175E+00
(PID.TID 0000.0001)  ploadbar=  1.01070168483798E+05
 cg2d: Sum(rhs),rhsMax =  -7.29741410306467E+01  1.54176961962982E+00
(PID.TID 0000.0001)  ploadbar=  1.01072288340482E+05
 cg2d: Sum(rhs),rhsMax =  -7.33030621531916E+01  1.53454441107742E+00
(PID.TID 0000.0001)  ploadbar=  1.01074408197165E+05
 cg2d: Sum(rhs),rhsMax =  -7.36481966366635E+01  1.52701952247873E+00
(PID.TID 0000.0001)  ploadbar=  1.01075107250117E+05
 cg2d: Sum(rhs),rhsMax =  -7.39748228270552E+01  1.51991465476175E+00
(PID.TID 0000.0001)  ploadbar=  1.01075806303068E+05
 cg2d: Sum(rhs),rhsMax =  -7.42616356540218E+01  1.51365197564340E+00
(PID.TID 0000.0001)  ploadbar=  1.01076505356020E+05
 cg2d: Sum(rhs),rhsMax =  -7.45005323207873E+01  1.50837047650339E+00
(PID.TID 0000.0001)  ploadbar=  1.01077204408971E+05
 cg2d: Sum(rhs),rhsMax =  -7.46977384337274E+01  1.50392207036853E+00
(PID.TID 0000.0001)  ploadbar=  1.01077903461922E+05
 cg2d: Sum(rhs),rhsMax =  -7.48703319011946E+01  1.49994514916039E+00
(PID.TID 0000.0001)  ploadbar=  1.01078602514874E+05
 cg2d: Sum(rhs),rhsMax =  -7.49654860411444E+01  1.49757995153136E+00
(PID.TID 0000.0001)  ploadbar=  1.01079164083469E+05
 cg2d: Sum(rhs),rhsMax =  -7.50235387502114E+01  1.49600476996276E+00
(PID.TID 0000.0001)  ploadbar=  1.01079725652063E+05
 cg2d: Sum(rhs),rhsMax =  -7.51350416680131E+01  1.49340849066858E+00
(PID.TID 0000.0001)  ploadbar=  1.01080287220658E+05
 cg2d: Sum(rhs),rhsMax =  -7.53282011876184E+01  1.48923712959685E+00
(PID.TID 0000.0001)  ploadbar=  1.01080848789253E+05
 cg2d: Sum(rhs),rhsMax =  -7.55971460279527E+01  1.48362561629147E+00
(PID.TID 0000.0001)  ploadbar=  1.01081410357848E+05
 cg2d: Sum(rhs),rhsMax =  -7.59278842188442E+01  1.47687438758742E+00
(PID.TID 0000.0001)  ploadbar=  1.01081971926443E+05
 cg2d: Sum(rhs),rhsMax =  -7.62851904068003E+01  1.46965720313880E+00
(PID.TID 0000.0001)  ploadbar=  1.01082644169216E+05
 cg2d: Sum(rhs),rhsMax =  -7.66178055771233E+01  1.46296184491284E+00
(PID.TID 0000.0001)  ploadbar=  1.01083316411990E+05
 cg2d: Sum(rhs),rhsMax =  -7.68944708519721E+01  1.45736446682854E+00
(PID.TID 0000.0001)  ploadbar=  1.01083988654763E+05
 cg2d: Sum(rhs),rhsMax =  -7.70925439999731E+01  1.45326631825196E+00
(PID.TID 0000.0001)  ploadbar=  1.01084660897537E+05
 cg2d: Sum(rhs),rhsMax =  -7.72044330442663E+01  1.45078158596899E+00
(PID.TID 0000.0001)  ploadbar=  1.01085333140311E+05
 cg2d: Sum(rhs),rhsMax =  -7.72416966032745E+01  1.44967513217064E+00
(PID.TID 0000.0001)  ploadbar=  1.01086005383084E+05
 cg2d: Sum(rhs),rhsMax =  -7.72416193837865E+01  1.44929570841958E+00
(PID.TID 0000.0001)  ploadbar=  1.01085508674435E+05
 cg2d: Sum(rhs),rhsMax =  -7.72490498169466E+01  1.44879410803099E+00
(PID.TID 0000.0001)  ploadbar=  1.01085011965787E+05
 cg2d: Sum(rhs),rhsMax =  -7.73028460166969E+01  1.44743769511070E+00
(PID.TID 0000.0001)  ploadbar=  1.01084515257138E+05
 cg2d: Sum(rhs),rhsMax =  -7.74153273085090E+01  1.44499678215029E+00
(PID.TID 0000.0001)  ploadbar=  1.01084018548489E+05
 cg2d: Sum(rhs),rhsMax =  -7.76356909021111E+01  1.44056350142379E+00
(PID.TID 0000.0001)  ploadbar=  1.01083521839840E+05
 cg2d: Sum(rhs),rhsMax =  -7.80377653603061E+01  1.43281016501462E+00
(PID.TID 0000.0001)  ploadbar=  1.01083025131191E+05
 cg2d: Sum(rhs),rhsMax =  -7.85160886854540E+01  1.42370448289370E+00
(PID.TID 0000.0001)  ploadbar=  1.01083241680365E+05
 cg2d: Sum(rhs),rhsMax =  -7.90212200271811E+01  1.41417944079667E+00
(PID.TID 0000.0001)  ploadbar=  1.01083458229539E+05
 cg2d: Sum(rhs),rhsMax =  -7.95138049237447E+01  1.40494673574515E+00
(PID.TID 0000.0001)  ploadbar=  1.01083674778713E+05
 cg2d: Sum(rhs),rhsMax =  -7.96459284702142E+01  1.40209466070410E+00
(PID.TID 0000.0001)  ploadbar=  1.01083891327887E+05
 cg2d: Sum(rhs),rhsMax =  -7.94739245605878E+01  1.40455247886394E+00
(PID.TID 0000.0001)  ploadbar=  1.01084107877061E+05
 cg2d: Sum(rhs),rhsMax =  -7.94094568440472E+01  1.40505629373997E+00
(PID.TID 0000.0001)  ploadbar=  1.01084324426235E+05
 cg2d: Sum(rhs),rhsMax =  -7.94588211418090E+01  1.40357274762669E+00
(PID.TID 0000.0001)  ploadbar=  1.01084214018831E+05
 cg2d: Sum(rhs),rhsMax =  -7.95386461165373E+01  1.40157578255924E+00
(PID.TID 0000.0001)  ploadbar=  1.01084103611428E+05
 cg2d: Sum(rhs),rhsMax =  -7.94722510980906E+01  1.40217439763170E+00
(PID.TID 0000.0001)  ploadbar=  1.01083993204025E+05
 cg2d: Sum(rhs),rhsMax =  -7.93770437159003E+01  1.40329266292989E+00
(PID.TID 0000.0001)  ploadbar=  1.01083882796622E+05
 cg2d: Sum(rhs),rhsMax =  -7.92546881300716E+01  1.40490034695801E+00
(PID.TID 0000.0001)  ploadbar=  1.01083772389218E+05
 cg2d: Sum(rhs),rhsMax =  -7.91367655623699E+01  1.40643740962590E+00
(PID.TID 0000.0001)  ploadbar=  1.01083661981815E+05
 cg2d: Sum(rhs),rhsMax =  -7.90333460441537E+01  1.40773170246976E+00
(PID.TID 0000.0001)  ploadbar=  1.01083797359953E+05
 cg2d: Sum(rhs),rhsMax =  -7.89368844226018E+01  1.40891176805799E+00
(PID.TID 0000.0001)  ploadbar=  1.01083932738092E+05
 cg2d: Sum(rhs),rhsMax =  -7.88503839986011E+01  1.40992041155919E+00
(PID.TID 0000.0001)  ploadbar=  1.01084068116230E+05
 cg2d: Sum(rhs),rhsMax =  -7.87736135063882E+01  1.41075954597030E+00
(PID.TID 0000.0001)  ploadbar=  1.01084203494369E+05
 cg2d: Sum(rhs),rhsMax =  -7.87047430266672E+01  1.41145675513111E+00
(PID.TID 0000.0001)  ploadbar=  1.01084338872507E+05
 cg2d: Sum(rhs),rhsMax =  -7.86403370443573E+01  1.41206996001896E+00
(PID.TID 0000.0001)  ploadbar=  1.01084474250646E+05
 cg2d: Sum(rhs),rhsMax =  -7.85822115060630E+01  1.41259964838448E+00
(PID.TID 0000.0001)  ploadbar=  1.01083923930261E+05
 cg2d: Sum(rhs),rhsMax =  -7.85283199451122E+01  1.41307944617848E+00
(PID.TID 0000.0001)  ploadbar=  1.01083373609875E+05
 cg2d: Sum(rhs),rhsMax =  -7.84648273154402E+01  1.41375537643635E+00
(PID.TID 0000.0001)  ploadbar=  1.01082823289490E+05
 cg2d: Sum(rhs),rhsMax =  -7.83951697851863E+01  1.41456032115854E+00
(PID.TID 0000.0001)  ploadbar=  1.01082272969105E+05
 cg2d: Sum(rhs),rhsMax =  -7.83118466139216E+01  1.41562489295056E+00
(PID.TID 0000.0001)  ploadbar=  1.01081722648720E+05
 cg2d: Sum(rhs),rhsMax =  -7.83735350568129E+01  1.41407795848700E+00
(PID.TID 0000.0001)  ploadbar=  1.01081172328334E+05
 cg2d: Sum(rhs),rhsMax =  -7.85037715161359E+01  1.41128484528357E+00
(PID.TID 0000.0001)  ploadbar=  1.01080458736695E+05
 cg2d: Sum(rhs),rhsMax =  -7.86826094822474E+01  1.40761301923232E+00
(PID.TID 0000.0001)  ploadbar=  1.01079745145055E+05
 cg2d: Sum(rhs),rhsMax =  -7.88927821294728E+01  1.40338104661936E+00
(PID.TID 0000.0001)  ploadbar=  1.01079031553415E+05
 cg2d: Sum(rhs),rhsMax =  -7.91144165425587E+01  1.39894812866502E+00
(PID.TID 0000.0001)  ploadbar=  1.01078317961775E+05
 cg2d: Sum(rhs),rhsMax =  -7.93290155945334E+01  1.39463979330026E+00
(PID.TID 0000.0001)  ploadbar=  1.01077604370135E+05
 cg2d: Sum(rhs),rhsMax =  -7.95251638029740E+01  1.39064724982123E+00
(PID.TID 0000.0001)  ploadbar=  1.01076890778495E+05
 cg2d: Sum(rhs),rhsMax =  -7.95561805518219E+01  1.38957961844455E+00
(PID.TID 0000.0001)  ploadbar=  1.01075661769660E+05
 cg2d: Sum(rhs),rhsMax =  -7.94889969502655E+01  1.39024881609542E+00
(PID.TID 0000.0001)  ploadbar=  1.01074432760825E+05
 cg2d: Sum(rhs),rhsMax =  -7.94066698761936E+01  1.39120130953192E+00
(PID.TID 0000.0001)  ploadbar=  1.01073203751990E+05
 cg2d: Sum(rhs),rhsMax =  -7.93247694341882E+01  1.39216010395290E+00
(PID.TID 0000.0001)  ploadbar=  1.01071974743155E+05
 cg2d: Sum(rhs),rhsMax =  -7.92541877997947E+01  1.39292955530386E+00
(PID.TID 0000.0001)  ploadbar=  1.01070745734320E+05
 cg2d: Sum(rhs),rhsMax =  -7.92040776471888E+01  1.39334424768411E+00
(PID.TID 0000.0001)  ploadbar=  1.01069516725484E+05
 cg2d: Sum(rhs),rhsMax =  -7.91499052855004E+01  1.39383359296411E+00
(PID.TID 0000.0001)  ploadbar=  1.01068671553138E+05
 cg2d: Sum(rhs),rhsMax =  -7.90946186413887E+01  1.39434201160145E+00
(PID.TID 0000.0001)  ploadbar=  1.01067826380793E+05
 cg2d: Sum(rhs),rhsMax =  -7.90255130808646E+01  1.39508925379918E+00
(PID.TID 0000.0001)  ploadbar=  1.01066981208447E+05
 cg2d: Sum(rhs),rhsMax =  -7.89272893183237E+01  1.39634303710523E+00
(PID.TID 0000.0001)  ploadbar=  1.01066136036101E+05
 cg2d: Sum(rhs),rhsMax =  -7.87812872704203E+01  1.39843539647286E+00
(PID.TID 0000.0001)  ploadbar=  1.01065290863755E+05
 cg2d: Sum(rhs),rhsMax =  -7.85685134140489E+01  1.40171229854672E+00
(PID.TID 0000.0001)  ploadbar=  1.01064445691409E+05
 cg2d: Sum(rhs),rhsMax =  -7.83145802214936E+01  1.40577295097843E+00
(PID.TID 0000.0001)  ploadbar=  1.01063985439184E+05
 cg2d: Sum(rhs),rhsMax =  -7.79832306634535E+01  1.41128405738000E+00
(PID.TID 0000.0001)  ploadbar=  1.01063525186958E+05
 cg2d: Sum(rhs),rhsMax =  -7.75650404543434E+01  1.41844983612536E+00
(PID.TID 0000.0001)  ploadbar=  1.01063064934733E+05
 cg2d: Sum(rhs),rhsMax =  -7.71583767268493E+01  1.42549776615246E+00
(PID.TID 0000.0001)  ploadbar=  1.01062604682508E+05
 cg2d: Sum(rhs),rhsMax =  -7.69410049422515E+01  1.42910971179353E+00
(PID.TID 0000.0001)  ploadbar=  1.01062144430282E+05
 cg2d: Sum(rhs),rhsMax =  -7.68794548234921E+01  1.42984587817095E+00
(PID.TID 0000.0001)  ploadbar=  1.01061684178057E+05
 cg2d: Sum(rhs),rhsMax =  -7.68892514260012E+01  1.42923099714653E+00
(PID.TID 0000.0001)  ploadbar=  1.01061323178530E+05
 cg2d: Sum(rhs),rhsMax =  -7.69023014284493E+01  1.42852837194190E+00
(PID.TID 0000.0001)  ploadbar=  1.01060962179003E+05
 cg2d: Sum(rhs),rhsMax =  -7.69198618445457E+01  1.42771241958475E+00
(PID.TID 0000.0001)  ploadbar=  1.01060601179476E+05
 cg2d: Sum(rhs),rhsMax =  -7.69440139402251E+01  1.42674234385240E+00
(PID.TID 0000.0001)  ploadbar=  1.01060240179949E+05
 cg2d: Sum(rhs),rhsMax =  -7.69736294592065E+01  1.42563526939480E+00
(PID.TID 0000.0001)  ploadbar=  1.01059879180422E+05
 cg2d: Sum(rhs),rhsMax =  -7.69995707359707E+01  1.42455735873762E+00
(PID.TID 0000.0001)  ploadbar=  1.01059518180895E+05
 cg2d: Sum(rhs),rhsMax =  -7.68900974201012E+01  1.42600343713977E+00
(PID.TID 0000.0001)  ploadbar=  1.01059196101286E+05
 cg2d: Sum(rhs),rhsMax =  -7.66681343745346E+01  1.42955879437327E+00
(PID.TID 0000.0001)  ploadbar=  1.01058874021676E+05
 cg2d: Sum(rhs),rhsMax =  -7.63853220448882E+01  1.43428367009202E+00
(PID.TID 0000.0001)  ploadbar=  1.01058551942067E+05
 cg2d: Sum(rhs),rhsMax =  -7.60434000793628E+01  1.44016467094324E+00
(PID.TID 0000.0001)  ploadbar=  1.01058229862457E+05
 cg2d: Sum(rhs),rhsMax =  -7.59493042255416E+01  1.44137880077428E+00
(PID.TID 0000.0001)  ploadbar=  1.01057907782848E+05
 cg2d: Sum(rhs),rhsMax =  -7.59973508493140E+01  1.43989545015579E+00
(PID.TID 0000.0001)  ploadbar=  1.01057585703238E+05
 cg2d: Sum(rhs),rhsMax =  -7.60339196554664E+01  1.43862684768983E+00
(PID.TID 0000.0001)  ploadbar=  1.01057533362643E+05
 cg2d: Sum(rhs),rhsMax =  -7.60595180274811E+01  1.43755861414267E+00
(PID.TID 0000.0001)  ploadbar=  1.01057481022049E+05
 cg2d: Sum(rhs),rhsMax =  -7.60868718461782E+01  1.43644441563582E+00
(PID.TID 0000.0001)  ploadbar=  1.01057428681454E+05
 cg2d: Sum(rhs),rhsMax =  -7.61325772420620E+01  1.43496796981834E+00
(PID.TID 0000.0001)  ploadbar=  1.01057376340859E+05
 cg2d: Sum(rhs),rhsMax =  -7.62037345373720E+01  1.43299506786611E+00
(PID.TID 0000.0001)  ploadbar=  1.01057324000264E+05
 cg2d: Sum(rhs),rhsMax =  -7.63081102986406E+01  1.43038230091606E+00
(PID.TID 0000.0001)  ploadbar=  1.01057271659669E+05
 cg2d: Sum(rhs),rhsMax =  -7.63791371005831E+01  1.42841225210985E+00
(PID.TID 0000.0001)  ploadbar=  1.01057496868366E+05
 cg2d: Sum(rhs),rhsMax =  -7.60822339391344E+01  1.43335308925675E+00
(PID.TID 0000.0001)  ploadbar=  1.01057722077062E+05
 cg2d: Sum(rhs),rhsMax =  -7.58705180910115E+01  1.43672394588678E+00
(PID.TID 0000.0001)  ploadbar=  1.01057947285758E+05
 cg2d: Sum(rhs),rhsMax =  -7.58402995689910E+01  1.43666878893893E+00
(PID.TID 0000.0001)  ploadbar=  1.01058172494454E+05
 cg2d: Sum(rhs),rhsMax =  -7.57747401918354E+01  1.43727900020285E+00
(PID.TID 0000.0001)  ploadbar=  1.01058397703150E+05
 cg2d: Sum(rhs),rhsMax =  -7.58973295886285E+01  1.43431544963850E+00
(PID.TID 0000.0001)  ploadbar=  1.01058622911846E+05
 cg2d: Sum(rhs),rhsMax =  -7.60354443947983E+01  1.43103430802151E+00
(PID.TID 0000.0001)  ploadbar=  1.01058934046051E+05
 cg2d: Sum(rhs),rhsMax =  -7.61199359581829E+01  1.42873362509413E+00
(PID.TID 0000.0001)  ploadbar=  1.01059245180256E+05
 cg2d: Sum(rhs),rhsMax =  -7.61892651291079E+01  1.42668213491108E+00
(PID.TID 0000.0001)  ploadbar=  1.01059556314461E+05
 cg2d: Sum(rhs),rhsMax =  -7.62435400271421E+01  1.42487034305013E+00
(PID.TID 0000.0001)  ploadbar=  1.01059867448665E+05
 cg2d: Sum(rhs),rhsMax =  -7.61563240705564E+01  1.42565188070694E+00
(PID.TID 0000.0001)  ploadbar=  1.01060178582870E+05
 cg2d: Sum(rhs),rhsMax =  -7.61757845935116E+01  1.42437919103803E+00
(PID.TID 0000.0001)  ploadbar=  1.01060489717075E+05
 cg2d: Sum(rhs),rhsMax =  -7.59044804062780E+01  1.42857521661382E+00
(PID.TID 0000.0001)  ploadbar=  1.01061365889884E+05
 cg2d: Sum(rhs),rhsMax =  -7.58099205158426E+01  1.42947280839571E+00
(PID.TID 0000.0001)  ploadbar=  1.01062242062693E+05
 cg2d: Sum(rhs),rhsMax =  -7.61178268939802E+01  1.42281859500493E+00
(PID.TID 0000.0001)  ploadbar=  1.01063118235502E+05
 cg2d: Sum(rhs),rhsMax =  -7.64203946151231E+01  1.41632157772849E+00
(PID.TID 0000.0001)  ploadbar=  1.01063994408311E+05
 cg2d: Sum(rhs),rhsMax =  -7.67203207253210E+01  1.40992535196510E+00
(PID.TID 0000.0001)  ploadbar=  1.01064870581120E+05
 cg2d: Sum(rhs),rhsMax =  -7.70273776566999E+01  1.40344748341581E+00
(PID.TID 0000.0001)  ploadbar=  1.01065746753929E+05
 cg2d: Sum(rhs),rhsMax =  -7.74137100079853E+01  1.39560295853539E+00
(PID.TID 0000.0001)  ploadbar=  1.01066322470980E+05
 cg2d: Sum(rhs),rhsMax =  -7.78162782380291E+01  1.38755567896440E+00
(PID.TID 0000.0001)  ploadbar=  1.01066898188031E+05
 cg2d: Sum(rhs),rhsMax =  -7.82335405040317E+01  1.37933901324078E+00
(PID.TID 0000.0001)  ploadbar=  1.01067473905082E+05
 cg2d: Sum(rhs),rhsMax =  -7.86660171666316E+01  1.37095039849153E+00
(PID.TID 0000.0001)  ploadbar=  1.01068049622133E+05
 cg2d: Sum(rhs),rhsMax =  -7.89842100904826E+01  1.36463117994259E+00
(PID.TID 0000.0001)  ploadbar=  1.01068625339185E+05
 cg2d: Sum(rhs),rhsMax =  -7.92366849628185E+01  1.35949432840113E+00
(PID.TID 0000.0001)  ploadbar=  1.01069201056236E+05
 cg2d: Sum(rhs),rhsMax =  -7.94491209818695E+01  1.35513033210155E+00
(PID.TID 0000.0001)  ploadbar=  1.01068503020724E+05
 cg2d: Sum(rhs),rhsMax =  -7.96261506848184E+01  1.35144440298676E+00
(PID.TID 0000.0001)  ploadbar=  1.01067804985212E+05
 cg2d: Sum(rhs),rhsMax =  -7.97864051431750E+01  1.34810699776588E+00
(PID.TID 0000.0001)  ploadbar=  1.01067106949701E+05
 cg2d: Sum(rhs),rhsMax =  -7.99421645144996E+01  1.34490263949290E+00
(PID.TID 0000.0001)  ploadbar=  1.01066408914189E+05
 cg2d: Sum(rhs),rhsMax =  -8.00900159975970E+01  1.34188214550106E+00
(PID.TID 0000.0001)  ploadbar=  1.01065710878677E+05
 cg2d: Sum(rhs),rhsMax =  -8.02800721436790E+01  1.33820404027724E+00
(PID.TID 0000.0001)  ploadbar=  1.01065012843166E+05
 cg2d: Sum(rhs),rhsMax =  -8.03970231278110E+01  1.33571572174394E+00
(PID.TID 0000.0001)  ploadbar=  1.01065579141623E+05
 cg2d: Sum(rhs),rhsMax =  -8.05325229590704E+01  1.33288432077458E+00
(PID.TID 0000.0001)  ploadbar=  1.01066145440080E+05
 cg2d: Sum(rhs),rhsMax =  -8.06858747803359E+01  1.32972021332749E+00
(PID.TID 0000.0001)  ploadbar=  1.01066711738537E+05
 cg2d: Sum(rhs),rhsMax =  -8.08541195055520E+01  1.32626908437339E+00
(PID.TID 0000.0001)  ploadbar=  1.01067278036994E+05
 cg2d: Sum(rhs),rhsMax =  -8.10324218205321E+01  1.32260601507902E+00
(PID.TID 0000.0001)  ploadbar=  1.01067844335451E+05
 cg2d: Sum(rhs),rhsMax =  -8.12139064098551E+01  1.31883959948920E+00
(PID.TID 0000.0001)  ploadbar=  1.01068410633908E+05
 cg2d: Sum(rhs),rhsMax =  -8.13229316458376E+01  1.31631335880222E+00
(PID.TID 0000.0001)  ploadbar=  1.01069754451575E+05
 cg2d: Sum(rhs),rhsMax =  -8.15373232845821E+01  1.31214333907636E+00
(PID.TID 0000.0001)  ploadbar=  1.01071098269242E+05
 cg2d: Sum(rhs),rhsMax =  -8.17291333530500E+01  1.30839958501460E+00
(PID.TID 0000.0001)  ploadbar=  1.01072442086909E+05
 cg2d: Sum(rhs),rhsMax =  -8.19005019374393E+01  1.30503945543403E+00
(PID.TID 0000.0001)  ploadbar=  1.01073785904576E+05
 cg2d: Sum(rhs),rhsMax =  -8.20594255661915E+01  1.30192566316240E+00
(PID.TID 0000.0001)  ploadbar=  1.01075129722244E+05
 cg2d: Sum(rhs),rhsMax =  -8.22105353772879E+01  1.29897513106316E+00
(PID.TID 0000.0001)  ploadbar=  1.01076473539911E+05
 cg2d: Sum(rhs),rhsMax =  -8.23523357472720E+01  1.29621741599074E+00
(PID.TID 0000.0001)  ploadbar=  1.01076271380659E+05
 cg2d: Sum(rhs),rhsMax =  -8.24836183645001E+01  1.29366746119276E+00
(PID.TID 0000.0001)  ploadbar=  1.01076069221407E+05
 cg2d: Sum(rhs),rhsMax =  -8.26047477238156E+01  1.29131626745075E+00
(PID.TID 0000.0001)  ploadbar=  1.01075867062156E+05
 cg2d: Sum(rhs),rhsMax =  -8.27127328228679E+01  1.28920640282650E+00
(PID.TID 0000.0001)  ploadbar=  1.01075664902904E+05
 cg2d: Sum(rhs),rhsMax =  -8.28037620409817E+01  1.28739238768076E+00
(PID.TID 0000.0001)  ploadbar=  1.01075462743652E+05
 cg2d: Sum(rhs),rhsMax =  -8.28735222945152E+01  1.28593790321579E+00
(PID.TID 0000.0001)  ploadbar=  1.01075260584401E+05
 cg2d: Sum(rhs),rhsMax =  -8.28969426693214E+01  1.28523092162254E+00
(PID.TID 0000.0001)  ploadbar=  1.01074254091532E+05
 cg2d: Sum(rhs),rhsMax =  -8.28936828532396E+01  1.28496165489746E+00
(PID.TID 0000.0001)  ploadbar=  1.01073247598663E+05
 cg2d: Sum(rhs),rhsMax =  -8.28683865197278E+01  1.28505571938917E+00
(PID.TID 0000.0001)  ploadbar=  1.01072241105795E+05
 cg2d: Sum(rhs),rhsMax =  -8.28204743279354E+01  1.28551972297374E+00
(PID.TID 0000.0001)  ploadbar=  1.01071234612926E+05
 cg2d: Sum(rhs),rhsMax =  -8.27501738842822E+01  1.28634624074172E+00
(PID.TID 0000.0001)  ploadbar=  1.01070228120057E+05
 cg2d: Sum(rhs),rhsMax =  -8.26387542175313E+01  1.28782626567822E+00
(PID.TID 0000.0001)  ploadbar=  1.01069221627189E+05
 cg2d: Sum(rhs),rhsMax =  -8.25279712746520E+01  1.28929565527175E+00
(PID.TID 0000.0001)  ploadbar=  1.01068798223003E+05
 cg2d: Sum(rhs),rhsMax =  -8.24233251486763E+01  1.29066703430452E+00
(PID.TID 0000.0001)  ploadbar=  1.01068374818817E+05
 cg2d: Sum(rhs),rhsMax =  -8.23025281627671E+01  1.29228733020623E+00
(PID.TID 0000.0001)  ploadbar=  1.01067951414631E+05
 cg2d: Sum(rhs),rhsMax =  -8.21641251183305E+01  1.29417651990974E+00
(PID.TID 0000.0001)  ploadbar=  1.01067528010444E+05
 cg2d: Sum(rhs),rhsMax =  -8.20022917705803E+01  1.29642271685637E+00
(PID.TID 0000.0001)  ploadbar=  1.01067104606258E+05
 cg2d: Sum(rhs),rhsMax =  -8.18093086631861E+01  1.29914751334505E+00
(PID.TID 0000.0001)  ploadbar=  1.01066681202072E+05
 cg2d: Sum(rhs),rhsMax =  -8.15833984030806E+01  1.30243569039953E+00
(PID.TID 0000.0001)  ploadbar=  1.01065163704410E+05
 cg2d: Sum(rhs),rhsMax =  -8.15132288376419E+01  1.30326624642667E+00
(PID.TID 0000.0001)  ploadbar=  1.01063646206747E+05
 cg2d: Sum(rhs),rhsMax =  -8.14144732052647E+01  1.30457322210643E+00
(PID.TID 0000.0001)  ploadbar=  1.01062128709085E+05
 cg2d: Sum(rhs),rhsMax =  -8.13065323455418E+01  1.30604456001443E+00
(PID.TID 0000.0001)  ploadbar=  1.01060611211422E+05
 cg2d: Sum(rhs),rhsMax =  -8.11954866761674E+01  1.30757929278794E+00
(PID.TID 0000.0001)  ploadbar=  1.01059093713760E+05
 cg2d: Sum(rhs),rhsMax =  -8.10865145076364E+01  1.30908946126334E+00
(PID.TID 0000.0001)  ploadbar=  1.01057576216097E+05
 cg2d: Sum(rhs),rhsMax =  -8.10024291765073E+01  1.31020170162515E+00
(PID.TID 0000.0001)  ploadbar=  1.01057825060987E+05
 cg2d: Sum(rhs),rhsMax =  -8.09374272767984E+01  1.31100281550987E+00
(PID.TID 0000.0001)  ploadbar=  1.01058073905877E+05
 cg2d: Sum(rhs),rhsMax =  -8.08863232197346E+01  1.31157299240459E+00
(PID.TID 0000.0001)  ploadbar=  1.01058322750767E+05
 cg2d: Sum(rhs),rhsMax =  -8.08417216121969E+01  1.31202863476327E+00
(PID.TID 0000.0001)  ploadbar=  1.01058571595656E+05
 cg2d: Sum(rhs),rhsMax =  -8.07951405511080E+01  1.31250420792453E+00
(PID.TID 0000.0001)  ploadbar=  1.01058820440546E+05
 cg2d: Sum(rhs),rhsMax =  -8.07378079542292E+01  1.31314346941406E+00
(PID.TID 0000.0001)  ploadbar=  1.01059069285436E+05
 cg2d: Sum(rhs),rhsMax =  -8.06681409137269E+01  1.31399439692988E+00
(PID.TID 0000.0001)  ploadbar=  1.01059468948495E+05
 cg2d: Sum(rhs),rhsMax =  -8.05996868448168E+01  1.31483424893622E+00
(PID.TID 0000.0001)  ploadbar=  1.01059868611554E+05
 cg2d: Sum(rhs),rhsMax =  -8.05418882740178E+01  1.31550521889620E+00
(PID.TID 0000.0001)  ploadbar=  1.01060268274613E+05
 cg2d: Sum(rhs),rhsMax =  -8.05133302683079E+01  1.31569895923961E+00
(PID.TID 0000.0001)  ploadbar=  1.01060667937673E+05
 cg2d: Sum(rhs),rhsMax =  -8.04848145474657E+01  1.31588525459768E+00
(PID.TID 0000.0001)  ploadbar=  1.01061067600732E+05
 cg2d: Sum(rhs),rhsMax =  -8.05263147313209E+01  1.31491543197169E+00
(PID.TID 0000.0001)  ploadbar=  1.01061467263791E+05
 cg2d: Sum(rhs),rhsMax =  -8.05568685006924E+01  1.31409639441399E+00
(PID.TID 0000.0001)  ploadbar=  1.01060064957541E+05
 cg2d: Sum(rhs),rhsMax =  -8.05857911931389E+01  1.31327265918787E+00
(PID.TID 0000.0001)  ploadbar=  1.01058662651292E+05
 cg2d: Sum(rhs),rhsMax =  -8.05991667853775E+01  1.31266866297559E+00
(PID.TID 0000.0001)  ploadbar=  1.01057260345042E+05
 cg2d: Sum(rhs),rhsMax =  -8.07183189072033E+01  1.31030502906517E+00
(PID.TID 0000.0001)  ploadbar=  1.01055858038793E+05
 cg2d: Sum(rhs),rhsMax =  -8.08159338879140E+01  1.30824754846098E+00
(PID.TID 0000.0001)  ploadbar=  1.01054455732543E+05
 cg2d: Sum(rhs),rhsMax =  -8.08430837799875E+01  1.30727991596919E+00
(PID.TID 0000.0001)  ploadbar=  1.01053053426293E+05
 cg2d: Sum(rhs),rhsMax =  -8.08292061773236E+01  1.30702402398495E+00
(PID.TID 0000.0001)  ploadbar=  1.01051635466751E+05
 cg2d: Sum(rhs),rhsMax =  -8.08038466869699E+01  1.30699726483808E+00
(PID.TID 0000.0001)  ploadbar=  1.01050217507208E+05
 cg2d: Sum(rhs),rhsMax =  -8.07661781227047E+01  1.30721143641002E+00
(PID.TID 0000.0001)  ploadbar=  1.01048799547666E+05
 cg2d: Sum(rhs),rhsMax =  -8.07215895140350E+01  1.30757731975584E+00
(PID.TID 0000.0001)  ploadbar=  1.01047381588123E+05
 cg2d: Sum(rhs),rhsMax =  -8.07540171129258E+01  1.30672961895572E+00
(PID.TID 0000.0001)  ploadbar=  1.01045963628580E+05
 cg2d: Sum(rhs),rhsMax =  -8.08315264046895E+01  1.30518693688129E+00
(PID.TID 0000.0001)  ploadbar=  1.01044545669038E+05
 cg2d: Sum(rhs),rhsMax =  -8.09013986664409E+01  1.30377959835906E+00
(PID.TID 0000.0001)  ploadbar=  1.01044066425975E+05
 cg2d: Sum(rhs),rhsMax =  -8.09154987992019E+01  1.30327777323322E+00
(PID.TID 0000.0001)  ploadbar=  1.01043587182912E+05
 cg2d: Sum(rhs),rhsMax =  -8.08292485630060E+01  1.30439513950929E+00
(PID.TID 0000.0001)  ploadbar=  1.01043107939850E+05
 cg2d: Sum(rhs),rhsMax =  -8.06719006334468E+01  1.30666358642260E+00
(PID.TID 0000.0001)  ploadbar=  1.01042628696787E+05
 cg2d: Sum(rhs),rhsMax =  -8.04839155436523E+01  1.30943641306233E+00
(PID.TID 0000.0001)  ploadbar=  1.01042149453725E+05
 cg2d: Sum(rhs),rhsMax =  -8.03947777573197E+01  1.31060154534875E+00
(PID.TID 0000.0001)  ploadbar=  1.01041670210662E+05
 cg2d: Sum(rhs),rhsMax =  -8.02637984849392E+01  1.31247841019539E+00
(PID.TID 0000.0001)  ploadbar=  1.01041686990095E+05
 cg2d: Sum(rhs),rhsMax =  -8.01015105479543E+01  1.31489686945501E+00
(PID.TID 0000.0001)  ploadbar=  1.01041703769527E+05
 cg2d: Sum(rhs),rhsMax =  -7.99643444890613E+01  1.31693102990419E+00
(PID.TID 0000.0001)  ploadbar=  1.01041720548960E+05
 cg2d: Sum(rhs),rhsMax =  -7.98819878191089E+01  1.31808123414946E+00
(PID.TID 0000.0001)  ploadbar=  1.01041737328392E+05
 cg2d: Sum(rhs),rhsMax =  -7.98756063337680E+01  1.31798578304021E+00
(PID.TID 0000.0001)  ploadbar=  1.01041754107825E+05
 cg2d: Sum(rhs),rhsMax =  -8.00248549598816E+01  1.31532613240922E+00
(PID.TID 0000.0001)  ploadbar=  1.01041770887257E+05
 cg2d: Sum(rhs),rhsMax =  -8.02712768069822E+01  1.31104961232320E+00
(PID.TID 0000.0001)  ploadbar=  1.01042964656445E+05
 cg2d: Sum(rhs),rhsMax =  -8.05507922586726E+01  1.30622028949120E+00
(PID.TID 0000.0001)  ploadbar=  1.01044158425632E+05
 cg2d: Sum(rhs),rhsMax =  -8.08560462461604E+01  1.30096402136458E+00
(PID.TID 0000.0001)  ploadbar=  1.01045352194819E+05
 cg2d: Sum(rhs),rhsMax =  -8.11795971845997E+01  1.29540588588462E+00
(PID.TID 0000.0001)  ploadbar=  1.01046545964006E+05
 cg2d: Sum(rhs),rhsMax =  -8.15279505916693E+01  1.28944569353058E+00
(PID.TID 0000.0001)  ploadbar=  1.01047739733194E+05
 cg2d: Sum(rhs),rhsMax =  -8.19050069903134E+01  1.28302850822634E+00
(PID.TID 0000.0001)  ploadbar=  1.01048933502381E+05
 cg2d: Sum(rhs),rhsMax =  -8.20489358804032E+01  1.28033691718589E+00
(PID.TID 0000.0001)  ploadbar=  1.01050796568339E+05
 cg2d: Sum(rhs),rhsMax =  -8.20982627110444E+01  1.27916397969127E+00
(PID.TID 0000.0001)  ploadbar=  1.01052659634297E+05
 cg2d: Sum(rhs),rhsMax =  -8.21318360813109E+01  1.27827182814609E+00
(PID.TID 0000.0001)  ploadbar=  1.01054522700256E+05
 cg2d: Sum(rhs),rhsMax =  -8.21640912331604E+01  1.27743193170511E+00
(PID.TID 0000.0001)  ploadbar=  1.01056385766214E+05
 cg2d: Sum(rhs),rhsMax =  -8.22077410976186E+01  1.27644022569030E+00
(PID.TID 0000.0001)  ploadbar=  1.01058248832172E+05
 cg2d: Sum(rhs),rhsMax =  -8.22723801230749E+01  1.27514266542133E+00
(PID.TID 0000.0001)  ploadbar=  1.01060111898130E+05
 cg2d: Sum(rhs),rhsMax =  -8.24262931963454E+01  1.27248503304081E+00
(PID.TID 0000.0001)  ploadbar=  1.01061742330815E+05
 cg2d: Sum(rhs),rhsMax =  -8.23592433218962E+01  1.27325656255356E+00
(PID.TID 0000.0001)  ploadbar=  1.01063372763500E+05
 cg2d: Sum(rhs),rhsMax =  -8.20627120905138E+01  1.27760168795066E+00
(PID.TID 0000.0001)  ploadbar=  1.01065003196185E+05
 cg2d: Sum(rhs),rhsMax =  -8.17944466401516E+01  1.28154117292217E+00
(PID.TID 0000.0001)  ploadbar=  1.01066633628870E+05
 cg2d: Sum(rhs),rhsMax =  -8.15495512530436E+01  1.28513957214973E+00
(PID.TID 0000.0001)  ploadbar=  1.01068264061554E+05
 cg2d: Sum(rhs),rhsMax =  -8.13259046947499E+01  1.28842101225817E+00
(PID.TID 0000.0001)  ploadbar=  1.01069894494239E+05
 cg2d: Sum(rhs),rhsMax =  -8.11492991382448E+01  1.29099483435974E+00
(PID.TID 0000.0001)  ploadbar=  1.01070321501861E+05
 cg2d: Sum(rhs),rhsMax =  -8.09913261748030E+01  1.29330104148012E+00
(PID.TID 0000.0001)  ploadbar=  1.01070748509484E+05
 cg2d: Sum(rhs),rhsMax =  -8.08441949963780E+01  1.29545848906685E+00
(PID.TID 0000.0001)  ploadbar=  1.01071175517106E+05
 cg2d: Sum(rhs),rhsMax =  -8.06925112637390E+01  1.29770475020573E+00
(PID.TID 0000.0001)  ploadbar=  1.01071602524728E+05
 cg2d: Sum(rhs),rhsMax =  -8.05235570918478E+01  1.30023761459938E+00
(PID.TID 0000.0001)  ploadbar=  1.01072029532350E+05
 cg2d: Sum(rhs),rhsMax =  -8.03312551998347E+01  1.30315629390225E+00
(PID.TID 0000.0001)  ploadbar=  1.01072456539972E+05
 cg2d: Sum(rhs),rhsMax =  -8.00511467848044E+01  1.30748843391331E+00
(PID.TID 0000.0001)  ploadbar=  1.01073729460970E+05
 cg2d: Sum(rhs),rhsMax =  -7.97508764382055E+01  1.31214301070935E+00
(PID.TID 0000.0001)  ploadbar=  1.01075002381969E+05
 cg2d: Sum(rhs),rhsMax =  -7.94161202851619E+01  1.31736066343742E+00
(PID.TID 0000.0001)  ploadbar=  1.01076275302967E+05
 cg2d: Sum(rhs),rhsMax =  -7.90402940169855E+01  1.32326390926853E+00
(PID.TID 0000.0001)  ploadbar=  1.01077548223966E+05
 cg2d: Sum(rhs),rhsMax =  -7.86196695126944E+01  1.32992895754403E+00
(PID.TID 0000.0001)  ploadbar=  1.01078821144964E+05
 cg2d: Sum(rhs),rhsMax =  -7.81502719032648E+01  1.33744264534054E+00
(PID.TID 0000.0001)  ploadbar=  1.01080094065963E+05
 cg2d: Sum(rhs),rhsMax =  -7.76854628302417E+01  1.34499774532541E+00
(PID.TID 0000.0001)  ploadbar=  1.01080066865372E+05
 cg2d: Sum(rhs),rhsMax =  -7.71905856295426E+01  1.35319970057453E+00
(PID.TID 0000.0001)  ploadbar=  1.01080039664782E+05
 cg2d: Sum(rhs),rhsMax =  -7.66589819989679E+01  1.36218553256034E+00
(PID.TID 0000.0001)  ploadbar=  1.01080012464192E+05
 cg2d: Sum(rhs),rhsMax =  -7.61034705568938E+01  1.37174788891807E+00
(PID.TID 0000.0001)  ploadbar=  1.01079985263602E+05
 cg2d: Sum(rhs),rhsMax =  -7.55348520505003E+01  1.38170285162967E+00
(PID.TID 0000.0001)  ploadbar=  1.01079958063012E+05
 cg2d: Sum(rhs),rhsMax =  -7.49624302167272E+01  1.39188623168761E+00
(PID.TID 0000.0001)  ploadbar=  1.01079930862422E+05
 cg2d: Sum(rhs),rhsMax =  -7.43904962830968E+01  1.40221587665576E+00
(PID.TID 0000.0001)  ploadbar=  1.01079400343692E+05
 cg2d: Sum(rhs),rhsMax =  -7.38039830783302E+01  1.41297782721630E+00
(PID.TID 0000.0001)  ploadbar=  1.01078869824963E+05
 cg2d: Sum(rhs),rhsMax =  -7.31989995518217E+01  1.42425893725206E+00
(PID.TID 0000.0001)  ploadbar=  1.01078339306233E+05
 cg2d: Sum(rhs),rhsMax =  -7.25748823833383E+01  1.43609091103016E+00
(PID.TID 0000.0001)  ploadbar=  1.01077808787504E+05
 cg2d: Sum(rhs),rhsMax =  -7.19306886216226E+01  1.44851234529864E+00
(PID.TID 0000.0001)  ploadbar=  1.01077278268774E+05
 cg2d: Sum(rhs),rhsMax =  -7.12651414483569E+01  1.46157258343149E+00
(PID.TID 0000.0001)  ploadbar=  1.01076747750045E+05
 cg2d: Sum(rhs),rhsMax =  -7.05747998526157E+01  1.47545927786112E+00
(PID.TID 0000.0001)  ploadbar=  1.01076482304981E+05
 cg2d: Sum(rhs),rhsMax =  -6.98795949213098E+01  1.48978605472167E+00
(PID.TID 0000.0001)  ploadbar=  1.01076216859916E+05
 cg2d: Sum(rhs),rhsMax =  -6.91900204631820E+01  1.50433833438927E+00
(PID.TID 0000.0001)  ploadbar=  1.01075951414852E+05
 cg2d: Sum(rhs),rhsMax =  -6.85169552242454E+01  1.51887305728987E+00
(PID.TID 0000.0001)  ploadbar=  1.01075685969788E+05
 cg2d: Sum(rhs),rhsMax =  -6.78710777751844E+01  1.53313394864166E+00
(PID.TID 0000.0001)  ploadbar=  1.01075420524724E+05
 cg2d: Sum(rhs),rhsMax =  -6.72624660614143E+01  1.54685844443127E+00
(PID.TID 0000.0001)  ploadbar=  1.01075155079660E+05
 cg2d: Sum(rhs),rhsMax =  -6.66899662401823E+01  1.55994349763174E+00
(PID.TID 0000.0001)  ploadbar=  1.01074560683550E+05
 cg2d: Sum(rhs),rhsMax =  -6.61482722811755E+01  1.57246899820437E+00
(PID.TID 0000.0001)  ploadbar=  1.01073966287441E+05
 cg2d: Sum(rhs),rhsMax =  -6.56385638502104E+01  1.58436804086735E+00
(PID.TID 0000.0001)  ploadbar=  1.01073371891332E+05
 cg2d: Sum(rhs),rhsMax =  -6.51684848070704E+01  1.59541492204671E+00
(PID.TID 0000.0001)  ploadbar=  1.01072777495223E+05
 cg2d: Sum(rhs),rhsMax =  -6.47419575903790E+01  1.60546912668779E+00
(PID.TID 0000.0001)  ploadbar=  1.01072183099114E+05
 cg2d: Sum(rhs),rhsMax =  -6.43606276033670E+01  1.61444458829914E+00
(PID.TID 0000.0001)  ploadbar=  1.01071588703005E+05
 cg2d: Sum(rhs),rhsMax =  -6.40286258209582E+01  1.62231727959535E+00
(PID.TID 0000.0001)  ploadbar=  1.01070485035033E+05
 cg2d: Sum(rhs),rhsMax =  -6.37450930146821E+01  1.62906930099562E+00
(PID.TID 0000.0001)  ploadbar=  1.01069381367061E+05
 cg2d: Sum(rhs),rhsMax =  -6.35132154951376E+01  1.63457911463140E+00
(PID.TID 0000.0001)  ploadbar=  1.01068277699090E+05
 cg2d: Sum(rhs),rhsMax =  -6.33326665077597E+01  1.63882479312494E+00
(PID.TID 0000.0001)  ploadbar=  1.01067174031118E+05
 cg2d: Sum(rhs),rhsMax =  -6.31977959602661E+01  1.64192561423279E+00
(PID.TID 0000.0001)  ploadbar=  1.01066070363146E+05
 cg2d: Sum(rhs),rhsMax =  -6.31009477948162E+01  1.64406136635194E+00
(PID.TID 0000.0001)  ploadbar=  1.01064966695175E+05
 cg2d: Sum(rhs),rhsMax =  -6.30392310671663E+01  1.64530205462792E+00
(PID.TID 0000.0001)  ploadbar=  1.01064870717161E+05
 cg2d: Sum(rhs),rhsMax =  -6.30036717897893E+01  1.64587186380558E+00
(PID.TID 0000.0001)  ploadbar=  1.01064774739148E+05
 cg2d: Sum(rhs),rhsMax =  -6.29959228822406E+01  1.64571913659364E+00
(PID.TID 0000.0001)  ploadbar=  1.01064678761135E+05
 cg2d: Sum(rhs),rhsMax =  -6.30131404723859E+01  1.64491483644182E+00
(PID.TID 0000.0001)  ploadbar=  1.01064582783122E+05
 cg2d: Sum(rhs),rhsMax =  -6.30505120463414E+01  1.64358105078470E+00
(PID.TID 0000.0001)  ploadbar=  1.01064486805108E+05
 cg2d: Sum(rhs),rhsMax =  -6.31058911166370E+01  1.64177439672175E+00
(PID.TID 0000.0001)  ploadbar=  1.01064390827095E+05
 cg2d: Sum(rhs),rhsMax =  -6.31776949427066E+01  1.63957232240811E+00
(PID.TID 0000.0001)  ploadbar=  1.01064498451587E+05
 cg2d: Sum(rhs),rhsMax =  -6.32587870539311E+01  1.63715796077605E+00
(PID.TID 0000.0001)  ploadbar=  1.01064606076078E+05
 cg2d: Sum(rhs),rhsMax =  -6.33533859976873E+01  1.63441943944333E+00
(PID.TID 0000.0001)  ploadbar=  1.01064713700570E+05
 cg2d: Sum(rhs),rhsMax =  -6.34551449701617E+01  1.63151300046329E+00
(PID.TID 0000.0001)  ploadbar=  1.01064821325061E+05
 cg2d: Sum(rhs),rhsMax =  -6.35577495390065E+01  1.62859321557399E+00
(PID.TID 0000.0001)  ploadbar=  1.01064928949553E+05
 cg2d: Sum(rhs),rhsMax =  -6.36566537801348E+01  1.62576688230810E+00
(PID.TID 0000.0001)  ploadbar=  1.01065036574044E+05
 cg2d: Sum(rhs),rhsMax =  -6.37414605800684E+01  1.62322702337681E+00
(PID.TID 0000.0001)  ploadbar=  1.01065396407990E+05
 cg2d: Sum(rhs),rhsMax =  -6.38186145704656E+01  1.62080109607935E+00
(PID.TID 0000.0001)  ploadbar=  1.01065756241936E+05
 cg2d: Sum(rhs),rhsMax =  -6.38839704013330E+01  1.61858860860400E+00
(PID.TID 0000.0001)  ploadbar=  1.01066116075882E+05
 cg2d: Sum(rhs),rhsMax =  -6.39330431864318E+01  1.61669375516192E+00
(PID.TID 0000.0001)  ploadbar=  1.01066475909828E+05
 cg2d: Sum(rhs),rhsMax =  -6.39656628055317E+01  1.61511613858948E+00
(PID.TID 0000.0001)  ploadbar=  1.01066835743774E+05
 cg2d: Sum(rhs),rhsMax =  -6.39826091359299E+01  1.61382724520793E+00
(PID.TID 0000.0001)  ploadbar=  1.01067195577720E+05
 cg2d: Sum(rhs),rhsMax =  -6.40170456170922E+01  1.61217065884282E+00
(PID.TID 0000.0001)  ploadbar=  1.01067726597111E+05
 cg2d: Sum(rhs),rhsMax =  -6.40543245759375E+01  1.61051307695923E+00
(PID.TID 0000.0001)  ploadbar=  1.01068257616502E+05
 cg2d: Sum(rhs),rhsMax =  -6.40912684155808E+01  1.60892703563800E+00
(PID.TID 0000.0001)  ploadbar=  1.01068788635894E+05
 cg2d: Sum(rhs),rhsMax =  -6.41299420725955E+01  1.60735266539562E+00
(PID.TID 0000.0001)  ploadbar=  1.01069319655285E+05
 cg2d: Sum(rhs),rhsMax =  -6.41704410302066E+01  1.60577857537141E+00
(PID.TID 0000.0001)  ploadbar=  1.01069850674676E+05
 cg2d: Sum(rhs),rhsMax =  -6.42148504159548E+01  1.60414494477369E+00
(PID.TID 0000.0001)  ploadbar=  1.01070381694067E+05
 cg2d: Sum(rhs),rhsMax =  -6.42554822833591E+01  1.60260076920663E+00
(PID.TID 0000.0001)  ploadbar=  1.01070616515185E+05
 cg2d: Sum(rhs),rhsMax =  -6.43010259174766E+01  1.60091866291499E+00
(PID.TID 0000.0001)  ploadbar=  1.01070851336303E+05
 cg2d: Sum(rhs),rhsMax =  -6.43458809199219E+01  1.59923198068156E+00
(PID.TID 0000.0001)  ploadbar=  1.01071086157421E+05
 cg2d: Sum(rhs),rhsMax =  -6.43882067873792E+01  1.59758302995977E+00
(PID.TID 0000.0001)  ploadbar=  1.01071320978539E+05
 cg2d: Sum(rhs),rhsMax =  -6.44303354140971E+01  1.59591027974781E+00
(PID.TID 0000.0001)  ploadbar=  1.01071555799657E+05
 cg2d: Sum(rhs),rhsMax =  -6.37045890235054E+01  1.61342454608773E+00
(PID.TID 0000.0001)  ploadbar=  1.01071790620775E+05
 cg2d: Sum(rhs),rhsMax =  -6.24723280610396E+01  1.64459805409276E+00
(PID.TID 0000.0001)  ploadbar=  1.01072157285476E+05
 cg2d: Sum(rhs),rhsMax =  -6.11928101717286E+01  1.67834409182690E+00
(PID.TID 0000.0001)  ploadbar=  1.01072523950178E+05
 cg2d: Sum(rhs),rhsMax =  -5.98605953588727E+01  1.71505791420280E+00
(PID.TID 0000.0001)  ploadbar=  1.01072890614880E+05
 cg2d: Sum(rhs),rhsMax =  -5.84278868738855E+01  1.75647040094865E+00
(PID.TID 0000.0001)  ploadbar=  1.01073257279581E+05
 cg2d: Sum(rhs),rhsMax =  -5.68869926036581E+01  1.80339074040977E+00
(PID.TID 0000.0001)  ploadbar=  1.01073623944283E+05
 cg2d: Sum(rhs),rhsMax =  -5.52613522035590E+01  1.85575737625598E+00
(PID.TID 0000.0001)  ploadbar=  1.01073990608985E+05
 cg2d: Sum(rhs),rhsMax =  -5.37613784120269E+01  1.90680518207810E+00
(PID.TID 0000.0001)  ploadbar=  1.01074588390674E+05
 cg2d: Sum(rhs),rhsMax =  -5.23005611587140E+01  1.95928379088869E+00
(PID.TID 0000.0001)  ploadbar=  1.01075186172363E+05
 cg2d: Sum(rhs),rhsMax =  -5.08856946947414E+01  2.01292095616589E+00
(PID.TID 0000.0001)  ploadbar=  1.01075783954052E+05
 cg2d: Sum(rhs),rhsMax =  -4.95568134934950E+01  2.06599204602358E+00
(PID.TID 0000.0001)  ploadbar=  1.01076381735742E+05
 cg2d: Sum(rhs),rhsMax =  -4.84823226280045E+01  2.11079967668340E+00
(PID.TID 0000.0001)  ploadbar=  1.01076979517431E+05
 cg2d: Sum(rhs),rhsMax =  -4.78420959202143E+01  2.13799203792865E+00
(PID.TID 0000.0001)  ploadbar=  1.01077577299121E+05
 cg2d: Sum(rhs),rhsMax =  -4.73509476781132E+01  2.15918476529819E+00
(PID.TID 0000.0001)  ploadbar=  1.01079120518597E+05
 cg2d: Sum(rhs),rhsMax =  -4.68588728220015E+01  2.18093953946885E+00
(PID.TID 0000.0001)  ploadbar=  1.01080663738074E+05
 cg2d: Sum(rhs),rhsMax =  -4.62793138281508E+01  2.20738559673800E+00
(PID.TID 0000.0001)  ploadbar=  1.01082206957551E+05
 cg2d: Sum(rhs),rhsMax =  -4.55973371608354E+01  2.23957647671494E+00
(PID.TID 0000.0001)  ploadbar=  1.01083750177028E+05
 cg2d: Sum(rhs),rhsMax =  -4.48394687122735E+01  2.27663751688824E+00
(PID.TID 0000.0001)  ploadbar=  1.01085293396504E+05
 cg2d: Sum(rhs),rhsMax =  -4.40822181316962E+01  2.31497685005330E+00
(PID.TID 0000.0001)  ploadbar=  1.01086836615981E+05
 cg2d: Sum(rhs),rhsMax =  -4.33552835885177E+01  2.35296154948563E+00
(PID.TID 0000.0001)  ploadbar=  1.01087362639198E+05
 cg2d: Sum(rhs),rhsMax =  -4.27505055111942E+01  2.38534559611194E+00
(PID.TID 0000.0001)  ploadbar=  1.01087888662415E+05
 cg2d: Sum(rhs),rhsMax =  -4.22912661111576E+01  2.41026657261600E+00
(PID.TID 0000.0001)  ploadbar=  1.01088414685632E+05
 cg2d: Sum(rhs),rhsMax =  -4.19724269535741E+01  2.42751075399060E+00
(PID.TID 0000.0001)  ploadbar=  1.01088940708849E+05
 cg2d: Sum(rhs),rhsMax =  -4.17707607740855E+01  2.43808129374310E+00
(PID.TID 0000.0001)  ploadbar=  1.01089466732066E+05
 cg2d: Sum(rhs),rhsMax =  -4.16351982702501E+01  2.44478201124468E+00
(PID.TID 0000.0001)  ploadbar=  1.01089992755283E+05
 cg2d: Sum(rhs),rhsMax =  -4.15509028321098E+01  2.44856089119394E+00
(PID.TID 0000.0001)  ploadbar=  1.01089010222588E+05
 cg2d: Sum(rhs),rhsMax =  -4.14218773864669E+01  2.45505213497239E+00
(PID.TID 0000.0001)  ploadbar=  1.01088027689894E+05
 cg2d: Sum(rhs),rhsMax =  -4.12534910634377E+01  2.46397372134688E+00
(PID.TID 0000.0001)  ploadbar=  1.01087045157200E+05
 cg2d: Sum(rhs),rhsMax =  -4.10619801046552E+01  2.47439586566714E+00
(PID.TID 0000.0001)  ploadbar=  1.01086062624505E+05
 cg2d: Sum(rhs),rhsMax =  -4.08694970250997E+01  2.48499679378504E+00
(PID.TID 0000.0001)  ploadbar=  1.01085080091811E+05
 cg2d: Sum(rhs),rhsMax =  -4.06664926245915E+01  2.49634577192583E+00
(PID.TID 0000.0001)  ploadbar=  1.01084097559117E+05
 cg2d: Sum(rhs),rhsMax =  -4.05415071052990E+01  2.50292606878884E+00
(PID.TID 0000.0001)  ploadbar=  1.01083947224312E+05
 cg2d: Sum(rhs),rhsMax =  -4.04880095051584E+01  2.50504824261484E+00
(PID.TID 0000.0001)  ploadbar=  1.01083796889506E+05
 cg2d: Sum(rhs),rhsMax =  -4.05092692000715E+01  2.50246904401465E+00
(PID.TID 0000.0001)  ploadbar=  1.01083646554701E+05
 cg2d: Sum(rhs),rhsMax =  -4.05884508907855E+01  2.49623345218586E+00
(PID.TID 0000.0001)  ploadbar=  1.01083496219896E+05
 cg2d: Sum(rhs),rhsMax =  -4.07150949375063E+01  2.48701739145370E+00
(PID.TID 0000.0001)  ploadbar=  1.01083345885091E+05
 cg2d: Sum(rhs),rhsMax =  -4.08689823882809E+01  2.47609078893605E+00
(PID.TID 0000.0001)  ploadbar=  1.01083195550285E+05
 cg2d: Sum(rhs),rhsMax =  -4.09555544741953E+01  2.46938585009204E+00
(PID.TID 0000.0001)  ploadbar=  1.01082952337915E+05
 cg2d: Sum(rhs),rhsMax =  -4.10294403528348E+01  2.46355451451598E+00
(PID.TID 0000.0001)  ploadbar=  1.01082709125544E+05
 cg2d: Sum(rhs),rhsMax =  -4.11003212599922E+01  2.45799918574683E+00
(PID.TID 0000.0001)  ploadbar=  1.01082465913174E+05
 cg2d: Sum(rhs),rhsMax =  -4.11676526866275E+01  2.45274014397196E+00
(PID.TID 0000.0001)  ploadbar=  1.01082222700803E+05
 cg2d: Sum(rhs),rhsMax =  -4.12397654902310E+01  2.44727381773041E+00
(PID.TID 0000.0001)  ploadbar=  1.01081979488433E+05
 cg2d: Sum(rhs),rhsMax =  -4.13311708499014E+01  2.44073738833829E+00
(PID.TID 0000.0001)  ploadbar=  1.01081736276062E+05
 cg2d: Sum(rhs),rhsMax =  -4.14120906889490E+01  2.43486157499342E+00
(PID.TID 0000.0001)  ploadbar=  1.01081417971937E+05
 cg2d: Sum(rhs),rhsMax =  -4.14904884614646E+01  2.42915970316962E+00
(PID.TID 0000.0001)  ploadbar=  1.01081099667813E+05
 cg2d: Sum(rhs),rhsMax =  -4.15785630846410E+01  2.42290553154975E+00
(PID.TID 0000.0001)  ploadbar=  1.01080781363688E+05
 cg2d: Sum(rhs),rhsMax =  -4.16858401121103E+01  2.41554431266658E+00
(PID.TID 0000.0001)  ploadbar=  1.01080463059564E+05
 cg2d: Sum(rhs),rhsMax =  -4.18215913791048E+01  2.40655324045864E+00
(PID.TID 0000.0001)  ploadbar=  1.01080144755439E+05
 cg2d: Sum(rhs),rhsMax =  -4.19938640352608E+01  2.39550491506124E+00
(PID.TID 0000.0001)  ploadbar=  1.01079826451314E+05
 cg2d: Sum(rhs),rhsMax =  -4.21882600362430E+01  2.38333662627691E+00
(PID.TID 0000.0001)  ploadbar=  1.01078690949841E+05
 cg2d: Sum(rhs),rhsMax =  -4.24000816359226E+01  2.37034271061158E+00
(PID.TID 0000.0001)  ploadbar=  1.01077555448368E+05
 cg2d: Sum(rhs),rhsMax =  -4.26256424684462E+01  2.35675211814992E+00
(PID.TID 0000.0001)  ploadbar=  1.01076419946895E+05
 cg2d: Sum(rhs),rhsMax =  -4.28589492247840E+01  2.34290784682757E+00
(PID.TID 0000.0001)  ploadbar=  1.01075284445422E+05
 cg2d: Sum(rhs),rhsMax =  -4.30912677210408E+01  2.32928398982240E+00
(PID.TID 0000.0001)  ploadbar=  1.01074148943949E+05
 cg2d: Sum(rhs),rhsMax =  -4.33180176170902E+01  2.31611179431209E+00
(PID.TID 0000.0001)  ploadbar=  1.01073013442476E+05
 cg2d: Sum(rhs),rhsMax =  -4.35440305893308E+01  2.30306057937927E+00
(PID.TID 0000.0001)  ploadbar=  1.01071170097209E+05
 cg2d: Sum(rhs),rhsMax =  -4.37564467878874E+01  2.29078800797717E+00
(PID.TID 0000.0001)  ploadbar=  1.01069326751941E+05
 cg2d: Sum(rhs),rhsMax =  -4.39624771745602E+01  2.27889428252555E+00
(PID.TID 0000.0001)  ploadbar=  1.01067483406673E+05
 cg2d: Sum(rhs),rhsMax =  -4.41622339340732E+01  2.26736118819078E+00
(PID.TID 0000.0001)  ploadbar=  1.01065640061405E+05
 cg2d: Sum(rhs),rhsMax =  -4.43393469711709E+01  2.25700988589611E+00
(PID.TID 0000.0001)  ploadbar=  1.01063796716138E+05
 cg2d: Sum(rhs),rhsMax =  -4.44918244660294E+01  2.24790634812063E+00
(PID.TID 0000.0001)  ploadbar=  1.01061953370870E+05
 cg2d: Sum(rhs),rhsMax =  -4.46586878173847E+01  2.23824010448474E+00
(PID.TID 0000.0001)  ploadbar=  1.01059779527537E+05
 cg2d: Sum(rhs),rhsMax =  -4.48250763474677E+01  2.22876110489995E+00
(PID.TID 0000.0001)  ploadbar=  1.01057605684204E+05
 cg2d: Sum(rhs),rhsMax =  -4.49952688872722E+01  2.21924813821855E+00
(PID.TID 0000.0001)  ploadbar=  1.01055431840871E+05
 cg2d: Sum(rhs),rhsMax =  -4.51685921750802E+01  2.20972590491530E+00
(PID.TID 0000.0001)  ploadbar=  1.01053257997539E+05
 cg2d: Sum(rhs),rhsMax =  -4.53463832110500E+01  2.20012318129185E+00
(PID.TID 0000.0001)  ploadbar=  1.01051084154206E+05
 cg2d: Sum(rhs),rhsMax =  -4.55335180286142E+01  2.19019601937843E+00
(PID.TID 0000.0001)  ploadbar=  1.01048910310873E+05
 cg2d: Sum(rhs),rhsMax =  -4.57275179317837E+01  2.18007110097751E+00
(PID.TID 0000.0001)  ploadbar=  1.01047445781008E+05
 cg2d: Sum(rhs),rhsMax =  -4.59309436148353E+01  2.16962193052384E+00
(PID.TID 0000.0001)  ploadbar=  1.01045981251144E+05
 cg2d: Sum(rhs),rhsMax =  -4.61352025530093E+01  2.15925131557327E+00
(PID.TID 0000.0001)  ploadbar=  1.01044516721279E+05
 cg2d: Sum(rhs),rhsMax =  -4.63450086488250E+01  2.14873213556614E+00
(PID.TID 0000.0001)  ploadbar=  1.01043052191415E+05
 cg2d: Sum(rhs),rhsMax =  -4.65606710677223E+01  2.13804628061075E+00
(PID.TID 0000.0001)  ploadbar=  1.01041587661550E+05
 cg2d: Sum(rhs),rhsMax =  -4.67823017754340E+01  2.12718531643323E+00
(PID.TID 0000.0001)  ploadbar=  1.01040123131686E+05
 cg2d: Sum(rhs),rhsMax =  -4.70237154930093E+01  2.11561119569642E+00
(PID.TID 0000.0001)  ploadbar=  1.01038754553247E+05
 cg2d: Sum(rhs),rhsMax =  -4.72969788147456E+01  2.10281136133323E+00
(PID.TID 0000.0001)  ploadbar=  1.01037385974808E+05
 cg2d: Sum(rhs),rhsMax =  -4.76128768148828E+01  2.08835455374456E+00
(PID.TID 0000.0001)  ploadbar=  1.01036017396369E+05
 cg2d: Sum(rhs),rhsMax =  -4.79869482349985E+01  2.07163223663231E+00
(PID.TID 0000.0001)  ploadbar=  1.01034648817930E+05
 cg2d: Sum(rhs),rhsMax =  -4.84271184295603E+01  2.05242013028402E+00
(PID.TID 0000.0001)  ploadbar=  1.01033280239491E+05
 cg2d: Sum(rhs),rhsMax =  -4.89453035878930E+01  2.03036264530955E+00
(PID.TID 0000.0001)  ploadbar=  1.01031911661052E+05
 cg2d: Sum(rhs),rhsMax =  -4.95257795685063E+01  2.00622158902566E+00
(PID.TID 0000.0001)  ploadbar=  1.01031162485320E+05
 cg2d: Sum(rhs),rhsMax =  -5.01557881287761E+01  1.98065322747476E+00
(PID.TID 0000.0001)  ploadbar=  1.01030413309589E+05
 cg2d: Sum(rhs),rhsMax =  -5.08247175134592E+01  1.95418656130881E+00
(PID.TID 0000.0001)  ploadbar=  1.01029664133857E+05
 cg2d: Sum(rhs),rhsMax =  -5.15233267744776E+01  1.92725751698987E+00
(PID.TID 0000.0001)  ploadbar=  1.01028914958125E+05
 cg2d: Sum(rhs),rhsMax =  -5.22521233907385E+01  1.89990763956713E+00
(PID.TID 0000.0001)  ploadbar=  1.01028165782393E+05
 cg2d: Sum(rhs),rhsMax =  -5.30182437251223E+01  1.87194349535047E+00
(PID.TID 0000.0001)  ploadbar=  1.01027416606662E+05
 cg2d: Sum(rhs),rhsMax =  -5.38476557635076E+01  1.84266575511998E+00
(PID.TID 0000.0001)  ploadbar=  1.01027138953624E+05
 cg2d: Sum(rhs),rhsMax =  -5.47496574469977E+01  1.81192583796420E+00
(PID.TID 0000.0001)  ploadbar=  1.01026861300586E+05
 cg2d: Sum(rhs),rhsMax =  -5.57882791900576E+01  1.77786635419285E+00
(PID.TID 0000.0001)  ploadbar=  1.01026583647548E+05
 cg2d: Sum(rhs),rhsMax =  -5.69985787049954E+01  1.73983815021627E+00
(PID.TID 0000.0001)  ploadbar=  1.01026305994510E+05
 cg2d: Sum(rhs),rhsMax =  -5.83923957885231E+01  1.69807196392959E+00
(PID.TID 0000.0001)  ploadbar=  1.01026028341472E+05
 cg2d: Sum(rhs),rhsMax =  -5.99779484346183E+01  1.65297857741907E+00
(PID.TID 0000.0001)  ploadbar=  1.01025750688434E+05
 cg2d: Sum(rhs),rhsMax =  -6.17729211603072E+01  1.60472757687127E+00
(PID.TID 0000.0001)  ploadbar=  1.01026486745797E+05
 cg2d: Sum(rhs),rhsMax =  -6.37308613556366E+01  1.55518748192275E+00
(PID.TID 0000.0001)  ploadbar=  1.01027222803159E+05
 cg2d: Sum(rhs),rhsMax =  -6.58118848465485E+01  1.50574849463128E+00
(PID.TID 0000.0001)  ploadbar=  1.01027958860521E+05
 cg2d: Sum(rhs),rhsMax =  -6.79824986145099E+01  1.45738489651215E+00
(PID.TID 0000.0001)  ploadbar=  1.01028694917884E+05
 cg2d: Sum(rhs),rhsMax =  -7.02307656095813E+01  1.41041756599225E+00
(PID.TID 0000.0001)  ploadbar=  1.01029430975246E+05
 cg2d: Sum(rhs),rhsMax =  -7.14717928789561E+01  1.38557997186600E+00
(PID.TID 0000.0001)  ploadbar=  1.01030167032609E+05
 cg2d: Sum(rhs),rhsMax =  -7.09877345759162E+01  1.39469726964575E+00
(PID.TID 0000.0001)  ploadbar=  1.01030258964243E+05
 cg2d: Sum(rhs),rhsMax =  -7.06110105496154E+01  1.40182283098521E+00
(PID.TID 0000.0001)  ploadbar=  1.01030350895878E+05
 cg2d: Sum(rhs),rhsMax =  -7.03408470655566E+01  1.40690685683574E+00
(PID.TID 0000.0001)  ploadbar=  1.01030442827512E+05
 cg2d: Sum(rhs),rhsMax =  -7.01506299669924E+01  1.41043522429039E+00
(PID.TID 0000.0001)  ploadbar=  1.01030534759147E+05
 cg2d: Sum(rhs),rhsMax =  -7.00306717668422E+01  1.41257433073139E+00
(PID.TID 0000.0001)  ploadbar=  1.01030626690781E+05
 cg2d: Sum(rhs),rhsMax =  -6.92727408467435E+01  1.42775681176701E+00
(PID.TID 0000.0001)  ploadbar=  1.01030718622416E+05
 cg2d: Sum(rhs),rhsMax =  -6.82772067795267E+01  1.44825505568349E+00
(PID.TID 0000.0001)  ploadbar=  1.01032181263946E+05
 cg2d: Sum(rhs),rhsMax =  -6.75342158431322E+01  1.46381802156537E+00
(PID.TID 0000.0001)  ploadbar=  1.01033643905477E+05
 cg2d: Sum(rhs),rhsMax =  -6.70318304185845E+01  1.47436162125967E+00
(PID.TID 0000.0001)  ploadbar=  1.01035106547008E+05
 cg2d: Sum(rhs),rhsMax =  -6.67262317317055E+01  1.48062298010111E+00
(PID.TID 0000.0001)  ploadbar=  1.01036569188538E+05
 cg2d: Sum(rhs),rhsMax =  -6.65533529938562E+01  1.48391239933571E+00
(PID.TID 0000.0001)  ploadbar=  1.01038031830069E+05
 cg2d: Sum(rhs),rhsMax =  -6.64387390806141E+01  1.48584744762526E+00
(PID.TID 0000.0001)  ploadbar=  1.01039494471600E+05
 cg2d: Sum(rhs),rhsMax =  -6.63308486380637E+01  1.48769785639134E+00
(PID.TID 0000.0001)  ploadbar=  1.01041084945959E+05
 cg2d: Sum(rhs),rhsMax =  -6.61301258098530E+01  1.49170559080278E+00
(PID.TID 0000.0001)  ploadbar=  1.01042675420319E+05
 cg2d: Sum(rhs),rhsMax =  -6.57867485279406E+01  1.49904176348535E+00
(PID.TID 0000.0001)  ploadbar=  1.01044265894679E+05
 cg2d: Sum(rhs),rhsMax =  -6.53158862528780E+01  1.50945593750399E+00
(PID.TID 0000.0001)  ploadbar=  1.01045856369039E+05
 cg2d: Sum(rhs),rhsMax =  -6.47710637199154E+01  1.52181525552888E+00
(PID.TID 0000.0001)  ploadbar=  1.01047446843398E+05
 cg2d: Sum(rhs),rhsMax =  -6.42103883484833E+01  1.53481998625498E+00
(PID.TID 0000.0001)  ploadbar=  1.01049037317758E+05
 cg2d: Sum(rhs),rhsMax =  -6.36999285326536E+01  1.54682275297487E+00
(PID.TID 0000.0001)  ploadbar=  1.01049491038180E+05
 cg2d: Sum(rhs),rhsMax =  -6.33089684340122E+01  1.55605739028433E+00
(PID.TID 0000.0001)  ploadbar=  1.01049944758602E+05
 cg2d: Sum(rhs),rhsMax =  -6.30667142198290E+01  1.56168835866854E+00
(PID.TID 0000.0001)  ploadbar=  1.01050398479024E+05
 cg2d: Sum(rhs),rhsMax =  -6.29483959285939E+01  1.56424188730574E+00
(PID.TID 0000.0001)  ploadbar=  1.01050852199446E+05
 cg2d: Sum(rhs),rhsMax =  -6.29067907213619E+01  1.56485414670143E+00
(PID.TID 0000.0001)  ploadbar=  1.01051305919868E+05
 cg2d: Sum(rhs),rhsMax =  -6.28792939176574E+01  1.56506549443966E+00
(PID.TID 0000.0001)  ploadbar=  1.01051759640290E+05
 cg2d: Sum(rhs),rhsMax =  -6.27244925701172E+01  1.56846215675539E+00
(PID.TID 0000.0001)  ploadbar=  1.01050387641339E+05
 cg2d: Sum(rhs),rhsMax =  -6.23858246832634E+01  1.57651381208871E+00
(PID.TID 0000.0001)  ploadbar=  1.01049015642388E+05
 cg2d: Sum(rhs),rhsMax =  -6.18621962046980E+01  1.58939729022211E+00
(PID.TID 0000.0001)  ploadbar=  1.01047643643438E+05
 cg2d: Sum(rhs),rhsMax =  -6.11851261296176E+01  1.60652314092753E+00
(PID.TID 0000.0001)  ploadbar=  1.01046271644487E+05
 cg2d: Sum(rhs),rhsMax =  -6.04564775527535E+01  1.62541425337504E+00
(PID.TID 0000.0001)  ploadbar=  1.01044899645537E+05
 cg2d: Sum(rhs),rhsMax =  -5.97834294665621E+01  1.64322726346596E+00
(PID.TID 0000.0001)  ploadbar=  1.01043527646586E+05
 cg2d: Sum(rhs),rhsMax =  -5.91559858059322E+01  1.66014434327777E+00
(PID.TID 0000.0001)  ploadbar=  1.01043069521883E+05
 cg2d: Sum(rhs),rhsMax =  -5.85829651018227E+01  1.67584027789618E+00
(PID.TID 0000.0001)  ploadbar=  1.01042611397180E+05
 cg2d: Sum(rhs),rhsMax =  -5.80616395770498E+01  1.69030753357787E+00
(PID.TID 0000.0001)  ploadbar=  1.01042153272477E+05
 cg2d: Sum(rhs),rhsMax =  -5.75829404997516E+01  1.70373526756686E+00
(PID.TID 0000.0001)  ploadbar=  1.01041695147774E+05
 cg2d: Sum(rhs),rhsMax =  -5.71346759012513E+01  1.71642581193361E+00
(PID.TID 0000.0001)  ploadbar=  1.01041237023071E+05
 cg2d: Sum(rhs),rhsMax =  -5.68577503657245E+01  1.72405364413120E+00
(PID.TID 0000.0001)  ploadbar=  1.01040778898368E+05
 cg2d: Sum(rhs),rhsMax =  -5.66188937460944E+01  1.73063560025580E+00
(PID.TID 0000.0001)  ploadbar=  1.01040997870372E+05
 cg2d: Sum(rhs),rhsMax =  -5.63608830870978E+01  1.73790403933539E+00
(PID.TID 0000.0001)  ploadbar=  1.01041216842375E+05
 cg2d: Sum(rhs),rhsMax =  -5.60609745047089E+01  1.74658067551739E+00
(PID.TID 0000.0001)  ploadbar=  1.01041435814379E+05
 cg2d: Sum(rhs),rhsMax =  -5.57212737850856E+01  1.75663799906539E+00
(PID.TID 0000.0001)  ploadbar=  1.01041654786382E+05
 cg2d: Sum(rhs),rhsMax =  -5.53626682144884E+01  1.76745833659941E+00
(PID.TID 0000.0001)  ploadbar=  1.01041873758386E+05
 cg2d: Sum(rhs),rhsMax =  -5.50174918672904E+01  1.77801563898540E+00
(PID.TID 0000.0001)  ploadbar=  1.01042092730389E+05
 cg2d: Sum(rhs),rhsMax =  -5.47302743216357E+01  1.78682054519528E+00
(PID.TID 0000.0001)  ploadbar=  1.01041289880972E+05
 cg2d: Sum(rhs),rhsMax =  -5.45408628446967E+01  1.79249929280963E+00
(PID.TID 0000.0001)  ploadbar=  1.01040487031554E+05
 cg2d: Sum(rhs),rhsMax =  -5.44588725702709E+01  1.79466654516513E+00
(PID.TID 0000.0001)  ploadbar=  1.01039684182136E+05
 cg2d: Sum(rhs),rhsMax =  -5.44736011364352E+01  1.79364471628589E+00
(PID.TID 0000.0001)  ploadbar=  1.01038881332718E+05
 cg2d: Sum(rhs),rhsMax =  -5.45606112731164E+01  1.79023650349160E+00
(PID.TID 0000.0001)  ploadbar=  1.01038078483300E+05
 cg2d: Sum(rhs),rhsMax =  -5.46919096403672E+01  1.78537226514661E+00
(PID.TID 0000.0001)  ploadbar=  1.01037275633882E+05
 cg2d: Sum(rhs),rhsMax =  -5.48038869448909E+01  1.78115033787208E+00
(PID.TID 0000.0001)  ploadbar=  1.01035219069191E+05
 cg2d: Sum(rhs),rhsMax =  -5.48503222437145E+01  1.77905982042313E+00
(PID.TID 0000.0001)  ploadbar=  1.01033162504499E+05
 cg2d: Sum(rhs),rhsMax =  -5.48122536830846E+01  1.77970698693438E+00
(PID.TID 0000.0001)  ploadbar=  1.01031105939808E+05
 cg2d: Sum(rhs),rhsMax =  -5.46705728680909E+01  1.78372288586592E+00
(PID.TID 0000.0001)  ploadbar=  1.01029049375116E+05
 cg2d: Sum(rhs),rhsMax =  -5.44398331282824E+01  1.79067389205213E+00
(PID.TID 0000.0001)  ploadbar=  1.01026992810425E+05
 cg2d: Sum(rhs),rhsMax =  -5.42215499260667E+01  1.79725544640647E+00
(PID.TID 0000.0001)  ploadbar=  1.01024936245733E+05
 cg2d: Sum(rhs),rhsMax =  -5.40063988188414E+01  1.80375040338852E+00
(PID.TID 0000.0001)  ploadbar=  1.01023398794708E+05
 cg2d: Sum(rhs),rhsMax =  -5.37999649610748E+01  1.80995933035024E+00
(PID.TID 0000.0001)  ploadbar=  1.01021861343683E+05
 cg2d: Sum(rhs),rhsMax =  -5.36080178558237E+01  1.81567524267959E+00
(PID.TID 0000.0001)  ploadbar=  1.01020323892657E+05
 cg2d: Sum(rhs),rhsMax =  -5.34306565440429E+01  1.82088002104692E+00
(PID.TID 0000.0001)  ploadbar=  1.01018786441632E+05
 cg2d: Sum(rhs),rhsMax =  -5.32630257589932E+01  1.82572232243914E+00
(PID.TID 0000.0001)  ploadbar=  1.01017248990607E+05
 cg2d: Sum(rhs),rhsMax =  -5.30987041377427E+01  1.83041201617372E+00
(PID.TID 0000.0001)  ploadbar=  1.01015711539582E+05
 cg2d: Sum(rhs),rhsMax =  -5.28692971864255E+01  1.83740588559140E+00
(PID.TID 0000.0001)  ploadbar=  1.01015914720811E+05
 cg2d: Sum(rhs),rhsMax =  -5.26136473217545E+01  1.84539805465791E+00
(PID.TID 0000.0001)  ploadbar=  1.01016117902041E+05
 cg2d: Sum(rhs),rhsMax =  -5.23573843374281E+01  1.85350401096527E+00
(PID.TID 0000.0001)  ploadbar=  1.01016321083270E+05
 cg2d: Sum(rhs),rhsMax =  -5.21026852704425E+01  1.86164203835731E+00
(PID.TID 0000.0001)  ploadbar=  1.01016524264499E+05
 cg2d: Sum(rhs),rhsMax =  -5.18533692479621E+01  1.86967040028958E+00
(PID.TID 0000.0001)  ploadbar=  1.01016727445728E+05
 cg2d: Sum(rhs),rhsMax =  -5.17002900088235E+01  1.87428152043632E+00
(PID.TID 0000.0001)  ploadbar=  1.01016930626958E+05
 cg2d: Sum(rhs),rhsMax =  -5.16778073456697E+01  1.87419165504017E+00
(PID.TID 0000.0001)  ploadbar=  1.01017855824590E+05
 cg2d: Sum(rhs),rhsMax =  -5.17554958688596E+01  1.87048654876776E+00
(PID.TID 0000.0001)  ploadbar=  1.01018781022222E+05
 cg2d: Sum(rhs),rhsMax =  -5.19473614538575E+01  1.86269795111484E+00
(PID.TID 0000.0001)  ploadbar=  1.01019706219854E+05
 cg2d: Sum(rhs),rhsMax =  -5.22393837271679E+01  1.85141663617685E+00
(PID.TID 0000.0001)  ploadbar=  1.01020631417486E+05
 cg2d: Sum(rhs),rhsMax =  -5.26090691101376E+01  1.83754537158230E+00
(PID.TID 0000.0001)  ploadbar=  1.01021556615118E+05
 cg2d: Sum(rhs),rhsMax =  -5.30269139833972E+01  1.82220857250241E+00
(PID.TID 0000.0001)  ploadbar=  1.01022481812750E+05
 cg2d: Sum(rhs),rhsMax =  -5.34006382179811E+01  1.80861356655765E+00
(PID.TID 0000.0001)  ploadbar=  1.01023954267499E+05
 cg2d: Sum(rhs),rhsMax =  -5.36796572105794E+01  1.79838138030648E+00
(PID.TID 0000.0001)  ploadbar=  1.01025426722248E+05
 cg2d: Sum(rhs),rhsMax =  -5.38423653476011E+01  1.79212164627097E+00
(PID.TID 0000.0001)  ploadbar=  1.01026899176997E+05
 cg2d: Sum(rhs),rhsMax =  -5.38925229274024E+01  1.78962826412899E+00
(PID.TID 0000.0001)  ploadbar=  1.01028371631745E+05
 cg2d: Sum(rhs),rhsMax =  -5.38515736253681E+01  1.79015690020644E+00
(PID.TID 0000.0001)  ploadbar=  1.01029844086494E+05
 cg2d: Sum(rhs),rhsMax =  -5.37712021691725E+01  1.79198721741226E+00
(PID.TID 0000.0001)  ploadbar=  1.01031316541242E+05
 cg2d: Sum(rhs),rhsMax =  -5.36648835129833E+01  1.79464719754659E+00
(PID.TID 0000.0001)  ploadbar=  1.01032351071995E+05
 cg2d: Sum(rhs),rhsMax =  -5.35398148134367E+01  1.79789703706210E+00
(PID.TID 0000.0001)  ploadbar=  1.01033385602747E+05
 cg2d: Sum(rhs),rhsMax =  -5.34707585880417E+01  1.79922118145062E+00
(PID.TID 0000.0001)  ploadbar=  1.01034420133500E+05
 cg2d: Sum(rhs),rhsMax =  -5.34405300931453E+01  1.79918268534582E+00
(PID.TID 0000.0001)  ploadbar=  1.01035454664252E+05
 cg2d: Sum(rhs),rhsMax =  -5.34452686958340E+01  1.79790233335651E+00
(PID.TID 0000.0001)  ploadbar=  1.01036489195005E+05
 cg2d: Sum(rhs),rhsMax =  -5.34613921017409E+01  1.79616841845565E+00
(PID.TID 0000.0001)  ploadbar=  1.01037523725757E+05
 cg2d: Sum(rhs),rhsMax =  -5.34651302837895E+01  1.79494687903861E+00
(PID.TID 0000.0001)  ploadbar=  1.01038023440727E+05
 cg2d: Sum(rhs),rhsMax =  -5.34481430287965E+01  1.79451586692880E+00
(PID.TID 0000.0001)  ploadbar=  1.01038523155697E+05
 cg2d: Sum(rhs),rhsMax =  -5.34079851969027E+01  1.79495416887622E+00
(PID.TID 0000.0001)  ploadbar=  1.01039022870667E+05
 cg2d: Sum(rhs),rhsMax =  -5.33576379186877E+01  1.79582324079902E+00
(PID.TID 0000.0001)  ploadbar=  1.01039522585636E+05
 cg2d: Sum(rhs),rhsMax =  -5.33213733244272E+01  1.79630254559593E+00
(PID.TID 0000.0001)  ploadbar=  1.01040022300606E+05
 cg2d: Sum(rhs),rhsMax =  -5.33294765494481E+01  1.79536658601625E+00
(PID.TID 0000.0001)  ploadbar=  1.01040522015576E+05
 cg2d: Sum(rhs),rhsMax =  -5.34461314325296E+01  1.79082399961728E+00
(PID.TID 0000.0001)  ploadbar=  1.01041189394084E+05
 cg2d: Sum(rhs),rhsMax =  -5.36750800130309E+01  1.78259670777208E+00
(PID.TID 0000.0001)  ploadbar=  1.01041856772592E+05
 cg2d: Sum(rhs),rhsMax =  -5.40122119175878E+01  1.77091477296332E+00
(PID.TID 0000.0001)  ploadbar=  1.01042524151100E+05
 cg2d: Sum(rhs),rhsMax =  -5.44329964049218E+01  1.75669868506551E+00
(PID.TID 0000.0001)  ploadbar=  1.01043191529608E+05
 cg2d: Sum(rhs),rhsMax =  -5.49040172261991E+01  1.74112915797064E+00
(PID.TID 0000.0001)  ploadbar=  1.01043858908116E+05
 cg2d: Sum(rhs),rhsMax =  -5.53838007885045E+01  1.72556455670978E+00
(PID.TID 0000.0001)  ploadbar=  1.01044526286624E+05
 cg2d: Sum(rhs),rhsMax =  -5.58496681012368E+01  1.71072336343186E+00
(PID.TID 0000.0001)  ploadbar=  1.01046031227134E+05
 cg2d: Sum(rhs),rhsMax =  -5.62618681390614E+01  1.69777033830192E+00
(PID.TID 0000.0001)  ploadbar=  1.01047536167645E+05
 cg2d: Sum(rhs),rhsMax =  -5.65950140958674E+01  1.68738100721341E+00
(PID.TID 0000.0001)  ploadbar=  1.01049041108155E+05
 cg2d: Sum(rhs),rhsMax =  -5.68334858036472E+01  1.67992312370108E+00
(PID.TID 0000.0001)  ploadbar=  1.01050546048665E+05
 cg2d: Sum(rhs),rhsMax =  -5.69818000298487E+01  1.67517796097159E+00
(PID.TID 0000.0001)  ploadbar=  1.01052050989175E+05
 cg2d: Sum(rhs),rhsMax =  -5.70587873946850E+01  1.67253857404153E+00
(PID.TID 0000.0001)  ploadbar=  1.01053555929685E+05
 cg2d: Sum(rhs),rhsMax =  -5.71214874658398E+01  1.67031196645669E+00
(PID.TID 0000.0001)  ploadbar=  1.01054064872729E+05
 cg2d: Sum(rhs),rhsMax =  -5.72132636169744E+01  1.66722223620789E+00
(PID.TID 0000.0001)  ploadbar=  1.01054573815773E+05
 cg2d: Sum(rhs),rhsMax =  -5.73411405919756E+01  1.66306814478049E+00
(PID.TID 0000.0001)  ploadbar=  1.01055082758817E+05
 cg2d: Sum(rhs),rhsMax =  -5.74917662618083E+01  1.65824324653041E+00
(PID.TID 0000.0001)  ploadbar=  1.01055591701861E+05
 cg2d: Sum(rhs),rhsMax =  -5.76369184763755E+01  1.65355640135280E+00
(PID.TID 0000.0001)  ploadbar=  1.01056100644904E+05
 cg2d: Sum(rhs),rhsMax =  -5.77387225076624E+01  1.65008048738831E+00
(PID.TID 0000.0001)  ploadbar=  1.01056609587948E+05
 cg2d: Sum(rhs),rhsMax =  -5.77755888542817E+01  1.64853621053090E+00
(PID.TID 0000.0001)  ploadbar=  1.01056359265517E+05
 cg2d: Sum(rhs),rhsMax =  -5.77399976186634E+01  1.64912703477538E+00
(PID.TID 0000.0001)  ploadbar=  1.01056108943085E+05
 cg2d: Sum(rhs),rhsMax =  -5.76160403229910E+01  1.65230843133790E+00
(PID.TID 0000.0001)  ploadbar=  1.01055858620653E+05
 cg2d: Sum(rhs),rhsMax =  -5.74370762782274E+01  1.65714378400883E+00
(PID.TID 0000.0001)  ploadbar=  1.01055608298222E+05
 cg2d: Sum(rhs),rhsMax =  -5.72459447934183E+01  1.66241332594564E+00
(PID.TID 0000.0001)  ploadbar=  1.01055357975790E+05
 cg2d: Sum(rhs),rhsMax =  -5.70919520555596E+01  1.66667942410302E+00
(PID.TID 0000.0001)  ploadbar=  1.01055107653358E+05
 cg2d: Sum(rhs),rhsMax =  -5.70385961727763E+01  1.66801789732831E+00
(PID.TID 0000.0001)  ploadbar=  1.01054738303831E+05
 cg2d: Sum(rhs),rhsMax =  -5.71334221063133E+01  1.66502090493116E+00
(PID.TID 0000.0001)  ploadbar=  1.01054368954303E+05
 cg2d: Sum(rhs),rhsMax =  -5.73839308615441E+01  1.65751196358794E+00
(PID.TID 0000.0001)  ploadbar=  1.01053999604775E+05
 cg2d: Sum(rhs),rhsMax =  -5.77661020440827E+01  1.64629059396303E+00
(PID.TID 0000.0001)  ploadbar=  1.01053630255248E+05
 cg2d: Sum(rhs),rhsMax =  -5.82374789834306E+01  1.63269014776767E+00
(PID.TID 0000.0001)  ploadbar=  1.01053260905720E+05
 cg2d: Sum(rhs),rhsMax =  -5.87433068337807E+01  1.61833007112519E+00
(PID.TID 0000.0001)  ploadbar=  1.01052891556192E+05
 cg2d: Sum(rhs),rhsMax =  -5.92014324977619E+01  1.60550233808309E+00
(PID.TID 0000.0001)  ploadbar=  1.01051776696970E+05
 cg2d: Sum(rhs),rhsMax =  -5.95325449156860E+01  1.59626081536673E+00
(PID.TID 0000.0001)  ploadbar=  1.01050661837748E+05
 cg2d: Sum(rhs),rhsMax =  -5.97156181394751E+01  1.59104360693735E+00
(PID.TID 0000.0001)  ploadbar=  1.01049546978526E+05
 cg2d: Sum(rhs),rhsMax =  -5.97758702044277E+01  1.58909926945157E+00
(PID.TID 0000.0001)  ploadbar=  1.01048432119304E+05
 cg2d: Sum(rhs),rhsMax =  -5.97636464634955E+01  1.58905874759163E+00
(PID.TID 0000.0001)  ploadbar=  1.01047317260082E+05
 cg2d: Sum(rhs),rhsMax =  -5.97407304670521E+01  1.58927113321995E+00
(PID.TID 0000.0001)  ploadbar=  1.01046202400860E+05
 cg2d: Sum(rhs),rhsMax =  -5.97725636960795E+01  1.58799994918576E+00
(PID.TID 0000.0001)  ploadbar=  1.01045408133791E+05
 cg2d: Sum(rhs),rhsMax =  -5.98949174318304E+01  1.58429652761902E+00
(PID.TID 0000.0001)  ploadbar=  1.01044613866723E+05
 cg2d: Sum(rhs),rhsMax =  -6.01268057853936E+01  1.57768669325614E+00
(PID.TID 0000.0001)  ploadbar=  1.01043819599654E+05
 cg2d: Sum(rhs),rhsMax =  -6.04683299318088E+01  1.56823323661507E+00
(PID.TID 0000.0001)  ploadbar=  1.01043025332585E+05
 cg2d: Sum(rhs),rhsMax =  -6.08931993273313E+01  1.55669982396617E+00
(PID.TID 0000.0001)  ploadbar=  1.01042231065517E+05
 cg2d: Sum(rhs),rhsMax =  -6.13590770786437E+01  1.54423890279381E+00
(PID.TID 0000.0001)  ploadbar=  1.01041436798448E+05
 cg2d: Sum(rhs),rhsMax =  -6.18735574839612E+01  1.53081796683045E+00
(PID.TID 0000.0001)  ploadbar=  1.01040403991755E+05
 cg2d: Sum(rhs),rhsMax =  -6.23802195839384E+01  1.51786071866080E+00
(PID.TID 0000.0001)  ploadbar=  1.01039371185061E+05
 cg2d: Sum(rhs),rhsMax =  -6.28367267099496E+01  1.50636165906750E+00
(PID.TID 0000.0001)  ploadbar=  1.01038338378367E+05
 cg2d: Sum(rhs),rhsMax =  -6.32537830706744E+01  1.49600502660521E+00
(PID.TID 0000.0001)  ploadbar=  1.01037305571673E+05
 cg2d: Sum(rhs),rhsMax =  -6.36615310155012E+01  1.48604447746813E+00
(PID.TID 0000.0001)  ploadbar=  1.01036272764980E+05
 cg2d: Sum(rhs),rhsMax =  -6.41049039051736E+01  1.47543054792402E+00
(PID.TID 0000.0001)  ploadbar=  1.01035239958286E+05
 cg2d: Sum(rhs),rhsMax =  -6.45903996987294E+01  1.46398130245908E+00
(PID.TID 0000.0001)  ploadbar=  1.01034331151968E+05
 cg2d: Sum(rhs),rhsMax =  -6.51385837265945E+01  1.45127538402212E+00
(PID.TID 0000.0001)  ploadbar=  1.01033422345650E+05
 cg2d: Sum(rhs),rhsMax =  -6.46467720120077E+01  1.46189416819231E+00
(PID.TID 0000.0001)  ploadbar=  1.01032513539333E+05
 cg2d: Sum(rhs),rhsMax =  -6.38719096128008E+01  1.47916525207470E+00
(PID.TID 0000.0001)  ploadbar=  1.01031604733015E+05
 cg2d: Sum(rhs),rhsMax =  -6.32328632912293E+01  1.49360512884878E+00
(PID.TID 0000.0001)  ploadbar=  1.01030695926697E+05
 cg2d: Sum(rhs),rhsMax =  -6.27359446215573E+01  1.50487827333567E+00
(PID.TID 0000.0001)  ploadbar=  1.01029787120379E+05
 cg2d: Sum(rhs),rhsMax =  -6.23602479670846E+01  1.51340660452855E+00
(PID.TID 0000.0001)  ploadbar=  1.01029636507982E+05
 cg2d: Sum(rhs),rhsMax =  -6.20906646952306E+01  1.51945622374423E+00
(PID.TID 0000.0001)  ploadbar=  1.01029485895584E+05
 cg2d: Sum(rhs),rhsMax =  -6.18887917036516E+01  1.52390353178799E+00
(PID.TID 0000.0001)  ploadbar=  1.01029335283186E+05
 cg2d: Sum(rhs),rhsMax =  -6.17639763066649E+01  1.52648132584760E+00
(PID.TID 0000.0001)  ploadbar=  1.01029184670788E+05
 cg2d: Sum(rhs),rhsMax =  -6.17335777319875E+01  1.52673242282871E+00
(PID.TID 0000.0001)  ploadbar=  1.01029034058391E+05
 cg2d: Sum(rhs),rhsMax =  -6.17951219796760E+01  1.52470729793021E+00
(PID.TID 0000.0001)  ploadbar=  1.01028883445993E+05
 cg2d: Sum(rhs),rhsMax =  -6.18576999078504E+01  1.52265055775795E+00
(PID.TID 0000.0001)  ploadbar=  1.01028459848973E+05
 cg2d: Sum(rhs),rhsMax =  -6.18696070413808E+01  1.52182611169893E+00
(PID.TID 0000.0001)  ploadbar=  1.01028036251953E+05
 cg2d: Sum(rhs),rhsMax =  -6.18475589061628E+01  1.52181260262786E+00
(PID.TID 0000.0001)  ploadbar=  1.01027612654933E+05
 cg2d: Sum(rhs),rhsMax =  -6.18167712952201E+01  1.52198730549074E+00
(PID.TID 0000.0001)  ploadbar=  1.01027189057912E+05
 cg2d: Sum(rhs),rhsMax =  -6.18019056593584E+01  1.52174118038639E+00
(PID.TID 0000.0001)  ploadbar=  1.01026765460892E+05
 cg2d: Sum(rhs),rhsMax =  -6.18206679866514E+01  1.52063173310979E+00
(PID.TID 0000.0001)  ploadbar=  1.01026341863872E+05
 cg2d: Sum(rhs),rhsMax =  -6.18286205274896E+01  1.51982893394575E+00
(PID.TID 0000.0001)  ploadbar=  1.01026216747816E+05
 cg2d: Sum(rhs),rhsMax =  -6.17771160197908E+01  1.52052795019016E+00
(PID.TID 0000.0001)  ploadbar=  1.01026091631760E+05
 cg2d: Sum(rhs),rhsMax =  -6.19580915547238E+01  1.51555574582983E+00
(PID.TID 0000.0001)  ploadbar=  1.01025966515704E+05
 cg2d: Sum(rhs),rhsMax =  -6.24008317038982E+01  1.50430743762981E+00
(PID.TID 0000.0001)  ploadbar=  1.01025841399648E+05
 cg2d: Sum(rhs),rhsMax =  -6.28353527877775E+01  1.49343978886951E+00
(PID.TID 0000.0001)  ploadbar=  1.01025716283592E+05
 cg2d: Sum(rhs),rhsMax =  -6.32791229144359E+01  1.48252915644327E+00
(PID.TID 0000.0001)  ploadbar=  1.01025591167537E+05
 cg2d: Sum(rhs),rhsMax =  -6.37416988739055E+01  1.47133966717334E+00
(PID.TID 0000.0001)  ploadbar=  1.01026907586526E+05
 cg2d: Sum(rhs),rhsMax =  -6.42144349312672E+01  1.46007898033734E+00
(PID.TID 0000.0001)  ploadbar=  1.01028224005516E+05
 cg2d: Sum(rhs),rhsMax =  -6.46911200273825E+01  1.44888887394236E+00
(PID.TID 0000.0001)  ploadbar=  1.01029540424505E+05
 cg2d: Sum(rhs),rhsMax =  -6.51620539509872E+01  1.43798115630490E+00
(PID.TID 0000.0001)  ploadbar=  1.01030856843495E+05
 cg2d: Sum(rhs),rhsMax =  -6.56203529850410E+01  1.42749361130507E+00
(PID.TID 0000.0001)  ploadbar=  1.01032173262484E+05
 cg2d: Sum(rhs),rhsMax =  -6.60609434445639E+01  1.41751698757143E+00
(PID.TID 0000.0001)  ploadbar=  1.01033489681474E+05
 cg2d: Sum(rhs),rhsMax =  -6.64701135839794E+01  1.40833597613042E+00
(PID.TID 0000.0001)  ploadbar=  1.01034110115419E+05
 cg2d: Sum(rhs),rhsMax =  -6.65510166830450E+01  1.40616080812064E+00
(PID.TID 0000.0001)  ploadbar=  1.01034730549365E+05
 cg2d: Sum(rhs),rhsMax =  -6.66495881314248E+01  1.40360406525038E+00
(PID.TID 0000.0001)  ploadbar=  1.01035350983311E+05
 cg2d: Sum(rhs),rhsMax =  -6.68592407336442E+01  1.39870533254063E+00
(PID.TID 0000.0001)  ploadbar=  1.01035971417257E+05
 cg2d: Sum(rhs),rhsMax =  -6.71541346043489E+01  1.39203974805622E+00
(PID.TID 0000.0001)  ploadbar=  1.01036591851203E+05
 cg2d: Sum(rhs),rhsMax =  -6.75118076682356E+01  1.38410966279220E+00
(PID.TID 0000.0001)  ploadbar=  1.01037212285149E+05
 cg2d: Sum(rhs),rhsMax =  -6.78543480672801E+01  1.37655519105273E+00
(PID.TID 0000.0001)  ploadbar=  1.01037278496460E+05
 cg2d: Sum(rhs),rhsMax =  -6.81739968684389E+01  1.36951850566716E+00
(PID.TID 0000.0001)  ploadbar=  1.01037344707772E+05
 cg2d: Sum(rhs),rhsMax =  -6.84658702158370E+01  1.36307525831475E+00
(PID.TID 0000.0001)  ploadbar=  1.01037410919083E+05
 cg2d: Sum(rhs),rhsMax =  -6.87273284262091E+01  1.35725946323273E+00
(PID.TID 0000.0001)  ploadbar=  1.01037477130394E+05
 cg2d: Sum(rhs),rhsMax =  -6.89439320205514E+01  1.35233551385768E+00
(PID.TID 0000.0001)  ploadbar=  1.01037543341706E+05
 cg2d: Sum(rhs),rhsMax =  -6.91368118815918E+01  1.34786642888926E+00
(PID.TID 0000.0001)  ploadbar=  1.01037609553017E+05
 cg2d: Sum(rhs),rhsMax =  -6.92585107551076E+01  1.34484809648315E+00
(PID.TID 0000.0001)  ploadbar=  1.01036062398609E+05
 cg2d: Sum(rhs),rhsMax =  -6.94332192864182E+01  1.34085802787340E+00
(PID.TID 0000.0001)  ploadbar=  1.01034515244201E+05
 cg2d: Sum(rhs),rhsMax =  -6.96778538525054E+01  1.33558418651658E+00
(PID.TID 0000.0001)  ploadbar=  1.01032968089792E+05
 cg2d: Sum(rhs),rhsMax =  -7.00405505663652E+01  1.32813889483256E+00
(PID.TID 0000.0001)  ploadbar=  1.01031420935384E+05
 cg2d: Sum(rhs),rhsMax =  -7.06151508386324E+01  1.31683886937266E+00
(PID.TID 0000.0001)  ploadbar=  1.01029873780976E+05
 cg2d: Sum(rhs),rhsMax =  -7.13304889909049E+01  1.30317317545118E+00
(PID.TID 0000.0001)  ploadbar=  1.01028326626568E+05
 cg2d: Sum(rhs),rhsMax =  -7.07943445367046E+01  1.31259707179208E+00
(PID.TID 0000.0001)  ploadbar=  1.01028130041051E+05
 cg2d: Sum(rhs),rhsMax =  -7.02592167415710E+01  1.32215915213045E+00
(PID.TID 0000.0001)  ploadbar=  1.01027933455534E+05
 cg2d: Sum(rhs),rhsMax =  -6.97742307341959E+01  1.33092214148796E+00
(PID.TID 0000.0001)  ploadbar=  1.01027736870017E+05
 cg2d: Sum(rhs),rhsMax =  -6.93345044925499E+01  1.33894037551142E+00
(PID.TID 0000.0001)  ploadbar=  1.01027540284501E+05
 cg2d: Sum(rhs),rhsMax =  -6.89393765572831E+01  1.34619053528012E+00
(PID.TID 0000.0001)  ploadbar=  1.01027343698984E+05
 cg2d: Sum(rhs),rhsMax =  -6.85905292217323E+01  1.35260467642300E+00
(PID.TID 0000.0001)  ploadbar=  1.01027147113467E+05
 cg2d: Sum(rhs),rhsMax =  -6.88958887401019E+01  1.34618634086764E+00
(PID.TID 0000.0001)  ploadbar=  1.01025685098762E+05
 cg2d: Sum(rhs),rhsMax =  -6.98633835326193E+01  1.32712947343529E+00
(PID.TID 0000.0001)  ploadbar=  1.01024223084057E+05
 cg2d: Sum(rhs),rhsMax =  -7.09528919692164E+01  1.30634244461710E+00
(PID.TID 0000.0001)  ploadbar=  1.01022761069352E+05
 cg2d: Sum(rhs),rhsMax =  -7.21322038088637E+01  1.28457917800423E+00
(PID.TID 0000.0001)  ploadbar=  1.01021299054647E+05
 cg2d: Sum(rhs),rhsMax =  -7.33487193099046E+01  1.26286733181763E+00
(PID.TID 0000.0001)  ploadbar=  1.01019837039942E+05
 cg2d: Sum(rhs),rhsMax =  -7.45529038250895E+01  1.24205786404502E+00
(PID.TID 0000.0001)  ploadbar=  1.01018375025237E+05
 cg2d: Sum(rhs),rhsMax =  -7.56713489551079E+01  1.22330264073440E+00
(PID.TID 0000.0001)  ploadbar=  1.01017781457338E+05
 cg2d: Sum(rhs),rhsMax =  -7.59196229202923E+01  1.21891086046578E+00
(PID.TID 0000.0001)  ploadbar=  1.01017187889439E+05
 cg2d: Sum(rhs),rhsMax =  -7.53855750847147E+01  1.22715229416228E+00
(PID.TID 0000.0001)  ploadbar=  1.01016594321540E+05
 cg2d: Sum(rhs),rhsMax =  -7.49039951692729E+01  1.23463951629993E+00
(PID.TID 0000.0001)  ploadbar=  1.01016000753641E+05
 cg2d: Sum(rhs),rhsMax =  -7.44716460623765E+01  1.24139020459611E+00
(PID.TID 0000.0001)  ploadbar=  1.01015407185742E+05
 cg2d: Sum(rhs),rhsMax =  -7.36738591734052E+01  1.25439236991671E+00
(PID.TID 0000.0001)  ploadbar=  1.01014813617843E+05
 cg2d: Sum(rhs),rhsMax =  -7.27876807097293E+01  1.26927018277726E+00
(PID.TID 0000.0001)  ploadbar=  1.01012779750481E+05
 cg2d: Sum(rhs),rhsMax =  -7.19409809609705E+01  1.28385837093350E+00
(PID.TID 0000.0001)  ploadbar=  1.01010745883119E+05
 cg2d: Sum(rhs),rhsMax =  -7.12171958427805E+01  1.29659601275974E+00
(PID.TID 0000.0001)  ploadbar=  1.01008712015757E+05
 cg2d: Sum(rhs),rhsMax =  -7.06322662677108E+01  1.30705866519095E+00
(PID.TID 0000.0001)  ploadbar=  1.01006678148394E+05
 cg2d: Sum(rhs),rhsMax =  -7.01416970547907E+01  1.31595847297247E+00
(PID.TID 0000.0001)  ploadbar=  1.01004644281032E+05
 cg2d: Sum(rhs),rhsMax =  -6.97360939271267E+01  1.32340143296402E+00
(PID.TID 0000.0001)  ploadbar=  1.01002610413670E+05
 cg2d: Sum(rhs),rhsMax =  -6.94021440236782E+01  1.32954379964144E+00
(PID.TID 0000.0001)  ploadbar=  1.01001064189936E+05
 cg2d: Sum(rhs),rhsMax =  -6.91243832993693E+01  1.33464380643757E+00
(PID.TID 0000.0001)  ploadbar=  1.00999517966201E+05
 cg2d: Sum(rhs),rhsMax =  -6.88935198753618E+01  1.33885466110531E+00
(PID.TID 0000.0001)  ploadbar=  1.00997971742467E+05
 cg2d: Sum(rhs),rhsMax =  -6.87014168145911E+01  1.34231341185603E+00
(PID.TID 0000.0001)  ploadbar=  1.00996425518733E+05
 cg2d: Sum(rhs),rhsMax =  -6.85409556045675E+01  1.34514448774863E+00
(PID.TID 0000.0001)  ploadbar=  1.00994879294999E+05
 cg2d: Sum(rhs),rhsMax =  -6.84049986479084E+01  1.34747660462780E+00
(PID.TID 0000.0001)  ploadbar=  1.00993333071264E+05
 cg2d: Sum(rhs),rhsMax =  -6.83569148104895E+01  1.34808932509363E+00
(PID.TID 0000.0001)  ploadbar=  1.00992178829276E+05
 cg2d: Sum(rhs),rhsMax =  -6.83524013178382E+01  1.34784824038421E+00
(PID.TID 0000.0001)  ploadbar=  1.00991024587287E+05
 cg2d: Sum(rhs),rhsMax =  -6.83842194713148E+01  1.34689348193017E+00
(PID.TID 0000.0001)  ploadbar=  1.00989870345299E+05
 cg2d: Sum(rhs),rhsMax =  -6.84450931503373E+01  1.34536781771475E+00
(PID.TID 0000.0001)  ploadbar=  1.00988716103310E+05
 cg2d: Sum(rhs),rhsMax =  -6.89154653741165E+01  1.33585414407945E+00
(PID.TID 0000.0001)  ploadbar=  1.00987561861322E+05
 cg2d: Sum(rhs),rhsMax =  -6.90243178249052E+01  1.33340772798484E+00
(PID.TID 0000.0001)  ploadbar=  1.00986407619333E+05
 cg2d: Sum(rhs),rhsMax =  -6.86897975257717E+01  1.33949482226366E+00
(PID.TID 0000.0001)  ploadbar=  1.00984567320329E+05
 cg2d: Sum(rhs),rhsMax =  -6.83474119540803E+01  1.34572513583687E+00
(PID.TID 0000.0001)  ploadbar=  1.00982727021324E+05
 cg2d: Sum(rhs),rhsMax =  -6.80034733113453E+01  1.35197003630635E+00
(PID.TID 0000.0001)  ploadbar=  1.00980886722320E+05
 cg2d: Sum(rhs),rhsMax =  -6.73750098610992E+01  1.36392805835730E+00
(PID.TID 0000.0001)  ploadbar=  1.00979046423315E+05
 cg2d: Sum(rhs),rhsMax =  -6.63633977344317E+01  1.38396569439432E+00
(PID.TID 0000.0001)  ploadbar=  1.00977206124311E+05
 cg2d: Sum(rhs),rhsMax =  -6.54357389079613E+01  1.40272517683719E+00
(PID.TID 0000.0001)  ploadbar=  1.00975365825306E+05
 cg2d: Sum(rhs),rhsMax =  -6.45675932307323E+01  1.42080011797416E+00
(PID.TID 0000.0001)  ploadbar=  1.00975145213454E+05
 cg2d: Sum(rhs),rhsMax =  -6.37392868924579E+01  1.43855369171188E+00
(PID.TID 0000.0001)  ploadbar=  1.00974924601601E+05
 cg2d: Sum(rhs),rhsMax =  -6.29547166049520E+01  1.45584650313168E+00
(PID.TID 0000.0001)  ploadbar=  1.00974703989749E+05
 cg2d: Sum(rhs),rhsMax =  -6.22333695438291E+01  1.47215792946401E+00
(PID.TID 0000.0001)  ploadbar=  1.00974483377897E+05
 cg2d: Sum(rhs),rhsMax =  -6.15635682123897E+01  1.48767916880083E+00
(PID.TID 0000.0001)  ploadbar=  1.00974262766044E+05
 cg2d: Sum(rhs),rhsMax =  -6.09392148186418E+01  1.50249019747061E+00
(PID.TID 0000.0001)  ploadbar=  1.00974042154192E+05
 cg2d: Sum(rhs),rhsMax =  -6.03877996829606E+01  1.51576142002049E+00
(PID.TID 0000.0001)  ploadbar=  1.00975387966979E+05
 cg2d: Sum(rhs),rhsMax =  -5.99106265593195E+01  1.52736349473731E+00
(PID.TID 0000.0001)  ploadbar=  1.00976733779766E+05
 cg2d: Sum(rhs),rhsMax =  -5.95420599378990E+01  1.53631812691395E+00
(PID.TID 0000.0001)  ploadbar=  1.00978079592553E+05
 cg2d: Sum(rhs),rhsMax =  -5.93370882940748E+01  1.54109419534009E+00
(PID.TID 0000.0001)  ploadbar=  1.00979425405340E+05
 cg2d: Sum(rhs),rhsMax =  -5.92979275611143E+01  1.54154503572480E+00
(PID.TID 0000.0001)  ploadbar=  1.00980771218127E+05
 cg2d: Sum(rhs),rhsMax =  -5.94833372583586E+01  1.53613798085409E+00
(PID.TID 0000.0001)  ploadbar=  1.00982117030914E+05
 cg2d: Sum(rhs),rhsMax =  -5.97105090388803E+01  1.52970864507462E+00
(PID.TID 0000.0001)  ploadbar=  1.00984263034414E+05
 cg2d: Sum(rhs),rhsMax =  -5.99542361727567E+01  1.52291858733738E+00
(PID.TID 0000.0001)  ploadbar=  1.00986409037914E+05
 cg2d: Sum(rhs),rhsMax =  -6.01846175228002E+01  1.51652915312329E+00
(PID.TID 0000.0001)  ploadbar=  1.00988555041414E+05
 cg2d: Sum(rhs),rhsMax =  -6.03895225609220E+01  1.51082960050844E+00
(PID.TID 0000.0001)  ploadbar=  1.00990701044914E+05
 cg2d: Sum(rhs),rhsMax =  -6.05834461963586E+01  1.50543692933754E+00
(PID.TID 0000.0001)  ploadbar=  1.00992847048414E+05
 cg2d: Sum(rhs),rhsMax =  -6.07707597433405E+01  1.50023169062627E+00
(PID.TID 0000.0001)  ploadbar=  1.00994993051914E+05
 cg2d: Sum(rhs),rhsMax =  -6.09193941362925E+01  1.49596587054962E+00
(PID.TID 0000.0001)  ploadbar=  1.00996302107022E+05
 cg2d: Sum(rhs),rhsMax =  -6.10507882632493E+01  1.49209374652749E+00
(PID.TID 0000.0001)  ploadbar=  1.00997611162131E+05
 cg2d: Sum(rhs),rhsMax =  -6.11858520796637E+01  1.48809445301955E+00
(PID.TID 0000.0001)  ploadbar=  1.00998920217239E+05
 cg2d: Sum(rhs),rhsMax =  -6.13439453650682E+01  1.48349586887931E+00
(PID.TID 0000.0001)  ploadbar=  1.01000229272347E+05
 cg2d: Sum(rhs),rhsMax =  -6.15405868053249E+01  1.47793061653118E+00
(PID.TID 0000.0001)  ploadbar=  1.01001538327456E+05
 cg2d: Sum(rhs),rhsMax =  -6.17764180800650E+01  1.47139875150073E+00
(PID.TID 0000.0001)  ploadbar=  1.01002847382564E+05
 cg2d: Sum(rhs),rhsMax =  -6.19455577039429E+01  1.46657685864343E+00
(PID.TID 0000.0001)  ploadbar=  1.01003602346497E+05
 cg2d: Sum(rhs),rhsMax =  -6.20047307874419E+01  1.46445286630679E+00
(PID.TID 0000.0001)  ploadbar=  1.01004357310430E+05
 cg2d: Sum(rhs),rhsMax =  -6.19428500111478E+01  1.46526714346297E+00
(PID.TID 0000.0001)  ploadbar=  1.01005112274362E+05
 cg2d: Sum(rhs),rhsMax =  -6.18552900177864E+01  1.46676156804339E+00
(PID.TID 0000.0001)  ploadbar=  1.01005867238295E+05
 cg2d: Sum(rhs),rhsMax =  -6.17066558368946E+01  1.46977709556312E+00
(PID.TID 0000.0001)  ploadbar=  1.01006622202227E+05
 cg2d: Sum(rhs),rhsMax =  -6.15193700808149E+01  1.47379360447065E+00
(PID.TID 0000.0001)  ploadbar=  1.01007377166160E+05
 cg2d: Sum(rhs),rhsMax =  -6.13173375982626E+01  1.47817509054138E+00
(PID.TID 0000.0001)  ploadbar=  1.01007678338238E+05
 cg2d: Sum(rhs),rhsMax =  -6.10837544067203E+01  1.48333118164808E+00
(PID.TID 0000.0001)  ploadbar=  1.01007979510316E+05
 cg2d: Sum(rhs),rhsMax =  -6.07348524944003E+01  1.49132940669105E+00
(PID.TID 0000.0001)  ploadbar=  1.01008280682394E+05
 cg2d: Sum(rhs),rhsMax =  -6.04563658120175E+01  1.49764784895330E+00
(PID.TID 0000.0001)  ploadbar=  1.01008581854472E+05
 cg2d: Sum(rhs),rhsMax =  -6.02498437171468E+01  1.50219609143681E+00
(PID.TID 0000.0001)  ploadbar=  1.01008883026550E+05
 cg2d: Sum(rhs),rhsMax =  -6.01114919645630E+01  1.50503381326969E+00
(PID.TID 0000.0001)  ploadbar=  1.01009184198628E+05
 cg2d: Sum(rhs),rhsMax =  -6.00837692134447E+01  1.50513443286035E+00
(PID.TID 0000.0001)  ploadbar=  1.01010346408673E+05
 cg2d: Sum(rhs),rhsMax =  -6.01543170944845E+01  1.50280002993636E+00
(PID.TID 0000.0001)  ploadbar=  1.01011508618718E+05
 cg2d: Sum(rhs),rhsMax =  -6.03509551662445E+01  1.49735508662337E+00
(PID.TID 0000.0001)  ploadbar=  1.01012670828764E+05
 cg2d: Sum(rhs),rhsMax =  -6.06307025164635E+01  1.48991799123144E+00
(PID.TID 0000.0001)  ploadbar=  1.01013833038809E+05
 cg2d: Sum(rhs),rhsMax =  -6.09679932507095E+01  1.48116499086829E+00
(PID.TID 0000.0001)  ploadbar=  1.01014995248854E+05
 cg2d: Sum(rhs),rhsMax =  -6.13500618882432E+01  1.47144621263000E+00
(PID.TID 0000.0001)  ploadbar=  1.01016157458900E+05
 cg2d: Sum(rhs),rhsMax =  -6.17138647829960E+01  1.46224625477616E+00
(PID.TID 0000.0001)  ploadbar=  1.01016220913864E+05
 cg2d: Sum(rhs),rhsMax =  -6.20738542099178E+01  1.45320528501255E+00
(PID.TID 0000.0001)  ploadbar=  1.01016284368828E+05
 cg2d: Sum(rhs),rhsMax =  -6.24303584695692E+01  1.44430690684105E+00
(PID.TID 0000.0001)  ploadbar=  1.01016347823792E+05
 cg2d: Sum(rhs),rhsMax =  -6.27899058610455E+01  1.43539369151420E+00
(PID.TID 0000.0001)  ploadbar=  1.01016411278756E+05
 cg2d: Sum(rhs),rhsMax =  -6.27471180844200E+01  1.43567986791280E+00
(PID.TID 0000.0001)  ploadbar=  1.01016474733720E+05
 cg2d: Sum(rhs),rhsMax =  -6.25836594711584E+01  1.43868367860246E+00
(PID.TID 0000.0001)  ploadbar=  1.01016538188683E+05
 cg2d: Sum(rhs),rhsMax =  -6.24689534551135E+01  1.44066188207966E+00
(PID.TID 0000.0001)  ploadbar=  1.01016526352172E+05
 cg2d: Sum(rhs),rhsMax =  -6.24337125645826E+01  1.44089479124722E+00
(PID.TID 0000.0001)  ploadbar=  1.01016514515662E+05
 cg2d: Sum(rhs),rhsMax =  -6.25118825778818E+01  1.43859019551699E+00
(PID.TID 0000.0001)  ploadbar=  1.01016502679151E+05
 cg2d: Sum(rhs),rhsMax =  -6.25386394750014E+01  1.43754343790880E+00
(PID.TID 0000.0001)  ploadbar=  1.01016490842640E+05
 cg2d: Sum(rhs),rhsMax =  -6.25425449891363E+01  1.43708720411882E+00
(PID.TID 0000.0001)  ploadbar=  1.01016479006129E+05
 cg2d: Sum(rhs),rhsMax =  -6.25444537428376E+01  1.43673923795466E+00
(PID.TID 0000.0001)  ploadbar=  1.01016467169618E+05
 cg2d: Sum(rhs),rhsMax =  -6.24385893849384E+01  1.43882957081350E+00
(PID.TID 0000.0001)  ploadbar=  1.01016464372037E+05
 cg2d: Sum(rhs),rhsMax =  -6.22082850176476E+01  1.44376587271509E+00
(PID.TID 0000.0001)  ploadbar=  1.01016461574456E+05
 cg2d: Sum(rhs),rhsMax =  -6.19602319299551E+01  1.44910770246686E+00
(PID.TID 0000.0001)  ploadbar=  1.01016458776876E+05
 cg2d: Sum(rhs),rhsMax =  -6.17271523588835E+01  1.45409254245002E+00
(PID.TID 0000.0001)  ploadbar=  1.01016455979295E+05
 cg2d: Sum(rhs),rhsMax =  -6.15055175294037E+01  1.45879349975875E+00
(PID.TID 0000.0001)  ploadbar=  1.01016453181714E+05
 cg2d: Sum(rhs),rhsMax =  -6.13065846932857E+01  1.46293261740003E+00
(PID.TID 0000.0001)  ploadbar=  1.01016450384134E+05
 cg2d: Sum(rhs),rhsMax =  -6.11936555444749E+01  1.46504852625714E+00
(PID.TID 0000.0001)  ploadbar=  1.01016073625950E+05
 cg2d: Sum(rhs),rhsMax =  -6.08169800613591E+01  1.47354382716899E+00
(PID.TID 0000.0001)  ploadbar=  1.01015696867767E+05
 cg2d: Sum(rhs),rhsMax =  -6.03698768503887E+01  1.48387763218939E+00
(PID.TID 0000.0001)  ploadbar=  1.01015320109584E+05
 cg2d: Sum(rhs),rhsMax =  -5.99731260005302E+01  1.49310946460919E+00
(PID.TID 0000.0001)  ploadbar=  1.01014943351401E+05
 cg2d: Sum(rhs),rhsMax =  -5.96124091573303E+01  1.50154988520685E+00
(PID.TID 0000.0001)  ploadbar=  1.01014566593218E+05
 cg2d: Sum(rhs),rhsMax =  -5.93029071088342E+01  1.50877394338416E+00
(PID.TID 0000.0001)  ploadbar=  1.01014189835035E+05
 cg2d: Sum(rhs),rhsMax =  -5.90712756235359E+01  1.51399397117547E+00
(PID.TID 0000.0001)  ploadbar=  1.01014384518494E+05
 cg2d: Sum(rhs),rhsMax =  -5.89456934573895E+01  1.51643780502189E+00
(PID.TID 0000.0001)  ploadbar=  1.01014579201953E+05
 cg2d: Sum(rhs),rhsMax =  -5.89399696948739E+01  1.51571500454536E+00
(PID.TID 0000.0001)  ploadbar=  1.01014773885412E+05
 cg2d: Sum(rhs),rhsMax =  -5.90596961578941E+01  1.51168136447787E+00
(PID.TID 0000.0001)  ploadbar=  1.01014968568870E+05
 cg2d: Sum(rhs),rhsMax =  -5.93069859289328E+01  1.50432377779414E+00
(PID.TID 0000.0001)  ploadbar=  1.01015163252329E+05
 cg2d: Sum(rhs),rhsMax =  -5.96815406298705E+01  1.49373251186866E+00
(PID.TID 0000.0001)  ploadbar=  1.01015357935788E+05
 cg2d: Sum(rhs),rhsMax =  -6.01107796931861E+01  1.48201369888136E+00
(PID.TID 0000.0001)  ploadbar=  1.01017287262425E+05
 cg2d: Sum(rhs),rhsMax =  -6.05746363869006E+01  1.46970740371824E+00
(PID.TID 0000.0001)  ploadbar=  1.01019216589063E+05
 cg2d: Sum(rhs),rhsMax =  -6.10633920586443E+01  1.45707657845552E+00
(PID.TID 0000.0001)  ploadbar=  1.01021145915701E+05
 cg2d: Sum(rhs),rhsMax =  -6.15760539202591E+01  1.44416134434149E+00
(PID.TID 0000.0001)  ploadbar=  1.01023075242338E+05
 cg2d: Sum(rhs),rhsMax =  -6.21243466084231E+01  1.43070709333762E+00
(PID.TID 0000.0001)  ploadbar=  1.01025004568976E+05
 cg2d: Sum(rhs),rhsMax =  -6.27317524083478E+01  1.41621530662441E+00
(PID.TID 0000.0001)  ploadbar=  1.01026933895614E+05
 cg2d: Sum(rhs),rhsMax =  -6.33557589590747E+01  1.40163163207938E+00
(PID.TID 0000.0001)  ploadbar=  1.01027798362240E+05
 cg2d: Sum(rhs),rhsMax =  -6.40122324614764E+01  1.38662196411064E+00
(PID.TID 0000.0001)  ploadbar=  1.01028662828866E+05
 cg2d: Sum(rhs),rhsMax =  -6.47046624421940E+01  1.37114450230595E+00
(PID.TID 0000.0001)  ploadbar=  1.01029527295493E+05
 cg2d: Sum(rhs),rhsMax =  -6.54390170675648E+01  1.35511156724810E+00
(PID.TID 0000.0001)  ploadbar=  1.01030391762119E+05
 cg2d: Sum(rhs),rhsMax =  -6.62146816708029E+01  1.33858090666258E+00
(PID.TID 0000.0001)  ploadbar=  1.01031256228745E+05
 cg2d: Sum(rhs),rhsMax =  -6.70259197063892E+01  1.32170903543508E+00
(PID.TID 0000.0001)  ploadbar=  1.01032120695372E+05
 cg2d: Sum(rhs),rhsMax =  -6.78576340091568E+01  1.30486036379970E+00
(PID.TID 0000.0001)  ploadbar=  1.01032101010373E+05
 cg2d: Sum(rhs),rhsMax =  -6.87181595706094E+01  1.28788868696852E+00
(PID.TID 0000.0001)  ploadbar=  1.01032081325375E+05
 cg2d: Sum(rhs),rhsMax =  -6.95955136670146E+01  1.27103193228988E+00
(PID.TID 0000.0001)  ploadbar=  1.01032061640376E+05
 cg2d: Sum(rhs),rhsMax =  -7.05052001302833E+01  1.25401304664503E+00
(PID.TID 0000.0001)  ploadbar=  1.01032041955377E+05
 cg2d: Sum(rhs),rhsMax =  -7.14352360843548E+01  1.23706161958035E+00
(PID.TID 0000.0001)  ploadbar=  1.01032022270379E+05
 cg2d: Sum(rhs),rhsMax =  -7.23805342650659E+01  1.22026766584727E+00
(PID.TID 0000.0001)  ploadbar=  1.01032002585380E+05
 cg2d: Sum(rhs),rhsMax =  -7.33315995196004E+01  1.20379729834230E+00
(PID.TID 0000.0001)  ploadbar=  1.01031874190494E+05
 cg2d: Sum(rhs),rhsMax =  -7.35278850712242E+01  1.19992242326841E+00
(PID.TID 0000.0001)  ploadbar=  1.01031745795609E+05
 cg2d: Sum(rhs),rhsMax =  -7.32921469299498E+01  1.20309386024066E+00
(PID.TID 0000.0001)  ploadbar=  1.01031617400723E+05
 cg2d: Sum(rhs),rhsMax =  -7.30522936071108E+01  1.20632402945335E+00
(PID.TID 0000.0001)  ploadbar=  1.01031489005837E+05
 cg2d: Sum(rhs),rhsMax =  -7.28076700519731E+01  1.20961999584219E+00
(PID.TID 0000.0001)  ploadbar=  1.01031360610952E+05
 cg2d: Sum(rhs),rhsMax =  -7.25577856185906E+01  1.21298539733463E+00
(PID.TID 0000.0001)  ploadbar=  1.01031232216066E+05
 cg2d: Sum(rhs),rhsMax =  -7.23193742152506E+01  1.21624322400839E+00
(PID.TID 0000.0001)  ploadbar=  1.01030705536192E+05
 cg2d: Sum(rhs),rhsMax =  -7.20868425360528E+01  1.21948446737160E+00
(PID.TID 0000.0001)  ploadbar=  1.01030178856319E+05
 cg2d: Sum(rhs),rhsMax =  -7.18567877607535E+01  1.22276481254410E+00
(PID.TID 0000.0001)  ploadbar=  1.01029652176445E+05
 cg2d: Sum(rhs),rhsMax =  -7.16335461814694E+01  1.22600447917200E+00
(PID.TID 0000.0001)  ploadbar=  1.01029125496571E+05
 cg2d: Sum(rhs),rhsMax =  -7.14174381159314E+01  1.22919127119629E+00
(PID.TID 0000.0001)  ploadbar=  1.01028598816697E+05
 cg2d: Sum(rhs),rhsMax =  -7.12077449115639E+01  1.23233374375535E+00
(PID.TID 0000.0001)  ploadbar=  1.01028072136824E+05
 cg2d: Sum(rhs),rhsMax =  -7.10085153980435E+01  1.23531170648842E+00
(PID.TID 0000.0001)  ploadbar=  1.01027692275503E+05
 cg2d: Sum(rhs),rhsMax =  -7.08199430902042E+01  1.23811522253114E+00
(PID.TID 0000.0001)  ploadbar=  1.01027312414182E+05
 cg2d: Sum(rhs),rhsMax =  -7.06343561652137E+01  1.24086869340766E+00
(PID.TID 0000.0001)  ploadbar=  1.01026932552861E+05
 cg2d: Sum(rhs),rhsMax =  -7.04511571988957E+01  1.24357827609072E+00
(PID.TID 0000.0001)  ploadbar=  1.01026552691540E+05
 cg2d: Sum(rhs),rhsMax =  -7.02723393710569E+01  1.24620227199472E+00
(PID.TID 0000.0001)  ploadbar=  1.01026172830219E+05
 cg2d: Sum(rhs),rhsMax =  -7.00972558899097E+01  1.24874385212550E+00
(PID.TID 0000.0001)  ploadbar=  1.01025792968898E+05
 cg2d: Sum(rhs),rhsMax =  -6.99122883885325E+01  1.25148531300839E+00
(PID.TID 0000.0001)  ploadbar=  1.01024552631051E+05
 cg2d: Sum(rhs),rhsMax =  -6.97294387550413E+01  1.25420969689602E+00
(PID.TID 0000.0001)  ploadbar=  1.01023312293204E+05
 cg2d: Sum(rhs),rhsMax =  -6.95519755911635E+01  1.25685079154528E+00
(PID.TID 0000.0001)  ploadbar=  1.01022071955356E+05
 cg2d: Sum(rhs),rhsMax =  -6.93755645331005E+01  1.25948148991301E+00
(PID.TID 0000.0001)  ploadbar=  1.01020831617509E+05
 cg2d: Sum(rhs),rhsMax =  -6.92007350937557E+01  1.26208869362352E+00
(PID.TID 0000.0001)  ploadbar=  1.01019591279662E+05
 cg2d: Sum(rhs),rhsMax =  -6.90267338672429E+01  1.26468085234810E+00
(PID.TID 0000.0001)  ploadbar=  1.01018350941815E+05
 cg2d: Sum(rhs),rhsMax =  -6.88597636533902E+01  1.26714673760132E+00
(PID.TID 0000.0001)  ploadbar=  1.01018751714842E+05
 cg2d: Sum(rhs),rhsMax =  -6.86950186499095E+01  1.26956832864245E+00
(PID.TID 0000.0001)  ploadbar=  1.01019152487869E+05
 cg2d: Sum(rhs),rhsMax =  -6.85321908355024E+01  1.27194610754501E+00
(PID.TID 0000.0001)  ploadbar=  1.01019553260897E+05
 cg2d: Sum(rhs),rhsMax =  -6.83692728973325E+01  1.27430822741243E+00
(PID.TID 0000.0001)  ploadbar=  1.01019954033924E+05
 cg2d: Sum(rhs),rhsMax =  -6.82056752490589E+01  1.27666042002579E+00
(PID.TID 0000.0001)  ploadbar=  1.01020354806951E+05
 cg2d: Sum(rhs),rhsMax =  -6.80407978164349E+01  1.27900838489984E+00
(PID.TID 0000.0001)  ploadbar=  1.01020755579978E+05
 cg2d: Sum(rhs),rhsMax =  -6.77983798762597E+01  1.28290180136631E+00
(PID.TID 0000.0001)  ploadbar=  1.01019510264387E+05
 cg2d: Sum(rhs),rhsMax =  -6.68356589337536E+01  1.30075787581400E+00
(PID.TID 0000.0001)  ploadbar=  1.01018264948796E+05
 cg2d: Sum(rhs),rhsMax =  -6.55688719051530E+01  1.32531509855347E+00
(PID.TID 0000.0001)  ploadbar=  1.01017019633205E+05
 cg2d: Sum(rhs),rhsMax =  -6.41004209857341E+01  1.35514549908450E+00
(PID.TID 0000.0001)  ploadbar=  1.01015774317614E+05
 cg2d: Sum(rhs),rhsMax =  -6.25847198162576E+01  1.38747546892904E+00
(PID.TID 0000.0001)  ploadbar=  1.01014529002023E+05
 cg2d: Sum(rhs),rhsMax =  -6.10363111802017E+01  1.42221697697911E+00
(PID.TID 0000.0001)  ploadbar=  1.01013283686432E+05
 cg2d: Sum(rhs),rhsMax =  -5.97521214124166E+01  1.45229685080115E+00
(PID.TID 0000.0001)  ploadbar=  1.01011703777050E+05
 cg2d: Sum(rhs),rhsMax =  -5.87003829465464E+01  1.47780095754672E+00
(PID.TID 0000.0001)  ploadbar=  1.01010123867667E+05
 cg2d: Sum(rhs),rhsMax =  -5.73884200367469E+01  1.51103585246583E+00
(PID.TID 0000.0001)  ploadbar=  1.01008543958284E+05
 cg2d: Sum(rhs),rhsMax =  -5.59426722036641E+01  1.54949643389653E+00
(PID.TID 0000.0001)  ploadbar=  1.01006964048902E+05
 cg2d: Sum(rhs),rhsMax =  -5.47856792808876E+01  1.58159090856281E+00
(PID.TID 0000.0001)  ploadbar=  1.01005384139519E+05
 cg2d: Sum(rhs),rhsMax =  -5.39070386988060E+01  1.60669756188748E+00
(PID.TID 0000.0001)  ploadbar=  1.01003804230136E+05
 cg2d: Sum(rhs),rhsMax =  -5.32232492367393E+01  1.62665367861089E+00
(PID.TID 0000.0001)  ploadbar=  1.01001571121170E+05
 cg2d: Sum(rhs),rhsMax =  -5.27070863620719E+01  1.64187850766269E+00
(PID.TID 0000.0001)  ploadbar=  1.00999338012204E+05
 cg2d: Sum(rhs),rhsMax =  -5.23340518766001E+01  1.65285041940065E+00
(PID.TID 0000.0001)  ploadbar=  1.00997104903238E+05
 cg2d: Sum(rhs),rhsMax =  -5.20798598822333E+01  1.66015402423592E+00
(PID.TID 0000.0001)  ploadbar=  1.00994871794272E+05
 cg2d: Sum(rhs),rhsMax =  -5.19174845006951E+01  1.66454346796172E+00
(PID.TID 0000.0001)  ploadbar=  1.00992638685305E+05
 cg2d: Sum(rhs),rhsMax =  -5.18139241858543E+01  1.66702143314812E+00
(PID.TID 0000.0001)  ploadbar=  1.00990405576339E+05
 cg2d: Sum(rhs),rhsMax =  -5.17156357548188E+01  1.66932028508191E+00
(PID.TID 0000.0001)  ploadbar=  1.00989598455810E+05
 cg2d: Sum(rhs),rhsMax =  -5.16285231342639E+01  1.67124475654818E+00
(PID.TID 0000.0001)  ploadbar=  1.00988791335281E+05
 cg2d: Sum(rhs),rhsMax =  -5.07442651187133E+01  1.69942846988764E+00
(PID.TID 0000.0001)  ploadbar=  1.00987984214751E+05
 cg2d: Sum(rhs),rhsMax =  -5.00213100478800E+01  1.72299827975798E+00
(PID.TID 0000.0001)  ploadbar=  1.00987177094222E+05
 cg2d: Sum(rhs),rhsMax =  -4.95237796147477E+01  1.73926180069409E+00
(PID.TID 0000.0001)  ploadbar=  1.00986369973693E+05
 cg2d: Sum(rhs),rhsMax =  -4.92195967944543E+01  1.74890315176060E+00
(PID.TID 0000.0001)  ploadbar=  1.00985562853164E+05
 cg2d: Sum(rhs),rhsMax =  -4.89571696919284E+01  1.75725568190303E+00
(PID.TID 0000.0001)  ploadbar=  1.00985926816625E+05
 cg2d: Sum(rhs),rhsMax =  -4.87947727236545E+01  1.76216717708810E+00
(PID.TID 0000.0001)  ploadbar=  1.00986290780086E+05
 cg2d: Sum(rhs),rhsMax =  -4.87010391885911E+01  1.76470224266204E+00
(PID.TID 0000.0001)  ploadbar=  1.00986654743546E+05
 cg2d: Sum(rhs),rhsMax =  -4.86597696608552E+01  1.76541691634220E+00
(PID.TID 0000.0001)  ploadbar=  1.00987018707007E+05
 cg2d: Sum(rhs),rhsMax =  -4.86655005631362E+01  1.76449763753634E+00
(PID.TID 0000.0001)  ploadbar=  1.00987382670468E+05
 cg2d: Sum(rhs),rhsMax =  -4.87205505120344E+01  1.76185863553677E+00
(PID.TID 0000.0001)  ploadbar=  1.00987746633929E+05
 cg2d: Sum(rhs),rhsMax =  -4.88037928246078E+01  1.75819422572416E+00
(PID.TID 0000.0001)  ploadbar=  1.00988892783922E+05
 cg2d: Sum(rhs),rhsMax =  -4.88878159441244E+01  1.75449077395914E+00
(PID.TID 0000.0001)  ploadbar=  1.00990038933915E+05
 cg2d: Sum(rhs),rhsMax =  -4.89908431415040E+01  1.75009058209421E+00
(PID.TID 0000.0001)  ploadbar=  1.00991185083907E+05
 cg2d: Sum(rhs),rhsMax =  -4.95340769170010E+01  1.73016084014889E+00
(PID.TID 0000.0001)  ploadbar=  1.00992331233900E+05
 cg2d: Sum(rhs),rhsMax =  -5.01330215257814E+01  1.70872337324238E+00
(PID.TID 0000.0001)  ploadbar=  1.00993477383892E+05
 cg2d: Sum(rhs),rhsMax =  -5.07897627216252E+01  1.68583132086895E+00
(PID.TID 0000.0001)  ploadbar=  1.00994623533885E+05
 cg2d: Sum(rhs),rhsMax =  -5.15496295582638E+01  1.66021011013429E+00
(PID.TID 0000.0001)  ploadbar=  1.00994863360263E+05
 cg2d: Sum(rhs),rhsMax =  -5.19848400604583E+01  1.64555411197968E+00
(PID.TID 0000.0001)  ploadbar=  1.00995103186641E+05
 cg2d: Sum(rhs),rhsMax =  -5.19227157743954E+01  1.64677058121642E+00
(PID.TID 0000.0001)  ploadbar=  1.00995343013020E+05
 cg2d: Sum(rhs),rhsMax =  -5.18812690660089E+01  1.64733158369077E+00
(PID.TID 0000.0001)  ploadbar=  1.00995582839398E+05
 cg2d: Sum(rhs),rhsMax =  -5.18734724443006E+01  1.64681717023378E+00
(PID.TID 0000.0001)  ploadbar=  1.00995822665776E+05
 cg2d: Sum(rhs),rhsMax =  -5.18937565773741E+01  1.64539644640326E+00
(PID.TID 0000.0001)  ploadbar=  1.00996062492154E+05
 cg2d: Sum(rhs),rhsMax =  -5.20264606072451E+01  1.64039092053343E+00
(PID.TID 0000.0001)  ploadbar=  1.00996889994310E+05
 cg2d: Sum(rhs),rhsMax =  -5.22766708391714E+01  1.63169249836121E+00
(PID.TID 0000.0001)  ploadbar=  1.00997717496466E+05
 cg2d: Sum(rhs),rhsMax =  -5.26358126668332E+01  1.61966878352623E+00
(PID.TID 0000.0001)  ploadbar=  1.00998544998621E+05
 cg2d: Sum(rhs),rhsMax =  -5.30066287771326E+01  1.60739417005128E+00
(PID.TID 0000.0001)  ploadbar=  1.00999372500777E+05
 cg2d: Sum(rhs),rhsMax =  -5.33633124672327E+01  1.59564429039929E+00
(PID.TID 0000.0001)  ploadbar=  1.01000200002933E+05
 cg2d: Sum(rhs),rhsMax =  -5.37504896560718E+01  1.58307788430809E+00
(PID.TID 0000.0001)  ploadbar=  1.01001027505089E+05
 cg2d: Sum(rhs),rhsMax =  -5.43408047312617E+01  1.56491121836316E+00
(PID.TID 0000.0001)  ploadbar=  1.01002946391343E+05
 cg2d: Sum(rhs),rhsMax =  -5.51396687477276E+01  1.54137398138050E+00
(PID.TID 0000.0001)  ploadbar=  1.01004865277598E+05
 cg2d: Sum(rhs),rhsMax =  -5.61697365136165E+01  1.51234304607835E+00
(PID.TID 0000.0001)  ploadbar=  1.01006784163853E+05
 cg2d: Sum(rhs),rhsMax =  -5.74437192446871E+01  1.47813400485290E+00
(PID.TID 0000.0001)  ploadbar=  1.01008703050108E+05
 cg2d: Sum(rhs),rhsMax =  -5.89623929060863E+01  1.43948446472068E+00
(PID.TID 0000.0001)  ploadbar=  1.01010621936362E+05
 cg2d: Sum(rhs),rhsMax =  -6.07333194130754E+01  1.39701241908107E+00
(PID.TID 0000.0001)  ploadbar=  1.01012540822617E+05
 cg2d: Sum(rhs),rhsMax =  -6.23495446330156E+01  1.36029558971960E+00
(PID.TID 0000.0001)  ploadbar=  1.01013324178109E+05
 cg2d: Sum(rhs),rhsMax =  -6.38900409559110E+01  1.32698233793699E+00
(PID.TID 0000.0001)  ploadbar=  1.01014107533602E+05
 cg2d: Sum(rhs),rhsMax =  -6.52755485269764E+01  1.29828783150695E+00
(PID.TID 0000.0001)  ploadbar=  1.01014890889094E+05
 cg2d: Sum(rhs),rhsMax =  -6.65815389762839E+01  1.27227402555788E+00
(PID.TID 0000.0001)  ploadbar=  1.01015674244586E+05
 cg2d: Sum(rhs),rhsMax =  -6.79278436921520E+01  1.24648889065438E+00
(PID.TID 0000.0001)  ploadbar=  1.01016457600079E+05
 cg2d: Sum(rhs),rhsMax =  -6.92705719360522E+01  1.22173463299072E+00
(PID.TID 0000.0001)  ploadbar=  1.01017240955571E+05
 cg2d: Sum(rhs),rhsMax =  -6.92996840215983E+01  1.22064520606660E+00
(PID.TID 0000.0001)  ploadbar=  1.01017399538700E+05
 cg2d: Sum(rhs),rhsMax =  -6.91671489593190E+01  1.22242318707716E+00
(PID.TID 0000.0001)  ploadbar=  1.01017558121830E+05
 cg2d: Sum(rhs),rhsMax =  -6.89669693785816E+01  1.22542160248181E+00
(PID.TID 0000.0001)  ploadbar=  1.01017716704960E+05
 cg2d: Sum(rhs),rhsMax =  -6.87525449860191E+01  1.22870027731083E+00
(PID.TID 0000.0001)  ploadbar=  1.01017875288089E+05
 cg2d: Sum(rhs),rhsMax =  -6.86879540895616E+01  1.22931873536242E+00
(PID.TID 0000.0001)  ploadbar=  1.01018033871218E+05
 cg2d: Sum(rhs),rhsMax =  -6.89431460087644E+01  1.22423786878901E+00
(PID.TID 0000.0001)  ploadbar=  1.01018192454348E+05
 cg2d: Sum(rhs),rhsMax =  -6.96324050936519E+01  1.21160097099774E+00
(PID.TID 0000.0001)  ploadbar=  1.01018855723494E+05
 cg2d: Sum(rhs),rhsMax =  -7.05424791217726E+01  1.19545881788746E+00
(PID.TID 0000.0001)  ploadbar=  1.01019518992639E+05
 cg2d: Sum(rhs),rhsMax =  -7.14851010135346E+01  1.17918528208827E+00
(PID.TID 0000.0001)  ploadbar=  1.01020182261785E+05
 cg2d: Sum(rhs),rhsMax =  -7.22895354923388E+01  1.16554674387437E+00
(PID.TID 0000.0001)  ploadbar=  1.01020845530930E+05
 cg2d: Sum(rhs),rhsMax =  -7.30363685621289E+01  1.15310181262419E+00
(PID.TID 0000.0001)  ploadbar=  1.01021508800076E+05
 cg2d: Sum(rhs),rhsMax =  -7.37965817092760E+01  1.14068425406764E+00
(PID.TID 0000.0001)  ploadbar=  1.01022172069222E+05
 cg2d: Sum(rhs),rhsMax =  -7.46052140846823E+01  1.12782868769181E+00
(PID.TID 0000.0001)  ploadbar=  1.01021569659015E+05
 cg2d: Sum(rhs),rhsMax =  -7.54252832374202E+01  1.11511839786895E+00
(PID.TID 0000.0001)  ploadbar=  1.01020967248808E+05
 cg2d: Sum(rhs),rhsMax =  -7.62378278194226E+01  1.10282462056209E+00
(PID.TID 0000.0001)  ploadbar=  1.01020364838602E+05
 cg2d: Sum(rhs),rhsMax =  -7.70427414755980E+01  1.09092973404878E+00
(PID.TID 0000.0001)  ploadbar=  1.01019762428395E+05
 cg2d: Sum(rhs),rhsMax =  -7.78103539563134E+01  1.07982727483261E+00
(PID.TID 0000.0001)  ploadbar=  1.01019160018188E+05
 cg2d: Sum(rhs),rhsMax =  -7.85142425819721E+01  1.06983428984200E+00
(PID.TID 0000.0001)  ploadbar=  1.01018557607981E+05
 cg2d: Sum(rhs),rhsMax =  -7.80535495882460E+01  1.07583127304547E+00
(PID.TID 0000.0001)  ploadbar=  1.01018327185611E+05
 cg2d: Sum(rhs),rhsMax =  -7.75625061903894E+01  1.08231670711234E+00
(PID.TID 0000.0001)  ploadbar=  1.01018096763241E+05
 cg2d: Sum(rhs),rhsMax =  -7.70814250195909E+01  1.08873523173224E+00
(PID.TID 0000.0001)  ploadbar=  1.01017866340871E+05
 cg2d: Sum(rhs),rhsMax =  -7.66256930299813E+01  1.09486049228177E+00
(PID.TID 0000.0001)  ploadbar=  1.01017635918501E+05
 cg2d: Sum(rhs),rhsMax =  -7.62017015534201E+01  1.10058438597981E+00
(PID.TID 0000.0001)  ploadbar=  1.01017405496131E+05
 cg2d: Sum(rhs),rhsMax =  -7.58122210341962E+01  1.10584760722038E+00
(PID.TID 0000.0001)  ploadbar=  1.01017175073761E+05
 cg2d: Sum(rhs),rhsMax =  -7.54713579800137E+01  1.11048702456511E+00
(PID.TID 0000.0001)  ploadbar=  1.01016921467923E+05
 cg2d: Sum(rhs),rhsMax =  -7.51667226183667E+01  1.11466299925701E+00
(PID.TID 0000.0001)  ploadbar=  1.01016667862085E+05
 cg2d: Sum(rhs),rhsMax =  -7.48885766804546E+01  1.11850318252242E+00
(PID.TID 0000.0001)  ploadbar=  1.01016414256248E+05
 cg2d: Sum(rhs),rhsMax =  -7.46316951751688E+01  1.12207372377418E+00
(PID.TID 0000.0001)  ploadbar=  1.01016160650410E+05
 cg2d: Sum(rhs),rhsMax =  -7.43881571306106E+01  1.12548620110854E+00
(PID.TID 0000.0001)  ploadbar=  1.01015907044572E+05
 cg2d: Sum(rhs),rhsMax =  -7.41558025523393E+01  1.12876693022756E+00
(PID.TID 0000.0001)  ploadbar=  1.01015653438734E+05
 cg2d: Sum(rhs),rhsMax =  -7.39430454460740E+01  1.13174221604096E+00
(PID.TID 0000.0001)  ploadbar=  1.01015340709850E+05
 cg2d: Sum(rhs),rhsMax =  -7.37497835603564E+01  1.13440386335588E+00
(PID.TID 0000.0001)  ploadbar=  1.01015027980967E+05
 cg2d: Sum(rhs),rhsMax =  -7.35823384749662E+01  1.13664526304897E+00
(PID.TID 0000.0001)  ploadbar=  1.01014715252083E+05
 cg2d: Sum(rhs),rhsMax =  -7.34423819574166E+01  1.13843021575870E+00
(PID.TID 0000.0001)  ploadbar=  1.01014402523199E+05
 cg2d: Sum(rhs),rhsMax =  -7.33250971234787E+01  1.13982165562740E+00
(PID.TID 0000.0001)  ploadbar=  1.01014089794315E+05
 cg2d: Sum(rhs),rhsMax =  -7.32353850985429E+01  1.14073721180773E+00
(PID.TID 0000.0001)  ploadbar=  1.01013777065431E+05
 cg2d: Sum(rhs),rhsMax =  -7.31847309032571E+01  1.14109073070394E+00
(PID.TID 0000.0001)  ploadbar=  1.01011683268199E+05
 cg2d: Sum(rhs),rhsMax =  -7.31659242533361E+01  1.14098952649096E+00
(PID.TID 0000.0001)  ploadbar=  1.01009589470967E+05
 cg2d: Sum(rhs),rhsMax =  -7.31784926704784E+01  1.14043608055828E+00
(PID.TID 0000.0001)  ploadbar=  1.01007495673734E+05
 cg2d: Sum(rhs),rhsMax =  -7.32204552891443E+01  1.13945905799023E+00
(PID.TID 0000.0001)  ploadbar=  1.01005401876502E+05
 cg2d: Sum(rhs),rhsMax =  -7.32856122829587E+01  1.13815549580937E+00
(PID.TID 0000.0001)  ploadbar=  1.01003308079269E+05
 cg2d: Sum(rhs),rhsMax =  -7.33759760117885E+01  1.13649463883418E+00
(PID.TID 0000.0001)  ploadbar=  1.01001214282037E+05
 cg2d: Sum(rhs),rhsMax =  -7.34786281430659E+01  1.13463942586206E+00
(PID.TID 0000.0001)  ploadbar=  1.01000538071634E+05
 cg2d: Sum(rhs),rhsMax =  -7.36055431108302E+01  1.13240510879894E+00
(PID.TID 0000.0001)  ploadbar=  1.00999861861231E+05
 cg2d: Sum(rhs),rhsMax =  -7.37637370614448E+01  1.12968626639442E+00
(PID.TID 0000.0001)  ploadbar=  1.00999185650828E+05
 cg2d: Sum(rhs),rhsMax =  -7.39597701376840E+01  1.12638470447628E+00
(PID.TID 0000.0001)  ploadbar=  1.00998509440425E+05
 cg2d: Sum(rhs),rhsMax =  -7.42048087318130E+01  1.12233588368621E+00
(PID.TID 0000.0001)  ploadbar=  1.00997833230022E+05
 cg2d: Sum(rhs),rhsMax =  -7.45192438144900E+01  1.11724526712111E+00
(PID.TID 0000.0001)  ploadbar=  1.00997157019618E+05
 cg2d: Sum(rhs),rhsMax =  -7.49168284802810E+01  1.11099181536993E+00
(PID.TID 0000.0001)  ploadbar=  1.00997155143457E+05
 cg2d: Sum(rhs),rhsMax =  -7.53940936702926E+01  1.10366278392608E+00
(PID.TID 0000.0001)  ploadbar=  1.00997153267296E+05
 cg2d: Sum(rhs),rhsMax =  -7.59575890460846E+01  1.09520322097708E+00
(PID.TID 0000.0001)  ploadbar=  1.00997151391135E+05
 cg2d: Sum(rhs),rhsMax =  -7.66154757008442E+01  1.08554993855948E+00
(PID.TID 0000.0001)  ploadbar=  1.00997149514974E+05
 cg2d: Sum(rhs),rhsMax =  -7.73730413752264E+01  1.07469308165215E+00
(PID.TID 0000.0001)  ploadbar=  1.00997147638813E+05
 cg2d: Sum(rhs),rhsMax =  -7.82312503546507E+01  1.06269244076756E+00
(PID.TID 0000.0001)  ploadbar=  1.00997145762652E+05
 cg2d: Sum(rhs),rhsMax =  -7.91221817200903E+01  1.05050826166603E+00
(PID.TID 0000.0001)  ploadbar=  1.00996845375735E+05
 cg2d: Sum(rhs),rhsMax =  -8.00227454440650E+01  1.03845594911459E+00
(PID.TID 0000.0001)  ploadbar=  1.00996544988818E+05
 cg2d: Sum(rhs),rhsMax =  -8.09298410874069E+01  1.02657061252868E+00
(PID.TID 0000.0001)  ploadbar=  1.00996244601901E+05
 cg2d: Sum(rhs),rhsMax =  -8.18555364730589E+01  1.01469717117197E+00
(PID.TID 0000.0001)  ploadbar=  1.00995944214983E+05
 cg2d: Sum(rhs),rhsMax =  -8.28160104385672E+01  1.00264420549210E+00
(PID.TID 0000.0001)  ploadbar=  1.00995643828066E+05
 cg2d: Sum(rhs),rhsMax =  -8.38504429904562E+01  9.89967357911218E-01
(PID.TID 0000.0001)  ploadbar=  1.00995343441149E+05
 cg2d: Sum(rhs),rhsMax =  -8.49316126151936E+01  9.77089794264874E-01
(PID.TID 0000.0001)  ploadbar=  1.00995726503369E+05
 cg2d: Sum(rhs),rhsMax =  -8.38084821893590E+01  9.89931437532693E-01
(PID.TID 0000.0001)  ploadbar=  1.00996109565589E+05
 cg2d: Sum(rhs),rhsMax =  -8.25707985786437E+01  1.00453699644861E+00
(PID.TID 0000.0001)  ploadbar=  1.00996492627809E+05
 cg2d: Sum(rhs),rhsMax =  -8.14187642437888E+01  1.01853434026914E+00
(PID.TID 0000.0001)  ploadbar=  1.00996875690029E+05
 cg2d: Sum(rhs),rhsMax =  -8.04285466859241E+01  1.03087304897138E+00
(PID.TID 0000.0001)  ploadbar=  1.00997258752249E+05
 cg2d: Sum(rhs),rhsMax =  -7.96343472359088E+01  1.04096605428043E+00
(PID.TID 0000.0001)  ploadbar=  1.00997641814469E+05
 cg2d: Sum(rhs),rhsMax =  -7.89504520132452E+01  1.04978584724817E+00
(PID.TID 0000.0001)  ploadbar=  1.00998827148374E+05
 cg2d: Sum(rhs),rhsMax =  -7.84030781339461E+01  1.05690551755060E+00
(PID.TID 0000.0001)  ploadbar=  1.01000012482279E+05
 cg2d: Sum(rhs),rhsMax =  -7.79164342655382E+01  1.06328246748993E+00
(PID.TID 0000.0001)  ploadbar=  1.01001197816185E+05
 cg2d: Sum(rhs),rhsMax =  -7.73669911857552E+01  1.07059123312180E+00
(PID.TID 0000.0001)  ploadbar=  1.01002383150090E+05
 cg2d: Sum(rhs),rhsMax =  -7.67251071651872E+01  1.07928141249824E+00
(PID.TID 0000.0001)  ploadbar=  1.01003568483995E+05
 cg2d: Sum(rhs),rhsMax =  -7.59655837411766E+01  1.08977873663478E+00
(PID.TID 0000.0001)  ploadbar=  1.01004753817900E+05
 cg2d: Sum(rhs),rhsMax =  -7.50828721036561E+01  1.10230152025020E+00
(PID.TID 0000.0001)  ploadbar=  1.01006616038320E+05
 cg2d: Sum(rhs),rhsMax =  -7.41571504137974E+01  1.11577304249252E+00
(PID.TID 0000.0001)  ploadbar=  1.01008478258739E+05
 cg2d: Sum(rhs),rhsMax =  -7.31844204980441E+01  1.13030956410821E+00
(PID.TID 0000.0001)  ploadbar=  1.01010340479159E+05
 cg2d: Sum(rhs),rhsMax =  -7.21674814213799E+01  1.14593181217379E+00
(PID.TID 0000.0001)  ploadbar=  1.01012202699579E+05
 cg2d: Sum(rhs),rhsMax =  -7.11087029559992E+01  1.16267246686569E+00
(PID.TID 0000.0001)  ploadbar=  1.01014064919998E+05
 cg2d: Sum(rhs),rhsMax =  -7.00245443952618E+01  1.18033032276399E+00
(PID.TID 0000.0001)  ploadbar=  1.01015927140418E+05
 cg2d: Sum(rhs),rhsMax =  -6.89695134808280E+01  1.19801778098582E+00
(PID.TID 0000.0001)  ploadbar=  1.01017762508075E+05
 cg2d: Sum(rhs),rhsMax =  -6.79054018265458E+01  1.21639108342643E+00
(PID.TID 0000.0001)  ploadbar=  1.01019597875732E+05
 cg2d: Sum(rhs),rhsMax =  -6.68801642034412E+01  1.23460037239178E+00
(PID.TID 0000.0001)  ploadbar=  1.01021433243390E+05
 cg2d: Sum(rhs),rhsMax =  -6.59135042061386E+01  1.25222675137277E+00
(PID.TID 0000.0001)  ploadbar=  1.01023268611047E+05
 cg2d: Sum(rhs),rhsMax =  -6.50114960385542E+01  1.26907205121621E+00
(PID.TID 0000.0001)  ploadbar=  1.01025103978704E+05
 cg2d: Sum(rhs),rhsMax =  -6.41785859678506E+01  1.28495538710948E+00
(PID.TID 0000.0001)  ploadbar=  1.01026939346362E+05
 cg2d: Sum(rhs),rhsMax =  -6.35236609010541E+01  1.29766288294987E+00
(PID.TID 0000.0001)  ploadbar=  1.01028068267612E+05
 cg2d: Sum(rhs),rhsMax =  -6.29876469144644E+01  1.30820766216772E+00
(PID.TID 0000.0001)  ploadbar=  1.01029197188862E+05
 cg2d: Sum(rhs),rhsMax =  -6.25816077255498E+01  1.31623646227555E+00
(PID.TID 0000.0001)  ploadbar=  1.01030326110112E+05
 cg2d: Sum(rhs),rhsMax =  -6.22998003301739E+01  1.32176717730214E+00
(PID.TID 0000.0001)  ploadbar=  1.01031455031362E+05
 cg2d: Sum(rhs),rhsMax =  -6.21377844006487E+01  1.32482246664994E+00
(PID.TID 0000.0001)  ploadbar=  1.01032583952612E+05
 cg2d: Sum(rhs),rhsMax =  -6.20749180464445E+01  1.32580258490263E+00
(PID.TID 0000.0001)  ploadbar=  1.01033712873863E+05
 cg2d: Sum(rhs),rhsMax =  -6.20224121445189E+01  1.32657075316580E+00
(PID.TID 0000.0001)  ploadbar=  1.01034358757839E+05
 cg2d: Sum(rhs),rhsMax =  -6.19642462395223E+01  1.32746511421788E+00
(PID.TID 0000.0001)  ploadbar=  1.01035004641816E+05
 cg2d: Sum(rhs),rhsMax =  -6.19054995832786E+01  1.32837061556654E+00
(PID.TID 0000.0001)  ploadbar=  1.01035650525793E+05
 cg2d: Sum(rhs),rhsMax =  -6.18650513309258E+01  1.32887585882328E+00
(PID.TID 0000.0001)  ploadbar=  1.01036296409769E+05
 cg2d: Sum(rhs),rhsMax =  -6.18561419447756E+01  1.32868236263949E+00
(PID.TID 0000.0001)  ploadbar=  1.01036942293746E+05
 cg2d: Sum(rhs),rhsMax =  -6.18878414769272E+01  1.32759204988860E+00
(PID.TID 0000.0001)  ploadbar=  1.01037588177723E+05
 cg2d: Sum(rhs),rhsMax =  -6.19982347311195E+01  1.32482484420260E+00
(PID.TID 0000.0001)  ploadbar=  1.01038245893567E+05
 cg2d: Sum(rhs),rhsMax =  -6.21409909226613E+01  1.32138263733330E+00
(PID.TID 0000.0001)  ploadbar=  1.01038903609412E+05
 cg2d: Sum(rhs),rhsMax =  -6.23079722486600E+01  1.31744518572372E+00
(PID.TID 0000.0001)  ploadbar=  1.01039561325256E+05
 cg2d: Sum(rhs),rhsMax =  -6.24900727986545E+01  1.31320598830913E+00
(PID.TID 0000.0001)  ploadbar=  1.01040219041101E+05
 cg2d: Sum(rhs),rhsMax =  -6.26789484744663E+01  1.30883938727364E+00
(PID.TID 0000.0001)  ploadbar=  1.01040876756945E+05
 cg2d: Sum(rhs),rhsMax =  -6.28701555657874E+01  1.30443431216779E+00
(PID.TID 0000.0001)  ploadbar=  1.01041534472790E+05
 cg2d: Sum(rhs),rhsMax =  -6.30421799987780E+01  1.30043921098091E+00
(PID.TID 0000.0001)  ploadbar=  1.01042956337956E+05
 cg2d: Sum(rhs),rhsMax =  -6.31955243869153E+01  1.29683393967198E+00
(PID.TID 0000.0001)  ploadbar=  1.01044378203122E+05
 cg2d: Sum(rhs),rhsMax =  -6.33150757540673E+01  1.29391733533268E+00
(PID.TID 0000.0001)  ploadbar=  1.01045800068288E+05
 cg2d: Sum(rhs),rhsMax =  -6.34173839117518E+01  1.29133750306308E+00
(PID.TID 0000.0001)  ploadbar=  1.01047221933455E+05
 cg2d: Sum(rhs),rhsMax =  -6.35196520773147E+01  1.28873421808678E+00
(PID.TID 0000.0001)  ploadbar=  1.01048643798621E+05
 cg2d: Sum(rhs),rhsMax =  -6.36287003173099E+01  1.28596516847723E+00
(PID.TID 0000.0001)  ploadbar=  1.01050065663787E+05
 cg2d: Sum(rhs),rhsMax =  -6.37273649572917E+01  1.28350694356003E+00
(PID.TID 0000.0001)  ploadbar=  1.01050872219983E+05
 cg2d: Sum(rhs),rhsMax =  -6.38720209474925E+01  1.28021917315076E+00
(PID.TID 0000.0001)  ploadbar=  1.01051678776178E+05
 cg2d: Sum(rhs),rhsMax =  -6.40259596545347E+01  1.27683922305605E+00
(PID.TID 0000.0001)  ploadbar=  1.01052485332374E+05
 cg2d: Sum(rhs),rhsMax =  -6.41801165626689E+01  1.27354288535282E+00
(PID.TID 0000.0001)  ploadbar=  1.01053291888569E+05
 cg2d: Sum(rhs),rhsMax =  -6.43274013708646E+01  1.27046327210978E+00
(PID.TID 0000.0001)  ploadbar=  1.01054098444765E+05
 cg2d: Sum(rhs),rhsMax =  -6.44619437360178E+01  1.26770880937881E+00
(PID.TID 0000.0001)  ploadbar=  1.01054905000960E+05
 cg2d: Sum(rhs),rhsMax =  -6.45536545630765E+01  1.26574893856256E+00
(PID.TID 0000.0001)  ploadbar=  1.01055142205803E+05
 cg2d: Sum(rhs),rhsMax =  -6.46551985970977E+01  1.26353872132583E+00
(PID.TID 0000.0001)  ploadbar=  1.01055379410646E+05
 cg2d: Sum(rhs),rhsMax =  -6.47553743179030E+01  1.26129545647197E+00
(PID.TID 0000.0001)  ploadbar=  1.01055616615489E+05
 cg2d: Sum(rhs),rhsMax =  -6.48804283211580E+01  1.25850613833815E+00
(PID.TID 0000.0001)  ploadbar=  1.01055853820332E+05
 cg2d: Sum(rhs),rhsMax =  -6.50665369600538E+01  1.25447331394443E+00
(PID.TID 0000.0001)  ploadbar=  1.01056091025175E+05
 cg2d: Sum(rhs),rhsMax =  -6.53364125408345E+01  1.24878174497721E+00
(PID.TID 0000.0001)  ploadbar=  1.01056328230017E+05
 cg2d: Sum(rhs),rhsMax =  -6.56264102789973E+01  1.24278043044443E+00
(PID.TID 0000.0001)  ploadbar=  1.01056934558393E+05
 cg2d: Sum(rhs),rhsMax =  -6.59886631288267E+01  1.23549938486025E+00
(PID.TID 0000.0001)  ploadbar=  1.01057540886768E+05
 cg2d: Sum(rhs),rhsMax =  -6.64418192887325E+01  1.22663515751276E+00
(PID.TID 0000.0001)  ploadbar=  1.01058147215144E+05
 cg2d: Sum(rhs),rhsMax =  -6.69803959418118E+01  1.21635089121329E+00
(PID.TID 0000.0001)  ploadbar=  1.01058753543519E+05
 cg2d: Sum(rhs),rhsMax =  -6.76246414256135E+01  1.20435715853267E+00
(PID.TID 0000.0001)  ploadbar=  1.01059359871895E+05
 cg2d: Sum(rhs),rhsMax =  -6.84025316480716E+01  1.19026682373079E+00
(PID.TID 0000.0001)  ploadbar=  1.01059966200270E+05
 cg2d: Sum(rhs),rhsMax =  -6.93244379385932E+01  1.17402490146924E+00
(PID.TID 0000.0001)  ploadbar=  1.01060807202181E+05
 cg2d: Sum(rhs),rhsMax =  -7.02519164130051E+01  1.15808898708204E+00
(PID.TID 0000.0001)  ploadbar=  1.01061648204092E+05
 cg2d: Sum(rhs),rhsMax =  -7.12239700304318E+01  1.14181845632632E+00
(PID.TID 0000.0001)  ploadbar=  1.01062489206003E+05
 cg2d: Sum(rhs),rhsMax =  -7.21951684042908E+01  1.12595762828102E+00
(PID.TID 0000.0001)  ploadbar=  1.01063330207913E+05
 cg2d: Sum(rhs),rhsMax =  -7.31231499118994E+01  1.11112791316797E+00
(PID.TID 0000.0001)  ploadbar=  1.01064171209824E+05
 cg2d: Sum(rhs),rhsMax =  -7.40062148193923E+01  1.09728671010372E+00
(PID.TID 0000.0001)  ploadbar=  1.01065012211735E+05
 cg2d: Sum(rhs),rhsMax =  -7.48716757253541E+01  1.08409435176109E+00
(PID.TID 0000.0001)  ploadbar=  1.01065769459531E+05
 cg2d: Sum(rhs),rhsMax =  -7.56711000626002E+01  1.07220355511181E+00
(PID.TID 0000.0001)  ploadbar=  1.01066526707327E+05
 cg2d: Sum(rhs),rhsMax =  -7.63687481333936E+01  1.06203278388147E+00
(PID.TID 0000.0001)  ploadbar=  1.01067283955124E+05
 cg2d: Sum(rhs),rhsMax =  -7.65773024980992E+01  1.05881667770515E+00
(PID.TID 0000.0001)  ploadbar=  1.01068041202920E+05
 cg2d: Sum(rhs),rhsMax =  -7.60395766911152E+01  1.06602469759663E+00
(PID.TID 0000.0001)  ploadbar=  1.01068798450716E+05
 cg2d: Sum(rhs),rhsMax =  -7.53474987819118E+01  1.07557466416262E+00
(PID.TID 0000.0001)  ploadbar=  1.01069555698513E+05
 cg2d: Sum(rhs),rhsMax =  -7.45836661262235E+01  1.08632957410315E+00
(PID.TID 0000.0001)  ploadbar=  1.01070053604455E+05
 cg2d: Sum(rhs),rhsMax =  -7.38208721850499E+01  1.09727087274491E+00
(PID.TID 0000.0001)  ploadbar=  1.01070551510397E+05
 cg2d: Sum(rhs),rhsMax =  -7.30638426462138E+01  1.10832996337328E+00
(PID.TID 0000.0001)  ploadbar=  1.01071049416339E+05
 cg2d: Sum(rhs),rhsMax =  -7.23168260321655E+01  1.11943839965429E+00
(PID.TID 0000.0001)  ploadbar=  1.01071547322281E+05
 cg2d: Sum(rhs),rhsMax =  -7.14117130086588E+01  1.13325073464187E+00
(PID.TID 0000.0001)  ploadbar=  1.01072045228223E+05
 cg2d: Sum(rhs),rhsMax =  -7.03611091188603E+01  1.14975387501674E+00
(PID.TID 0000.0001)  ploadbar=  1.01072543134165E+05
 cg2d: Sum(rhs),rhsMax =  -6.94736507444286E+01  1.16405142238927E+00
(PID.TID 0000.0001)  ploadbar=  1.01074510121100E+05
 cg2d: Sum(rhs),rhsMax =  -6.86468177807939E+01  1.17771022637871E+00
(PID.TID 0000.0001)  ploadbar=  1.01076477108034E+05
 cg2d: Sum(rhs),rhsMax =  -6.79207311947199E+01  1.18996168607268E+00
(PID.TID 0000.0001)  ploadbar=  1.01078444094969E+05
 cg2d: Sum(rhs),rhsMax =  -6.74013758123263E+01  1.19881609509335E+00
(PID.TID 0000.0001)  ploadbar=  1.01080411081903E+05
 cg2d: Sum(rhs),rhsMax =  -6.70084825151501E+01  1.20554622191127E+00
(PID.TID 0000.0001)  ploadbar=  1.01082378068837E+05
 cg2d: Sum(rhs),rhsMax =  -6.66807223517367E+01  1.21118636641063E+00
(PID.TID 0000.0001)  ploadbar=  1.01084345055772E+05
 cg2d: Sum(rhs),rhsMax =  -6.65129932917733E+01  1.21391138653634E+00
(PID.TID 0000.0001)  ploadbar=  1.01084471041339E+05
 cg2d: Sum(rhs),rhsMax =  -6.64195100304441E+01  1.21524200810888E+00
(PID.TID 0000.0001)  ploadbar=  1.01084597026907E+05
 cg2d: Sum(rhs),rhsMax =  -6.63580812933130E+01  1.21593176123556E+00
(PID.TID 0000.0001)  ploadbar=  1.01084723012474E+05
 cg2d: Sum(rhs),rhsMax =  -6.63274611603028E+01  1.21599343196373E+00
(PID.TID 0000.0001)  ploadbar=  1.01084848998042E+05
 cg2d: Sum(rhs),rhsMax =  -6.63279011162933E+01  1.21541723788571E+00
(PID.TID 0000.0001)  ploadbar=  1.01084974983609E+05
 cg2d: Sum(rhs),rhsMax =  -6.63620424807677E+01  1.21414970851208E+00
(PID.TID 0000.0001)  ploadbar=  1.01085100969177E+05
 cg2d: Sum(rhs),rhsMax =  -6.65347545529444E+01  1.21039027482288E+00
(PID.TID 0000.0001)  ploadbar=  1.01084027399717E+05
 cg2d: Sum(rhs),rhsMax =  -6.68160192200381E+01  1.20472128542691E+00
(PID.TID 0000.0001)  ploadbar=  1.01082953830257E+05
 cg2d: Sum(rhs),rhsMax =  -6.72160423883829E+01  1.19700537437443E+00
(PID.TID 0000.0001)  ploadbar=  1.01081880260798E+05
 cg2d: Sum(rhs),rhsMax =  -6.77333342077578E+01  1.18734006393353E+00
(PID.TID 0000.0001)  ploadbar=  1.01080806691338E+05
 cg2d: Sum(rhs),rhsMax =  -6.83204015325818E+01  1.17663035882940E+00
(PID.TID 0000.0001)  ploadbar=  1.01079733121878E+05
 cg2d: Sum(rhs),rhsMax =  -6.89219032718282E+01  1.16586409426084E+00
(PID.TID 0000.0001)  ploadbar=  1.01078659552419E+05
 cg2d: Sum(rhs),rhsMax =  -6.95469702541502E+01  1.15490494278875E+00
(PID.TID 0000.0001)  ploadbar=  1.01079013982376E+05
 cg2d: Sum(rhs),rhsMax =  -7.01065992626670E+01  1.14521729317977E+00
(PID.TID 0000.0001)  ploadbar=  1.01079368412332E+05
 cg2d: Sum(rhs),rhsMax =  -7.06586904798308E+01  1.13580524641502E+00
(PID.TID 0000.0001)  ploadbar=  1.01079722842289E+05
 cg2d: Sum(rhs),rhsMax =  -7.12368439302939E+01  1.12612058880556E+00
(PID.TID 0000.0001)  ploadbar=  1.01080077272246E+05
 cg2d: Sum(rhs),rhsMax =  -7.15599463619692E+01  1.12056092375220E+00
(PID.TID 0000.0001)  ploadbar=  1.01080431702203E+05
 cg2d: Sum(rhs),rhsMax =  -7.17359190466639E+01  1.11732256262863E+00
(PID.TID 0000.0001)  ploadbar=  1.01080786132160E+05
 cg2d: Sum(rhs),rhsMax =  -7.19249274437992E+01  1.11390088883042E+00
(PID.TID 0000.0001)  ploadbar=  1.01081714314280E+05
 cg2d: Sum(rhs),rhsMax =  -7.16712857219125E+01  1.11735631978450E+00
(PID.TID 0000.0001)  ploadbar=  1.01082642496400E+05
 cg2d: Sum(rhs),rhsMax =  -7.09321581746779E+01  1.12850514193640E+00
(PID.TID 0000.0001)  ploadbar=  1.01083570678521E+05
 cg2d: Sum(rhs),rhsMax =  -7.00663756592460E+01  1.14194279212562E+00
(PID.TID 0000.0001)  ploadbar=  1.01084498860641E+05
 cg2d: Sum(rhs),rhsMax =  -6.90826796961606E+01  1.15767756240622E+00
(PID.TID 0000.0001)  ploadbar=  1.01085427042761E+05
 cg2d: Sum(rhs),rhsMax =  -6.80231938324153E+01  1.17515443206086E+00
(PID.TID 0000.0001)  ploadbar=  1.01086355224881E+05
 cg2d: Sum(rhs),rhsMax =  -6.70250268488871E+01  1.19206846323283E+00
(PID.TID 0000.0001)  ploadbar=  1.01087527180182E+05
 cg2d: Sum(rhs),rhsMax =  -6.62017064266558E+01  1.20626998243730E+00
(PID.TID 0000.0001)  ploadbar=  1.01088699135483E+05
 cg2d: Sum(rhs),rhsMax =  -6.55245701446765E+01  1.21806785772242E+00
(PID.TID 0000.0001)  ploadbar=  1.01089871090784E+05
 cg2d: Sum(rhs),rhsMax =  -6.49777654343661E+01  1.22759791698187E+00
(PID.TID 0000.0001)  ploadbar=  1.01091043046085E+05
 cg2d: Sum(rhs),rhsMax =  -6.45268283533990E+01  1.23539641829697E+00
(PID.TID 0000.0001)  ploadbar=  1.01092215001387E+05
 cg2d: Sum(rhs),rhsMax =  -6.40792661010319E+01  1.24317673447416E+00
(PID.TID 0000.0001)  ploadbar=  1.01093386956688E+05
 cg2d: Sum(rhs),rhsMax =  -6.35738563033944E+01  1.25230013526809E+00
(PID.TID 0000.0001)  ploadbar=  1.01093934275654E+05
 cg2d: Sum(rhs),rhsMax =  -6.30721061554183E+01  1.26158772331738E+00
(PID.TID 0000.0001)  ploadbar=  1.01094481594621E+05
 cg2d: Sum(rhs),rhsMax =  -6.25681514661280E+01  1.27115640184416E+00
(PID.TID 0000.0001)  ploadbar=  1.01095028913588E+05
 cg2d: Sum(rhs),rhsMax =  -6.20723218236735E+01  1.28079434466936E+00
(PID.TID 0000.0001)  ploadbar=  1.01095576232555E+05
 cg2d: Sum(rhs),rhsMax =  -6.15945787851412E+01  1.29028196173328E+00
(PID.TID 0000.0001)  ploadbar=  1.01096123551522E+05
 cg2d: Sum(rhs),rhsMax =  -6.11367334860319E+01  1.29955995233624E+00
(PID.TID 0000.0001)  ploadbar=  1.01096670870488E+05
 cg2d: Sum(rhs),rhsMax =  -6.07682957789064E+01  1.30704838212433E+00
(PID.TID 0000.0001)  ploadbar=  1.01096337074794E+05
 cg2d: Sum(rhs),rhsMax =  -6.04582161391648E+01  1.31335011252614E+00
(PID.TID 0000.0001)  ploadbar=  1.01096003279100E+05
 cg2d: Sum(rhs),rhsMax =  -6.01888363074886E+01  1.31880908691882E+00
(PID.TID 0000.0001)  ploadbar=  1.01095669483405E+05
 cg2d: Sum(rhs),rhsMax =  -5.99551448608320E+01  1.32350859859862E+00
(PID.TID 0000.0001)  ploadbar=  1.01095335687711E+05
 cg2d: Sum(rhs),rhsMax =  -5.97619943346317E+01  1.32732063398212E+00
(PID.TID 0000.0001)  ploadbar=  1.01095001892016E+05
 cg2d: Sum(rhs),rhsMax =  -5.96033278904621E+01  1.33036149065999E+00
(PID.TID 0000.0001)  ploadbar=  1.01094668096322E+05
 cg2d: Sum(rhs),rhsMax =  -5.94782705100974E+01  1.33269289964236E+00
(PID.TID 0000.0001)  ploadbar=  1.01093309258648E+05
 cg2d: Sum(rhs),rhsMax =  -5.93738037196444E+01  1.33459545962105E+00
(PID.TID 0000.0001)  ploadbar=  1.01091950420974E+05
 cg2d: Sum(rhs),rhsMax =  -5.92833644712612E+01  1.33621101471086E+00
(PID.TID 0000.0001)  ploadbar=  1.01090591583300E+05
 cg2d: Sum(rhs),rhsMax =  -5.91988482448280E+01  1.33771943390762E+00
(PID.TID 0000.0001)  ploadbar=  1.01089232745626E+05
 cg2d: Sum(rhs),rhsMax =  -5.91201026202700E+01  1.33912048297786E+00
(PID.TID 0000.0001)  ploadbar=  1.01087873907952E+05
 cg2d: Sum(rhs),rhsMax =  -5.90480178697571E+01  1.34038932638771E+00
(PID.TID 0000.0001)  ploadbar=  1.01086515070279E+05
 cg2d: Sum(rhs),rhsMax =  -5.89103022748917E+01  1.34312465233476E+00
(PID.TID 0000.0001)  ploadbar=  1.01085805978213E+05
 cg2d: Sum(rhs),rhsMax =  -5.87831044072938E+01  1.34559465309833E+00
(PID.TID 0000.0001)  ploadbar=  1.01085096886148E+05
 cg2d: Sum(rhs),rhsMax =  -5.86593545327812E+01  1.34795360053124E+00
(PID.TID 0000.0001)  ploadbar=  1.01084387794083E+05
 cg2d: Sum(rhs),rhsMax =  -5.85385292296021E+01  1.35020343826962E+00
(PID.TID 0000.0001)  ploadbar=  1.01083678702017E+05
 cg2d: Sum(rhs),rhsMax =  -5.84213290245402E+01  1.35231839808784E+00
(PID.TID 0000.0001)  ploadbar=  1.01082969609952E+05
 cg2d: Sum(rhs),rhsMax =  -5.83116778744879E+01  1.35420509341710E+00
(PID.TID 0000.0001)  ploadbar=  1.01082260517887E+05
 cg2d: Sum(rhs),rhsMax =  -5.82367295306456E+01  1.35530971606774E+00
(PID.TID 0000.0001)  ploadbar=  1.01081551742602E+05
 cg2d: Sum(rhs),rhsMax =  -5.81852400219214E+01  1.35588192674480E+00
(PID.TID 0000.0001)  ploadbar=  1.01080842967317E+05
 cg2d: Sum(rhs),rhsMax =  -5.81607411387396E+01  1.35583302181080E+00
(PID.TID 0000.0001)  ploadbar=  1.01080134192032E+05
 cg2d: Sum(rhs),rhsMax =  -5.81635172885493E+01  1.35514712829136E+00
(PID.TID 0000.0001)  ploadbar=  1.01079425416748E+05
 cg2d: Sum(rhs),rhsMax =  -5.82015002695123E+01  1.35363690448329E+00
(PID.TID 0000.0001)  ploadbar=  1.01078716641463E+05
 cg2d: Sum(rhs),rhsMax =  -5.82728899003974E+01  1.35134109225047E+00
(PID.TID 0000.0001)  ploadbar=  1.01078007866178E+05
 cg2d: Sum(rhs),rhsMax =  -5.84150536393274E+01  1.34741083845782E+00
(PID.TID 0000.0001)  ploadbar=  1.01078023832371E+05
 cg2d: Sum(rhs),rhsMax =  -5.86146490290418E+01  1.34217372311889E+00
(PID.TID 0000.0001)  ploadbar=  1.01078039798563E+05
 cg2d: Sum(rhs),rhsMax =  -5.88653148778190E+01  1.33580063980786E+00
(PID.TID 0000.0001)  ploadbar=  1.01078055764756E+05
 cg2d: Sum(rhs),rhsMax =  -5.91517183977383E+01  1.32866485878161E+00
(PID.TID 0000.0001)  ploadbar=  1.01078071730948E+05
 cg2d: Sum(rhs),rhsMax =  -5.94637621608436E+01  1.32101207710678E+00
(PID.TID 0000.0001)  ploadbar=  1.01078087697141E+05
 cg2d: Sum(rhs),rhsMax =  -5.97998250445020E+01  1.31289246727766E+00
(PID.TID 0000.0001)  ploadbar=  1.01078103663334E+05
 cg2d: Sum(rhs),rhsMax =  -6.05769875278650E+01  1.29538535415031E+00
(PID.TID 0000.0001)  ploadbar=  1.01078633801942E+05
 cg2d: Sum(rhs),rhsMax =  -6.16080861510940E+01  1.27307184831161E+00
(PID.TID 0000.0001)  ploadbar=  1.01079163940550E+05
 cg2d: Sum(rhs),rhsMax =  -6.28323943889565E+01  1.24766012537096E+00
(PID.TID 0000.0001)  ploadbar=  1.01079694079159E+05
 cg2d: Sum(rhs),rhsMax =  -6.43242662644556E+01  1.21814124581887E+00
(PID.TID 0000.0001)  ploadbar=  1.01080224217767E+05
 cg2d: Sum(rhs),rhsMax =  -6.61393738842442E+01  1.18414917545142E+00
(PID.TID 0000.0001)  ploadbar=  1.01080754356376E+05
 cg2d: Sum(rhs),rhsMax =  -6.83289063170449E+01  1.14565625056889E+00
(PID.TID 0000.0001)  ploadbar=  1.01081284494984E+05
 cg2d: Sum(rhs),rhsMax =  -6.70280763931400E+01  1.16731503521321E+00
(PID.TID 0000.0001)  ploadbar=  1.01080632987382E+05
 cg2d: Sum(rhs),rhsMax =  -6.49167356590206E+01  1.20466544924502E+00
(PID.TID 0000.0001)  ploadbar=  1.01079981479781E+05
 cg2d: Sum(rhs),rhsMax =  -6.28777173618348E+01  1.24306853779802E+00
(PID.TID 0000.0001)  ploadbar=  1.01079329972179E+05
 cg2d: Sum(rhs),rhsMax =  -6.07342451576890E+01  1.28622171836067E+00
(PID.TID 0000.0001)  ploadbar=  1.01078678464577E+05
 cg2d: Sum(rhs),rhsMax =  -5.85333017189780E+01  1.33379985424815E+00
(PID.TID 0000.0001)  ploadbar=  1.01078026956975E+05
 cg2d: Sum(rhs),rhsMax =  -5.63310694928969E+01  1.38507756935688E+00
(PID.TID 0000.0001)  ploadbar=  1.01077375449373E+05
 cg2d: Sum(rhs),rhsMax =  -5.42750354214215E+01  1.43672479647876E+00
(PID.TID 0000.0001)  ploadbar=  1.01075474557823E+05
 cg2d: Sum(rhs),rhsMax =  -5.23825825463206E+01  1.48785608840265E+00
(PID.TID 0000.0001)  ploadbar=  1.01073573666274E+05
 cg2d: Sum(rhs),rhsMax =  -5.06634930110175E+01  1.53761497606440E+00
(PID.TID 0000.0001)  ploadbar=  1.01071672774725E+05
 cg2d: Sum(rhs),rhsMax =  -4.91261538696828E+01  1.58505428142671E+00
(PID.TID 0000.0001)  ploadbar=  1.01069771883175E+05
 cg2d: Sum(rhs),rhsMax =  -4.77646545560269E+01  1.62960412787251E+00
(PID.TID 0000.0001)  ploadbar=  1.01067870991626E+05
 cg2d: Sum(rhs),rhsMax =  -4.65591593843353E+01  1.67121006811757E+00
(PID.TID 0000.0001)  ploadbar=  1.01065970100076E+05
 cg2d: Sum(rhs),rhsMax =  -4.54835383208006E+01  1.71014092820066E+00
(PID.TID 0000.0001)  ploadbar=  1.01065727786269E+05
 cg2d: Sum(rhs),rhsMax =  -4.45012547184922E+01  1.74728630793735E+00
(PID.TID 0000.0001)  ploadbar=  1.01065485472461E+05
 cg2d: Sum(rhs),rhsMax =  -4.35979167811741E+01  1.78286550267365E+00
(PID.TID 0000.0001)  ploadbar=  1.01065243158654E+05
 cg2d: Sum(rhs),rhsMax =  -4.27687096448315E+01  1.81677780243720E+00
(PID.TID 0000.0001)  ploadbar=  1.01065000844847E+05
 cg2d: Sum(rhs),rhsMax =  -4.20103197265626E+01  1.84888249265971E+00
(PID.TID 0000.0001)  ploadbar=  1.01064758531039E+05
 cg2d: Sum(rhs),rhsMax =  -4.13204905784227E+01  1.87901300978080E+00
(PID.TID 0000.0001)  ploadbar=  1.01064516217232E+05
 cg2d: Sum(rhs),rhsMax =  -4.06991311718534E+01  1.90698923690689E+00
(PID.TID 0000.0001)  ploadbar=  1.01064454050655E+05
 cg2d: Sum(rhs),rhsMax =  -4.01492210032275E+01  1.93242089568518E+00
(PID.TID 0000.0001)  ploadbar=  1.01064391884078E+05
 cg2d: Sum(rhs),rhsMax =  -3.96579967537048E+01  1.95569045537433E+00
(PID.TID 0000.0001)  ploadbar=  1.01064329717502E+05
 cg2d: Sum(rhs),rhsMax =  -3.92165072936881E+01  1.97705851620278E+00
(PID.TID 0000.0001)  ploadbar=  1.01064267550925E+05
 cg2d: Sum(rhs),rhsMax =  -3.88186911895215E+01  1.99668063158270E+00
(PID.TID 0000.0001)  ploadbar=  1.01064205384349E+05
 cg2d: Sum(rhs),rhsMax =  -3.84573275425023E+01  2.01480413554741E+00
(PID.TID 0000.0001)  ploadbar=  1.01064143217772E+05
 cg2d: Sum(rhs),rhsMax =  -3.81220652011192E+01  2.03188857633442E+00
(PID.TID 0000.0001)  ploadbar=  1.01064622936013E+05
 cg2d: Sum(rhs),rhsMax =  -3.78090153085666E+01  2.04807201052112E+00
(PID.TID 0000.0001)  ploadbar=  1.01065102654253E+05
 cg2d: Sum(rhs),rhsMax =  -3.75968875267651E+01  2.05897377754738E+00
(PID.TID 0000.0001)  ploadbar=  1.01065582372494E+05
 cg2d: Sum(rhs),rhsMax =  -3.73815108591777E+01  2.07016036253789E+00
(PID.TID 0000.0001)  ploadbar=  1.01066062090735E+05
 cg2d: Sum(rhs),rhsMax =  -3.71689888986918E+01  2.08128732383304E+00
(PID.TID 0000.0001)  ploadbar=  1.01066541808975E+05
 cg2d: Sum(rhs),rhsMax =  -3.69704039331074E+01  2.09171888091486E+00
(PID.TID 0000.0001)  ploadbar=  1.01067021527216E+05
 cg2d: Sum(rhs),rhsMax =  -3.67837536139484E+01  2.10169472857280E+00
(PID.TID 0000.0001)  ploadbar=  1.01067275573142E+05
 cg2d: Sum(rhs),rhsMax =  -3.66165082730623E+01  2.11075935642576E+00
(PID.TID 0000.0001)  ploadbar=  1.01067529619068E+05
 cg2d: Sum(rhs),rhsMax =  -3.64740383443756E+01  2.11856082561749E+00
(PID.TID 0000.0001)  ploadbar=  1.01067783664995E+05
 cg2d: Sum(rhs),rhsMax =  -3.63459714055950E+01  2.12565801252381E+00
(PID.TID 0000.0001)  ploadbar=  1.01068037710921E+05
 cg2d: Sum(rhs),rhsMax =  -3.62417700631560E+01  2.13146498631604E+00
(PID.TID 0000.0001)  ploadbar=  1.01068291756847E+05
 cg2d: Sum(rhs),rhsMax =  -3.61783290460515E+01  2.13495084848481E+00
(PID.TID 0000.0001)  ploadbar=  1.01068545802773E+05
 cg2d: Sum(rhs),rhsMax =  -3.61728609629045E+01  2.13503689152920E+00
(PID.TID 0000.0001)  ploadbar=  1.01069078380097E+05
 cg2d: Sum(rhs),rhsMax =  -3.59861944699180E+01  2.14587802795857E+00
(PID.TID 0000.0001)      cg2d_init_res =   1.61188655220975E-01
(PID.TID 0000.0001)      cg2d_iters(min,last) =      -1     141
(PID.TID 0000.0001)      cg2d_last_res =   9.12865160716843E-08
(PID.TID 0000.0001) // =======================================================
(PID.TID 0000.0001) // Begin MONITOR dynamic field statistics
(PID.TID 0000.0001) // =======================================================
(PID.TID 0000.0001) %MON time_tsnumber                =                  1752
(PID.TID 0000.0001) %MON time_secondsf                =   6.3072000000000E+06
(PID.TID 0000.0001) %MON dynstat_eta_max              =   1.2570074566586E+00
(PID.TID 0000.0001) %MON dynstat_eta_min              =  -6.2164004630737E+00
(PID.TID 0000.0001) %MON dynstat_eta_mean             =   3.9084447764724E-02
(PID.TID 0000.0001) %MON dynstat_eta_sd               =   7.3338140655593E-01
(PID.TID 0000.0001) %MON dynstat_eta_del2             =   2.1530835852104E-04
(PID.TID 0000.0001) %MON dynstat_uvel_max             =   6.8694980666347E-01
(PID.TID 0000.0001) %MON dynstat_uvel_min             =  -7.2233351480904E-01
(PID.TID 0000.0001) %MON dynstat_uvel_mean            =   1.3440612473347E-03
(PID.TID 0000.0001) %MON dynstat_uvel_sd              =   2.0176514583811E-02
(PID.TID 0000.0001) %MON dynstat_uvel_del2            =   8.7822925260422E-06
(PID.TID 0000.0001) %MON dynstat_vvel_max             =   6.7441463126006E-01
(PID.TID 0000.0001) %MON dynstat_vvel_min             =  -9.1457626591744E-01
(PID.TID 0000.0001) %MON dynstat_vvel_mean            =   1.0701459405751E-03
(PID.TID 0000.0001) %MON dynstat_vvel_sd              =   2.1696209497713E-02
(PID.TID 0000.0001) %MON dynstat_vvel_del2            =   8.9014886131284E-06
(PID.TID 0000.0001) %MON dynstat_wvel_max             =   5.4205543156940E-04
(PID.TID 0000.0001) %MON dynstat_wvel_min             =  -9.6881225192956E-04
(PID.TID 0000.0001) %MON dynstat_wvel_mean            =   7.2091257727489E-09
(PID.TID 0000.0001) %MON dynstat_wvel_sd              =   2.1664784735498E-05
(PID.TID 0000.0001) %MON dynstat_wvel_del2            =   1.5627532569275E-08
(PID.TID 0000.0001) %MON dynstat_theta_max            =   3.1699320115427E+01
(PID.TID 0000.0001) %MON dynstat_theta_min            =  -2.0281859958635E+00
(PID.TID 0000.0001) %MON dynstat_theta_mean           =   3.5868874791406E+00
(PID.TID 0000.0001) %MON dynstat_theta_sd             =   4.4399502424147E+00
(PID.TID 0000.0001) %MON dynstat_theta_del2           =   8.7484175080690E-05
(PID.TID 0000.0001) %MON dynstat_salt_max             =   4.0641562599298E+01
(PID.TID 0000.0001) %MON dynstat_salt_min             =   2.5618177570081E+01
(PID.TID 0000.0001) %MON dynstat_salt_mean            =   3.4727280983473E+01
(PID.TID 0000.0001) %MON dynstat_salt_sd              =   3.7799220774556E-01
(PID.TID 0000.0001) %MON dynstat_salt_del2            =   2.0443791853266E-05
(PID.TID 0000.0001) %MON dynstat_sst_max              =   3.1683961818912E+01
(PID.TID 0000.0001) %MON dynstat_sst_min              =  -1.9663141899771E+00
(PID.TID 0000.0001) %MON dynstat_sst_mean             =   1.8461116517509E+01
(PID.TID 0000.0001) %MON dynstat_sst_sd               =   1.0199009126047E+01
(PID.TID 0000.0001) %MON dynstat_sst_del2             =   6.7977670615325E-04
(PID.TID 0000.0001) %MON dynstat_sss_max              =   4.0578362111318E+01
(PID.TID 0000.0001) %MON dynstat_sss_min              =   2.5618177570081E+01
(PID.TID 0000.0001) %MON dynstat_sss_mean             =   3.4752436732657E+01
(PID.TID 0000.0001) %MON dynstat_sss_sd               =   1.1854480964840E+00
(PID.TID 0000.0001) %MON dynstat_sss_del2             =   3.3339158792195E-04
(PID.TID 0000.0001) %MON forcing_qnet_max             =   7.6025013172118E+02
(PID.TID 0000.0001) %MON forcing_qnet_min             =  -5.5529529330187E+02
(PID.TID 0000.0001) %MON forcing_qnet_mean            =   1.4623922800776E+01
(PID.TID 0000.0001) %MON forcing_qnet_sd              =   1.8255245327055E+02
(PID.TID 0000.0001) %MON forcing_qnet_del2            =   9.0300183117826E-02
(PID.TID 0000.0001) %MON forcing_qsw_max              =   7.9459537736060E+01
(PID.TID 0000.0001) %MON forcing_qsw_min              =  -6.2460430722840E+02
(PID.TID 0000.0001) %MON forcing_qsw_mean             =  -1.4635798266441E+02
(PID.TID 0000.0001) %MON forcing_qsw_sd               =   1.6129207673342E+02
(PID.TID 0000.0001) %MON forcing_qsw_del2             =   4.5961869598110E-02
(PID.TID 0000.0001) %MON forcing_empmr_max            =   1.4523647318968E-03
(PID.TID 0000.0001) %MON forcing_empmr_min            =  -4.3111243160653E-03
(PID.TID 0000.0001) %MON forcing_empmr_mean           =   1.2164656673915E-06
(PID.TID 0000.0001) %MON forcing_empmr_sd             =   1.0491781122554E-04
(PID.TID 0000.0001) %MON forcing_empmr_del2           =   2.7266347859646E-07
(PID.TID 0000.0001) %MON forcing_fu_max               =   1.0611406069926E+00
(PID.TID 0000.0001) %MON forcing_fu_min               =  -1.0520294507345E+00
(PID.TID 0000.0001) %MON forcing_fu_mean              =   1.2576913096257E-02
(PID.TID 0000.0001) %MON forcing_fu_sd                =   1.0404351143231E-01
(PID.TID 0000.0001) %MON forcing_fu_del2              =   8.1632457538875E-05
(PID.TID 0000.0001) %MON forcing_fv_max               =   9.0132539470991E-01
(PID.TID 0000.0001) %MON forcing_fv_min               =  -9.6669288882067E-01
(PID.TID 0000.0001) %MON forcing_fv_mean              =   1.1724798532664E-03
(PID.TID 0000.0001) %MON forcing_fv_sd                =   1.1089259884796E-01
(PID.TID 0000.0001) %MON forcing_fv_del2              =   6.8165476967216E-05
(PID.TID 0000.0001) %MON trAdv_CFL_u_max              =   5.9579409358383E-02
(PID.TID 0000.0001) %MON trAdv_CFL_v_max              =   5.2699055832197E-02
(PID.TID 0000.0001) %MON trAdv_CFL_w_max              =   1.0200137005513E-01
(PID.TID 0000.0001) %MON advcfl_uvel_max              =   5.6488471476941E-02
(PID.TID 0000.0001) %MON advcfl_vvel_max              =   4.2333678696757E-02
(PID.TID 0000.0001) %MON advcfl_wvel_max              =   1.0492448302934E-01
(PID.TID 0000.0001) %MON advcfl_W_hf_max              =   1.0585572639049E-01
(PID.TID 0000.0001) %MON pe_b_mean                    =   1.3904745631079E-03
(PID.TID 0000.0001) %MON ke_max                       =   5.2239544709437E-01
(PID.TID 0000.0001) %MON ke_mean                      =   4.2470378871407E-04
(PID.TID 0000.0001) %MON ke_vol                       =   1.3350118712370E+18
(PID.TID 0000.0001) %MON vort_r_min                   =  -2.1042730420246E-05
(PID.TID 0000.0001) %MON vort_r_max                   =   1.7760338917354E-05
(PID.TID 0000.0001) %MON vort_a_mean                  =  -1.9727864647440E-05
(PID.TID 0000.0001) %MON vort_a_sd                    =   7.4543045049120E-05
(PID.TID 0000.0001) %MON vort_p_mean                  =  -2.1760282988443E-05
(PID.TID 0000.0001) %MON vort_p_sd                    =   9.7248818075181E-05
(PID.TID 0000.0001) %MON surfExpan_theta_mean         =   2.4971938290842E-07
(PID.TID 0000.0001) %MON surfExpan_salt_mean          =   6.2673653157221E-09
(PID.TID 0000.0001) // =======================================================
(PID.TID 0000.0001) // End MONITOR dynamic field statistics
(PID.TID 0000.0001) // =======================================================
(PID.TID 0000.0001)  ploadbar=  1.01069610957421E+05
(PID.TID 0000.0001) %SBO sbo_mass                     =   1.3737507833022E+21
(PID.TID 0000.0001) %SBO sbo_mass_fw                  =   3.7967931691060E+16
(PID.TID 0000.0001) %SBO sbo_zoamc                    =   1.0547919595003E+25
(PID.TID 0000.0001) %SBO sbo_zoamp                    =   2.9276525448994E+30
(PID.TID 0000.0001) // =======================================================
(PID.TID 0000.0001) // Begin MONITOR SEAICE statistics
(PID.TID 0000.0001) // =======================================================
(PID.TID 0000.0001) %MON seaice_tsnumber              =                  1752
(PID.TID 0000.0001) %MON seaice_time_sec              =   6.3072000000000E+06
(PID.TID 0000.0001) %MON seaice_uice_max              =   4.0000000000000E-01
(PID.TID 0000.0001) %MON seaice_uice_min              =  -4.0000000000000E-01
(PID.TID 0000.0001) %MON seaice_uice_mean             =   2.4616965911900E-03
(PID.TID 0000.0001) %MON seaice_uice_sd               =   1.6328297964489E-01
(PID.TID 0000.0001) %MON seaice_uice_del2             =   1.4265718440543E-04
(PID.TID 0000.0001) %MON seaice_vice_max              =   4.0000000000000E-01
(PID.TID 0000.0001) %MON seaice_vice_min              =  -4.0000000000000E-01
(PID.TID 0000.0001) %MON seaice_vice_mean             =  -9.2980635583316E-03
(PID.TID 0000.0001) %MON seaice_vice_sd               =   1.7625092567474E-01
(PID.TID 0000.0001) %MON seaice_vice_del2             =   1.4386205693073E-04
(PID.TID 0000.0001) %MON seaice_area_max              =   9.7000000000000E-01
(PID.TID 0000.0001) %MON seaice_area_min              =   0.0000000000000E+00
(PID.TID 0000.0001) %MON seaice_area_mean             =   4.9091008083219E-02
(PID.TID 0000.0001) %MON seaice_area_sd               =   2.0430047884436E-01
(PID.TID 0000.0001) %MON seaice_area_del2             =   2.2693386953911E-04
(PID.TID 0000.0001) %MON seaice_heff_max              =   6.0780075693242E+00
(PID.TID 0000.0001) %MON seaice_heff_min              =   0.0000000000000E+00
(PID.TID 0000.0001) %MON seaice_heff_mean             =   6.9504390001540E-02
(PID.TID 0000.0001) %MON seaice_heff_sd               =   3.6460436617410E-01
(PID.TID 0000.0001) %MON seaice_heff_del2             =   2.2299168245674E-04
(PID.TID 0000.0001) %MON seaice_hsnow_max             =   1.0492021495578E+00
(PID.TID 0000.0001) %MON seaice_hsnow_min             =  -7.8853835435724E-05
(PID.TID 0000.0001) %MON seaice_hsnow_mean            =   7.8323555379039E-03
(PID.TID 0000.0001) %MON seaice_hsnow_sd              =   4.5734953918458E-02
(PID.TID 0000.0001) %MON seaice_hsnow_del2            =   4.4109936044428E-05
(PID.TID 0000.0001) // =======================================================
(PID.TID 0000.0001) // End MONITOR SEAICE statistics
(PID.TID 0000.0001) // =======================================================
(PID.TID 0000.0001) // =======================================================
(PID.TID 0000.0001) // Begin MONITOR EXF statistics
(PID.TID 0000.0001) // =======================================================
(PID.TID 0000.0001) %MON exf_tsnumber                 =                  1752
(PID.TID 0000.0001) %MON exf_time_sec                 =   6.3072000000000E+06
(PID.TID 0000.0001) %MON exf_ustress_max              =   1.4396965275426E+00
(PID.TID 0000.0001) %MON exf_ustress_min              =  -1.0447053313255E+00
(PID.TID 0000.0001) %MON exf_ustress_mean             =   1.2650357019797E-02
(PID.TID 0000.0001) %MON exf_ustress_sd               =   1.0562586030690E-01
(PID.TID 0000.0001) %MON exf_ustress_del2             =   9.9275013429394E-05
(PID.TID 0000.0001) %MON exf_vstress_max              =   8.7365045265379E-01
(PID.TID 0000.0001) %MON exf_vstress_min              =  -9.6799236911501E-01
(PID.TID 0000.0001) %MON exf_vstress_mean             =   1.7920409026405E-03
(PID.TID 0000.0001) %MON exf_vstress_sd               =   1.1171223924807E-01
(PID.TID 0000.0001) %MON exf_vstress_del2             =   8.0868165428926E-05
(PID.TID 0000.0001) %MON exf_hflux_max                =   1.0370781964824E+03
(PID.TID 0000.0001) %MON exf_hflux_min                =  -5.1543292158089E+02
(PID.TID 0000.0001) %MON exf_hflux_mean               =   3.0093275512627E+01
(PID.TID 0000.0001) %MON exf_hflux_sd                 =   2.0014803021734E+02
(PID.TID 0000.0001) %MON exf_hflux_del2               =   3.6001522408362E-01
(PID.TID 0000.0001) %MON exf_sflux_max                =   2.3865038171197E-07
(PID.TID 0000.0001) %MON exf_sflux_min                =  -4.2819708660203E-06
(PID.TID 0000.0001) %MON exf_sflux_mean               =   4.3172945319175E-10
(PID.TID 0000.0001) %MON exf_sflux_sd                 =   9.7726550274401E-08
(PID.TID 0000.0001) %MON exf_sflux_del2               =   2.0473507866485E-10
(PID.TID 0000.0001) %MON exf_wspeed_max               =   2.1851756095886E+01
(PID.TID 0000.0001) %MON exf_wspeed_min               =   2.8774048388004E-01
(PID.TID 0000.0001) %MON exf_wspeed_mean              =   6.8613227575660E+00
(PID.TID 0000.0001) %MON exf_wspeed_sd                =   3.1794185225919E+00
(PID.TID 0000.0001) %MON exf_wspeed_del2              =   1.2650203322452E-02
(PID.TID 0000.0001) %MON exf_atemp_max                =   3.0567787494659E+02
(PID.TID 0000.0001) %MON exf_atemp_min                =   2.2366437759399E+02
(PID.TID 0000.0001) %MON exf_atemp_mean               =   2.8940862470442E+02
(PID.TID 0000.0001) %MON exf_atemp_sd                 =   1.2355167474292E+01
(PID.TID 0000.0001) %MON exf_atemp_del2               =   2.6206823117817E-02
(PID.TID 0000.0001) %MON exf_aqh_max                  =   2.1431800909340E-02
(PID.TID 0000.0001) %MON exf_aqh_min                  =   4.7269400056393E-05
(PID.TID 0000.0001) %MON exf_aqh_mean                 =   1.0997100703323E-02
(PID.TID 0000.0001) %MON exf_aqh_sd                   =   5.6985927098833E-03
(PID.TID 0000.0001) %MON exf_aqh_del2                 =   1.4696445111560E-05
(PID.TID 0000.0001) %MON exf_lwflux_max               =   2.2014424456894E+02
(PID.TID 0000.0001) %MON exf_lwflux_min               =  -4.3230165431067E+01
(PID.TID 0000.0001) %MON exf_lwflux_mean              =   4.7429845906527E+01
(PID.TID 0000.0001) %MON exf_lwflux_sd                =   2.8271210491634E+01
(PID.TID 0000.0001) %MON exf_lwflux_del2              =   9.2020821939396E-02
(PID.TID 0000.0001) %MON exf_evap_max                 =   2.3314364911419E-07
(PID.TID 0000.0001) %MON exf_evap_min                 =  -5.1112623707754E-08
(PID.TID 0000.0001) %MON exf_evap_mean                =   4.2617449310327E-08
(PID.TID 0000.0001) %MON exf_evap_sd                  =   2.7508885551562E-08
(PID.TID 0000.0001) %MON exf_evap_del2                =   7.2333674649783E-11
(PID.TID 0000.0001) %MON exf_precip_max               =   2.5613436491767E-06
(PID.TID 0000.0001) %MON exf_precip_min               =  -2.4068688375678E-08
(PID.TID 0000.0001) %MON exf_precip_mean              =   3.8557920777117E-08
(PID.TID 0000.0001) %MON exf_precip_sd                =   7.7875658877225E-08
(PID.TID 0000.0001) %MON exf_precip_del2              =   1.9992431420799E-10
(PID.TID 0000.0001) %MON exf_swflux_max               =   1.2468220105177E+02
(PID.TID 0000.0001) %MON exf_swflux_min               =  -5.7730123540225E+02
(PID.TID 0000.0001) %MON exf_swflux_mean              =  -1.5117998560389E+02
(PID.TID 0000.0001) %MON exf_swflux_sd                =   1.5529799410733E+02
(PID.TID 0000.0001) %MON exf_swflux_del2              =   2.6826759239606E-01
(PID.TID 0000.0001) %MON exf_swdown_max               =   6.2232168579102E+02
(PID.TID 0000.0001) %MON exf_swdown_min               =  -1.5688555908203E+02
(PID.TID 0000.0001) %MON exf_swdown_mean              =   1.6391441705570E+02
(PID.TID 0000.0001) %MON exf_swdown_sd                =   1.6785810344158E+02
(PID.TID 0000.0001) %MON exf_swdown_del2              =   2.9128576780478E-01
(PID.TID 0000.0001) %MON exf_lwdown_max               =   4.7533741760254E+02
(PID.TID 0000.0001) %MON exf_lwdown_min               =   7.9792095184326E+01
(PID.TID 0000.0001) %MON exf_lwdown_mean              =   3.6407876533358E+02
(PID.TID 0000.0001) %MON exf_lwdown_sd                =   6.4069810973199E+01
(PID.TID 0000.0001) %MON exf_lwdown_del2              =   4.8916846771479E-01
(PID.TID 0000.0001) %MON exf_apressure_max            =   1.0394780468750E+05
(PID.TID 0000.0001) %MON exf_apressure_min            =   9.6015500000000E+04
(PID.TID 0000.0001) %MON exf_apressure_mean           =   1.0107014353475E+05
(PID.TID 0000.0001) %MON exf_apressure_sd             =   1.0577989349368E+03
(PID.TID 0000.0001) %MON exf_apressure_del2           =   1.4502261025652E+02
(PID.TID 0000.0001) %MON exf_runoff_max               =   4.1620624112208E-06
(PID.TID 0000.0001) %MON exf_runoff_min               =   0.0000000000000E+00
(PID.TID 0000.0001) %MON exf_runoff_mean              =   3.6277990800184E-09
(PID.TID 0000.0001) %MON exf_runoff_sd                =   4.6689937897439E-08
(PID.TID 0000.0001) %MON exf_runoff_del2              =   3.2293909919228E-11
(PID.TID 0000.0001) // =======================================================
(PID.TID 0000.0001) // End MONITOR EXF statistics
(PID.TID 0000.0001) // =======================================================
 cg2d: Sum(rhs),rhsMax =  -3.58340842972868E+01  2.15474291749208E+00
(PID.TID 0000.0001)  ploadbar=  1.01070143534745E+05
 cg2d: Sum(rhs),rhsMax =  -3.57218374049348E+01  2.16125361041886E+00
(PID.TID 0000.0001)  ploadbar=  1.01070676112070E+05
 cg2d: Sum(rhs),rhsMax =  -3.56445135466046E+01  2.16566025881081E+00
(PID.TID 0000.0001)  ploadbar=  1.01071208689394E+05
 cg2d: Sum(rhs),rhsMax =  -3.56018527085312E+01  2.16794533770544E+00
(PID.TID 0000.0001)  ploadbar=  1.01071741266718E+05
 cg2d: Sum(rhs),rhsMax =  -3.55895039069849E+01  2.16842909754698E+00
(PID.TID 0000.0001)  ploadbar=  1.01071593289327E+05
 cg2d: Sum(rhs),rhsMax =  -3.56017930826374E+01  2.16745182860202E+00
(PID.TID 0000.0001)  ploadbar=  1.01071445311936E+05
 cg2d: Sum(rhs),rhsMax =  -3.56343639412215E+01  2.16527713539663E+00
(PID.TID 0000.0001)  ploadbar=  1.01071297334544E+05
 cg2d: Sum(rhs),rhsMax =  -3.56851464703006E+01  2.16203354980425E+00
(PID.TID 0000.0001)  ploadbar=  1.01071149357153E+05
 cg2d: Sum(rhs),rhsMax =  -3.57575737465692E+01  2.15751441942236E+00
(PID.TID 0000.0001)  ploadbar=  1.01071001379762E+05
 cg2d: Sum(rhs),rhsMax =  -3.58466053117924E+01  2.15202449740271E+00
(PID.TID 0000.0001)  ploadbar=  1.01070853402371E+05
 cg2d: Sum(rhs),rhsMax =  -3.59474021327780E+01  2.14578675924258E+00
(PID.TID 0000.0001)  ploadbar=  1.01070110422048E+05
 cg2d: Sum(rhs),rhsMax =  -3.60575895482870E+01  2.13894869665031E+00
(PID.TID 0000.0001)  ploadbar=  1.01069367441725E+05
 cg2d: Sum(rhs),rhsMax =  -3.61750398233661E+01  2.13163596249418E+00
(PID.TID 0000.0001)  ploadbar=  1.01068624461402E+05
 cg2d: Sum(rhs),rhsMax =  -3.63020845655510E+01  2.12371275442830E+00
(PID.TID 0000.0001)  ploadbar=  1.01067881481079E+05
 cg2d: Sum(rhs),rhsMax =  -3.64382491084383E+01  2.11520906698748E+00
(PID.TID 0000.0001)  ploadbar=  1.01067138500757E+05
 cg2d: Sum(rhs),rhsMax =  -3.65827651678664E+01  2.10617753905395E+00
(PID.TID 0000.0001)  ploadbar=  1.01066395520434E+05
 cg2d: Sum(rhs),rhsMax =  -3.67334901625608E+01  2.09694843848739E+00
(PID.TID 0000.0001)  ploadbar=  1.01065162719326E+05
 cg2d: Sum(rhs),rhsMax =  -3.68944442853391E+01  2.08729566359224E+00
(PID.TID 0000.0001)  ploadbar=  1.01063929918218E+05
 cg2d: Sum(rhs),rhsMax =  -3.70612295971536E+01  2.07746858348375E+00
(PID.TID 0000.0001)  ploadbar=  1.01062697117111E+05
 cg2d: Sum(rhs),rhsMax =  -3.72328277992022E+01  2.06751978641077E+00
(PID.TID 0000.0001)  ploadbar=  1.01061464316003E+05
 cg2d: Sum(rhs),rhsMax =  -3.74072222687215E+01  2.05755632010469E+00
(PID.TID 0000.0001)  ploadbar=  1.01060231514895E+05
 cg2d: Sum(rhs),rhsMax =  -3.75825741437552E+01  2.04766441723985E+00
(PID.TID 0000.0001)  ploadbar=  1.01058998713788E+05
 cg2d: Sum(rhs),rhsMax =  -3.77524301015195E+01  2.03814948598987E+00
(PID.TID 0000.0001)  ploadbar=  1.01057429116433E+05
 cg2d: Sum(rhs),rhsMax =  -3.79123015043128E+01  2.02923785463420E+00
(PID.TID 0000.0001)  ploadbar=  1.01055859519079E+05
 cg2d: Sum(rhs),rhsMax =  -3.80626955685176E+01  2.02087898908393E+00
(PID.TID 0000.0001)  ploadbar=  1.01054289921724E+05
 cg2d: Sum(rhs),rhsMax =  -3.81968657417232E+01  2.01340216510479E+00
(PID.TID 0000.0001)  ploadbar=  1.01052720324369E+05
 cg2d: Sum(rhs),rhsMax =  -3.83127364778165E+01  2.00688657337619E+00
(PID.TID 0000.0001)  ploadbar=  1.01051150727015E+05
 cg2d: Sum(rhs),rhsMax =  -3.84099842317245E+01  2.00132146603742E+00
(PID.TID 0000.0001)  ploadbar=  1.01049581129660E+05
 cg2d: Sum(rhs),rhsMax =  -3.84881347349953E+01  1.99679424159287E+00
(PID.TID 0000.0001)  ploadbar=  1.01047336242152E+05
 cg2d: Sum(rhs),rhsMax =  -3.85564621417757E+01  1.99281049703169E+00
(PID.TID 0000.0001)  ploadbar=  1.01045091354643E+05
 cg2d: Sum(rhs),rhsMax =  -3.86171715037885E+01  1.98924607438248E+00
(PID.TID 0000.0001)  ploadbar=  1.01042846467134E+05
 cg2d: Sum(rhs),rhsMax =  -3.86697448047673E+01  1.98611556075872E+00
(PID.TID 0000.0001)  ploadbar=  1.01040601579626E+05
 cg2d: Sum(rhs),rhsMax =  -3.87145687842269E+01  1.98338509482657E+00
(PID.TID 0000.0001)  ploadbar=  1.01038356692117E+05
 cg2d: Sum(rhs),rhsMax =  -3.87515237641512E+01  1.98104936081285E+00
(PID.TID 0000.0001)  ploadbar=  1.01036111804608E+05
 cg2d: Sum(rhs),rhsMax =  -3.87752043113083E+01  1.97938949563963E+00
(PID.TID 0000.0001)  ploadbar=  1.01035109900464E+05
 cg2d: Sum(rhs),rhsMax =  -3.87905740922278E+01  1.97814285434262E+00
(PID.TID 0000.0001)  ploadbar=  1.01034107996320E+05
 cg2d: Sum(rhs),rhsMax =  -3.88053105874591E+01  1.97690750872297E+00
(PID.TID 0000.0001)  ploadbar=  1.01033106092177E+05
 cg2d: Sum(rhs),rhsMax =  -3.88179184961240E+01  1.97574863127389E+00
(PID.TID 0000.0001)  ploadbar=  1.01032104188033E+05
 cg2d: Sum(rhs),rhsMax =  -3.88272387800641E+01  1.97471391943016E+00
(PID.TID 0000.0001)  ploadbar=  1.01031102283889E+05
 cg2d: Sum(rhs),rhsMax =  -3.88310925726652E+01  1.97390765095436E+00
(PID.TID 0000.0001)  ploadbar=  1.01030100379745E+05
 cg2d: Sum(rhs),rhsMax =  -3.88441892713246E+01  1.97276341992718E+00
(PID.TID 0000.0001)  ploadbar=  1.01028423382047E+05
 cg2d: Sum(rhs),rhsMax =  -3.88533655363351E+01  1.97194602874718E+00
(PID.TID 0000.0001)  ploadbar=  1.01026746384350E+05
 cg2d: Sum(rhs),rhsMax =  -3.88633649033428E+01  1.97120662405465E+00
(PID.TID 0000.0001)  ploadbar=  1.01025069386652E+05
 cg2d: Sum(rhs),rhsMax =  -3.88773469281931E+01  1.97037563656831E+00
(PID.TID 0000.0001)  ploadbar=  1.01023392388954E+05
 cg2d: Sum(rhs),rhsMax =  -3.88929131727600E+01  1.96956726929341E+00
(PID.TID 0000.0001)  ploadbar=  1.01021715391257E+05
 cg2d: Sum(rhs),rhsMax =  -3.89071916397590E+01  1.96892041873100E+00
(PID.TID 0000.0001)  ploadbar=  1.01020038393559E+05
 cg2d: Sum(rhs),rhsMax =  -3.89419765359920E+01  1.96721913704184E+00
(PID.TID 0000.0001)  ploadbar=  1.01019295431439E+05
 cg2d: Sum(rhs),rhsMax =  -3.89824911835114E+01  1.96520104122788E+00
(PID.TID 0000.0001)  ploadbar=  1.01018552469318E+05
 cg2d: Sum(rhs),rhsMax =  -3.90256189169089E+01  1.96301328663414E+00
(PID.TID 0000.0001)  ploadbar=  1.01017809507197E+05
 cg2d: Sum(rhs),rhsMax =  -3.90763713892384E+01  1.96039495784463E+00
(PID.TID 0000.0001)  ploadbar=  1.01017066545077E+05
 cg2d: Sum(rhs),rhsMax =  -3.91334939285901E+01  1.95739580215096E+00
(PID.TID 0000.0001)  ploadbar=  1.01016323582956E+05
 cg2d: Sum(rhs),rhsMax =  -3.91941542593427E+01  1.95414116804322E+00
(PID.TID 0000.0001)  ploadbar=  1.01015580620836E+05
 cg2d: Sum(rhs),rhsMax =  -3.92598745785586E+01  1.95067075776501E+00
(PID.TID 0000.0001)  ploadbar=  1.01015972579118E+05
 cg2d: Sum(rhs),rhsMax =  -3.93377800117898E+01  1.94662208278791E+00
(PID.TID 0000.0001)  ploadbar=  1.01016364537401E+05
 cg2d: Sum(rhs),rhsMax =  -3.94205706994932E+01  1.94235294696149E+00
(PID.TID 0000.0001)  ploadbar=  1.01016756495684E+05
 cg2d: Sum(rhs),rhsMax =  -3.95062179978703E+01  1.93795612643907E+00
(PID.TID 0000.0001)  ploadbar=  1.01017148453967E+05
 cg2d: Sum(rhs),rhsMax =  -3.95944494334734E+01  1.93343909600346E+00
(PID.TID 0000.0001)  ploadbar=  1.01017540412250E+05
 cg2d: Sum(rhs),rhsMax =  -3.96841989655780E+01  1.92884895883836E+00
(PID.TID 0000.0001)  ploadbar=  1.01017932370533E+05
 cg2d: Sum(rhs),rhsMax =  -3.97539888002311E+01  1.92517324986219E+00
(PID.TID 0000.0001)  ploadbar=  1.01017602160565E+05
 cg2d: Sum(rhs),rhsMax =  -3.98249412894352E+01  1.92137674951730E+00
(PID.TID 0000.0001)  ploadbar=  1.01017271950597E+05
 cg2d: Sum(rhs),rhsMax =  -3.98990553277373E+01  1.91735268227503E+00
(PID.TID 0000.0001)  ploadbar=  1.01016941740629E+05
 cg2d: Sum(rhs),rhsMax =  -3.99729419629155E+01  1.91325646893226E+00
(PID.TID 0000.0001)  ploadbar=  1.01016611530661E+05
 cg2d: Sum(rhs),rhsMax =  -4.00479698883880E+01  1.90901776678357E+00
(PID.TID 0000.0001)  ploadbar=  1.01016281320693E+05
 cg2d: Sum(rhs),rhsMax =  -4.01251614660792E+01  1.90457709230027E+00
(PID.TID 0000.0001)  ploadbar=  1.01015951110726E+05
 cg2d: Sum(rhs),rhsMax =  -4.02133322881014E+01  1.89971309188925E+00
(PID.TID 0000.0001)  ploadbar=  1.01014701910369E+05
 cg2d: Sum(rhs),rhsMax =  -4.03064540640283E+01  1.89470718834489E+00
(PID.TID 0000.0001)  ploadbar=  1.01013452710013E+05
 cg2d: Sum(rhs),rhsMax =  -4.04048825215770E+01  1.88954182147645E+00
(PID.TID 0000.0001)  ploadbar=  1.01012203509657E+05
 cg2d: Sum(rhs),rhsMax =  -4.05079878345375E+01  1.88424335084063E+00
(PID.TID 0000.0001)  ploadbar=  1.01010954309301E+05
 cg2d: Sum(rhs),rhsMax =  -4.06138385572053E+01  1.87889855027911E+00
(PID.TID 0000.0001)  ploadbar=  1.01009705108945E+05
 cg2d: Sum(rhs),rhsMax =  -4.07223882677240E+01  1.87350445884850E+00
(PID.TID 0000.0001)  ploadbar=  1.01008455908588E+05
 cg2d: Sum(rhs),rhsMax =  -4.08306821901985E+01  1.86816544781290E+00
(PID.TID 0000.0001)  ploadbar=  1.01007560207399E+05
 cg2d: Sum(rhs),rhsMax =  -4.09365511708214E+01  1.86297411472668E+00
(PID.TID 0000.0001)  ploadbar=  1.01006664506210E+05
 cg2d: Sum(rhs),rhsMax =  -4.10388821416849E+01  1.85796274007614E+00
(PID.TID 0000.0001)  ploadbar=  1.01005768805020E+05
 cg2d: Sum(rhs),rhsMax =  -4.11384716477011E+01  1.85307847616219E+00
(PID.TID 0000.0001)  ploadbar=  1.01004873103831E+05
 cg2d: Sum(rhs),rhsMax =  -4.12339662932524E+01  1.84837191283772E+00
(PID.TID 0000.0001)  ploadbar=  1.01003977402641E+05
 cg2d: Sum(rhs),rhsMax =  -4.13241347470401E+01  1.84388496293943E+00
(PID.TID 0000.0001)  ploadbar=  1.01003081701452E+05
 cg2d: Sum(rhs),rhsMax =  -4.14173917071912E+01  1.83932435322564E+00
(PID.TID 0000.0001)  ploadbar=  1.01003101352415E+05
 cg2d: Sum(rhs),rhsMax =  -4.15089429261923E+01  1.83489885133932E+00
(PID.TID 0000.0001)  ploadbar=  1.01003121003377E+05
 cg2d: Sum(rhs),rhsMax =  -4.15961635846182E+01  1.83071462766080E+00
(PID.TID 0000.0001)  ploadbar=  1.01003140654340E+05
 cg2d: Sum(rhs),rhsMax =  -4.16816821526002E+01  1.82664485547544E+00
(PID.TID 0000.0001)  ploadbar=  1.01003160305303E+05
 cg2d: Sum(rhs),rhsMax =  -4.17656112303180E+01  1.82267858899702E+00
(PID.TID 0000.0001)  ploadbar=  1.01003179956265E+05
 cg2d: Sum(rhs),rhsMax =  -4.18463370042981E+01  1.81887639208164E+00
(PID.TID 0000.0001)  ploadbar=  1.01003199607228E+05
 cg2d: Sum(rhs),rhsMax =  -4.19179766599843E+01  1.81539851010354E+00
(PID.TID 0000.0001)  ploadbar=  1.01002665260871E+05
 cg2d: Sum(rhs),rhsMax =  -4.19853858760802E+01  1.81202579650584E+00
(PID.TID 0000.0001)  ploadbar=  1.01002130914514E+05
 cg2d: Sum(rhs),rhsMax =  -4.20472193088172E+01  1.80881272347277E+00
(PID.TID 0000.0001)  ploadbar=  1.01001596568157E+05
 cg2d: Sum(rhs),rhsMax =  -4.21035063831209E+01  1.80574854368057E+00
(PID.TID 0000.0001)  ploadbar=  1.01001062221800E+05
 cg2d: Sum(rhs),rhsMax =  -4.21559238782442E+01  1.80275162216449E+00
(PID.TID 0000.0001)  ploadbar=  1.01000527875443E+05
 cg2d: Sum(rhs),rhsMax =  -4.22050655674195E+01  1.79979044093058E+00
(PID.TID 0000.0001)  ploadbar=  1.00999993529086E+05
 cg2d: Sum(rhs),rhsMax =  -4.22499753744704E+01  1.79709721363653E+00
(PID.TID 0000.0001)  ploadbar=  1.00999469829190E+05
 cg2d: Sum(rhs),rhsMax =  -4.22953548896036E+01  1.79446472154643E+00
(PID.TID 0000.0001)  ploadbar=  1.00998946129293E+05
 cg2d: Sum(rhs),rhsMax =  -4.23397268729095E+01  1.79194622391714E+00
(PID.TID 0000.0001)  ploadbar=  1.00998422429396E+05
 cg2d: Sum(rhs),rhsMax =  -4.23819260655498E+01  1.78958310960668E+00
(PID.TID 0000.0001)  ploadbar=  1.00997898729499E+05
 cg2d: Sum(rhs),rhsMax =  -4.24220183224611E+01  1.78736316957688E+00
(PID.TID 0000.0001)  ploadbar=  1.00997375029603E+05
 cg2d: Sum(rhs),rhsMax =  -4.24597862030999E+01  1.78528950358726E+00
(PID.TID 0000.0001)  ploadbar=  1.00996851329706E+05
 cg2d: Sum(rhs),rhsMax =  -4.24896576400006E+01  1.78355615437359E+00
(PID.TID 0000.0001)  ploadbar=  1.00996695774068E+05
 cg2d: Sum(rhs),rhsMax =  -4.25121135714318E+01  1.78213445170957E+00
(PID.TID 0000.0001)  ploadbar=  1.00996540218430E+05
 cg2d: Sum(rhs),rhsMax =  -4.25270936378447E+01  1.78101747165469E+00
(PID.TID 0000.0001)  ploadbar=  1.00996384662792E+05
 cg2d: Sum(rhs),rhsMax =  -4.25321273484388E+01  1.78029776836076E+00
(PID.TID 0000.0001)  ploadbar=  1.00996229107153E+05
 cg2d: Sum(rhs),rhsMax =  -4.25259224831362E+01  1.78002001427635E+00
(PID.TID 0000.0001)  ploadbar=  1.00996073551515E+05
 cg2d: Sum(rhs),rhsMax =  -4.25079997595450E+01  1.78020015538492E+00
(PID.TID 0000.0001)  ploadbar=  1.00995917995877E+05
 cg2d: Sum(rhs),rhsMax =  -4.24699006385346E+01  1.78127856112168E+00
(PID.TID 0000.0001)  ploadbar=  1.00995807720140E+05
 cg2d: Sum(rhs),rhsMax =  -4.24122615996847E+01  1.78322864063489E+00
(PID.TID 0000.0001)  ploadbar=  1.00995697444404E+05
 cg2d: Sum(rhs),rhsMax =  -4.23361492255615E+01  1.78600660023264E+00
(PID.TID 0000.0001)  ploadbar=  1.00995587168667E+05
 cg2d: Sum(rhs),rhsMax =  -4.22424775997155E+01  1.78957430900367E+00
(PID.TID 0000.0001)  ploadbar=  1.00995476892930E+05
 cg2d: Sum(rhs),rhsMax =  -4.21357887595183E+01  1.79374177121148E+00
(PID.TID 0000.0001)  ploadbar=  1.00995366617194E+05
 cg2d: Sum(rhs),rhsMax =  -4.20242079234154E+01  1.79816252824161E+00
(PID.TID 0000.0001)  ploadbar=  1.00995256341457E+05
 cg2d: Sum(rhs),rhsMax =  -4.19164429922617E+01  1.80238451978287E+00
(PID.TID 0000.0001)  ploadbar=  1.00995016395679E+05
 cg2d: Sum(rhs),rhsMax =  -4.18247690504709E+01  1.80587159431442E+00
(PID.TID 0000.0001)  ploadbar=  1.00994776449900E+05
 cg2d: Sum(rhs),rhsMax =  -4.17598080651911E+01  1.80814589855954E+00
(PID.TID 0000.0001)  ploadbar=  1.00994536504122E+05
 cg2d: Sum(rhs),rhsMax =  -4.17285385181584E+01  1.80888461149022E+00
(PID.TID 0000.0001)  ploadbar=  1.00994296558344E+05
 cg2d: Sum(rhs),rhsMax =  -4.17356613801308E+01  1.80787072634697E+00
(PID.TID 0000.0001)  ploadbar=  1.00994056612566E+05
 cg2d: Sum(rhs),rhsMax =  -4.17825046206971E+01  1.80504346664626E+00
(PID.TID 0000.0001)  ploadbar=  1.00993816666787E+05
 cg2d: Sum(rhs),rhsMax =  -4.18689019205981E+01  1.80058755008862E+00
(PID.TID 0000.0001)  ploadbar=  1.00994427234728E+05
 cg2d: Sum(rhs),rhsMax =  -4.19917799362004E+01  1.79465360322668E+00
(PID.TID 0000.0001)  ploadbar=  1.00995037802669E+05
 cg2d: Sum(rhs),rhsMax =  -4.21478108119242E+01  1.78740476459780E+00
(PID.TID 0000.0001)  ploadbar=  1.00995648370610E+05
 cg2d: Sum(rhs),rhsMax =  -4.23316908476493E+01  1.77908673948688E+00
(PID.TID 0000.0001)  ploadbar=  1.00996258938551E+05
 cg2d: Sum(rhs),rhsMax =  -4.25403928932425E+01  1.76984646768254E+00
(PID.TID 0000.0001)  ploadbar=  1.00996869506492E+05
 cg2d: Sum(rhs),rhsMax =  -4.27702990606015E+01  1.75985833671350E+00
(PID.TID 0000.0001)  ploadbar=  1.00997480074433E+05
 cg2d: Sum(rhs),rhsMax =  -4.30224325282881E+01  1.74904016247726E+00
(PID.TID 0000.0001)  ploadbar=  1.00997865933147E+05
 cg2d: Sum(rhs),rhsMax =  -4.32969962767467E+01  1.73740871653630E+00
(PID.TID 0000.0001)  ploadbar=  1.00998251791860E+05
 cg2d: Sum(rhs),rhsMax =  -4.35864372266459E+01  1.72529069883357E+00
(PID.TID 0000.0001)  ploadbar=  1.00998637650573E+05
 cg2d: Sum(rhs),rhsMax =  -4.38838465020940E+01  1.71297426518583E+00
(PID.TID 0000.0001)  ploadbar=  1.00999023509286E+05
 cg2d: Sum(rhs),rhsMax =  -4.41846749617589E+01  1.70063456794910E+00
(PID.TID 0000.0001)  ploadbar=  1.00999409368000E+05
 cg2d: Sum(rhs),rhsMax =  -4.44884632042691E+01  1.68828680836183E+00
(PID.TID 0000.0001)  ploadbar=  1.00999795226713E+05
 cg2d: Sum(rhs),rhsMax =  -4.47949836941004E+01  1.67600741731493E+00
(PID.TID 0000.0001)  ploadbar=  1.01000197122718E+05
 cg2d: Sum(rhs),rhsMax =  -4.50899586746699E+01  1.66431864806663E+00
(PID.TID 0000.0001)  ploadbar=  1.01000599018723E+05
 cg2d: Sum(rhs),rhsMax =  -4.53627837709781E+01  1.65358216224465E+00
(PID.TID 0000.0001)  ploadbar=  1.01001000914727E+05
 cg2d: Sum(rhs),rhsMax =  -4.56138983570342E+01  1.64374557179510E+00
(PID.TID 0000.0001)  ploadbar=  1.01001402810732E+05
 cg2d: Sum(rhs),rhsMax =  -4.58432051271145E+01  1.63477824976023E+00
(PID.TID 0000.0001)  ploadbar=  1.01001804706737E+05
 cg2d: Sum(rhs),rhsMax =  -4.60511971685822E+01  1.62663094041369E+00
(PID.TID 0000.0001)  ploadbar=  1.01002206602742E+05
 cg2d: Sum(rhs),rhsMax =  -4.62566499657127E+01  1.61862024928718E+00
(PID.TID 0000.0001)  ploadbar=  1.01002423459436E+05
 cg2d: Sum(rhs),rhsMax =  -4.64507493427085E+01  1.61104137735859E+00
(PID.TID 0000.0001)  ploadbar=  1.01002640316129E+05
 cg2d: Sum(rhs),rhsMax =  -4.66342170338991E+01  1.60384884455477E+00
(PID.TID 0000.0001)  ploadbar=  1.01002857172823E+05
 cg2d: Sum(rhs),rhsMax =  -4.68110922982401E+01  1.59688993014279E+00
(PID.TID 0000.0001)  ploadbar=  1.01003074029517E+05
 cg2d: Sum(rhs),rhsMax =  -4.69839225321925E+01  1.59006989120849E+00
(PID.TID 0000.0001)  ploadbar=  1.01003290886210E+05
 cg2d: Sum(rhs),rhsMax =  -4.71499658194052E+01  1.58347309633940E+00
(PID.TID 0000.0001)  ploadbar=  1.01003507742904E+05
 cg2d: Sum(rhs),rhsMax =  -4.72939142062534E+01  1.57779466331554E+00
(PID.TID 0000.0001)  ploadbar=  1.01003980643882E+05
 cg2d: Sum(rhs),rhsMax =  -4.74076320965798E+01  1.57328355415083E+00
(PID.TID 0000.0001)  ploadbar=  1.01004453544861E+05
 cg2d: Sum(rhs),rhsMax =  -4.74897932350720E+01  1.56996096393167E+00
(PID.TID 0000.0001)  ploadbar=  1.01004926445839E+05
 cg2d: Sum(rhs),rhsMax =  -4.75507881762942E+01  1.56746393526552E+00
(PID.TID 0000.0001)  ploadbar=  1.01005399346818E+05
 cg2d: Sum(rhs),rhsMax =  -4.76038300555351E+01  1.56534523612013E+00
(PID.TID 0000.0001)  ploadbar=  1.01005872247796E+05
 cg2d: Sum(rhs),rhsMax =  -4.76534945136980E+01  1.56344865021222E+00
(PID.TID 0000.0001)  ploadbar=  1.01006345148774E+05
 cg2d: Sum(rhs),rhsMax =  -4.77031769225311E+01  1.56157518144358E+00
(PID.TID 0000.0001)  ploadbar=  1.01007735778799E+05
 cg2d: Sum(rhs),rhsMax =  -4.77530350107730E+01  1.55971630873022E+00
(PID.TID 0000.0001)  ploadbar=  1.01009126408824E+05
 cg2d: Sum(rhs),rhsMax =  -4.78044530204984E+01  1.55781889584849E+00
(PID.TID 0000.0001)  ploadbar=  1.01010517038849E+05
 cg2d: Sum(rhs),rhsMax =  -4.78553678261735E+01  1.55594538705254E+00
(PID.TID 0000.0001)  ploadbar=  1.01011907668874E+05
 cg2d: Sum(rhs),rhsMax =  -4.79090609635064E+01  1.55397720872518E+00
(PID.TID 0000.0001)  ploadbar=  1.01013298298898E+05
 cg2d: Sum(rhs),rhsMax =  -4.79582863082444E+01  1.55214315122645E+00
(PID.TID 0000.0001)  ploadbar=  1.01014688928923E+05
 cg2d: Sum(rhs),rhsMax =  -4.79874863829409E+01  1.55098317689545E+00
(PID.TID 0000.0001)  ploadbar=  1.01016835256053E+05
 cg2d: Sum(rhs),rhsMax =  -4.80110214289203E+01  1.55002943742202E+00
(PID.TID 0000.0001)  ploadbar=  1.01018981583184E+05
 cg2d: Sum(rhs),rhsMax =  -4.80337024668678E+01  1.54912301610563E+00
(PID.TID 0000.0001)  ploadbar=  1.01021127910314E+05
 cg2d: Sum(rhs),rhsMax =  -4.80553501219911E+01  1.54826350530913E+00
(PID.TID 0000.0001)  ploadbar=  1.01023274237444E+05
 cg2d: Sum(rhs),rhsMax =  -4.80780338813342E+01  1.54737505295249E+00
(PID.TID 0000.0001)  ploadbar=  1.01025420564574E+05
 cg2d: Sum(rhs),rhsMax =  -4.81034628899674E+01  1.54640427232170E+00
(PID.TID 0000.0001)  ploadbar=  1.01027566891704E+05
 cg2d: Sum(rhs),rhsMax =  -4.81354046788528E+01  1.54520200651988E+00
(PID.TID 0000.0001)  ploadbar=  1.01029080878060E+05
 cg2d: Sum(rhs),rhsMax =  -4.81715947102552E+01  1.54383613400602E+00
(PID.TID 0000.0001)  ploadbar=  1.01030594864417E+05
 cg2d: Sum(rhs),rhsMax =  -4.82113317217684E+01  1.54232192715551E+00
(PID.TID 0000.0001)  ploadbar=  1.01032108850773E+05
 cg2d: Sum(rhs),rhsMax =  -4.82546656442343E+01  1.54065596576972E+00
(PID.TID 0000.0001)  ploadbar=  1.01033622837129E+05
 cg2d: Sum(rhs),rhsMax =  -4.83011630923036E+01  1.53884535123168E+00
(PID.TID 0000.0001)  ploadbar=  1.01035136823485E+05
 cg2d: Sum(rhs),rhsMax =  -4.83514418172127E+01  1.53687057023477E+00
(PID.TID 0000.0001)  ploadbar=  1.01036650809841E+05
 cg2d: Sum(rhs),rhsMax =  -4.84122714984390E+01  1.53461322606174E+00
(PID.TID 0000.0001)  ploadbar=  1.01038280967635E+05
 cg2d: Sum(rhs),rhsMax =  -4.84784260403924E+01  1.53223890392805E+00
(PID.TID 0000.0001)  ploadbar=  1.01039911125430E+05
 cg2d: Sum(rhs),rhsMax =  -4.85497149924520E+01  1.52975162927335E+00
(PID.TID 0000.0001)  ploadbar=  1.01041541283224E+05
 cg2d: Sum(rhs),rhsMax =  -4.86255982195083E+01  1.52716481361331E+00
(PID.TID 0000.0001)  ploadbar=  1.01043171441019E+05
 cg2d: Sum(rhs),rhsMax =  -4.87053531883031E+01  1.52449472880007E+00
(PID.TID 0000.0001)  ploadbar=  1.01044801598813E+05
 cg2d: Sum(rhs),rhsMax =  -4.87886943139455E+01  1.52174439407568E+00
(PID.TID 0000.0001)  ploadbar=  1.01046431756607E+05
 cg2d: Sum(rhs),rhsMax =  -4.88752233095362E+01  1.51886914534063E+00
(PID.TID 0000.0001)  ploadbar=  1.01047681300825E+05
 cg2d: Sum(rhs),rhsMax =  -4.89623184661218E+01  1.51595066525961E+00
(PID.TID 0000.0001)  ploadbar=  1.01048930845042E+05
 cg2d: Sum(rhs),rhsMax =  -4.90491293744534E+01  1.51300874881388E+00
(PID.TID 0000.0001)  ploadbar=  1.01050180389260E+05
 cg2d: Sum(rhs),rhsMax =  -4.91357145597292E+01  1.51002534042219E+00
(PID.TID 0000.0001)  ploadbar=  1.01051429933477E+05
 cg2d: Sum(rhs),rhsMax =  -4.92224795487550E+01  1.50698441001606E+00
(PID.TID 0000.0001)  ploadbar=  1.01052679477695E+05
 cg2d: Sum(rhs),rhsMax =  -4.93090716405027E+01  1.50389296236561E+00
(PID.TID 0000.0001)  ploadbar=  1.01053929021912E+05
 cg2d: Sum(rhs),rhsMax =  -4.93984565786008E+01  1.50075419856110E+00
(PID.TID 0000.0001)  ploadbar=  1.01055539226437E+05
 cg2d: Sum(rhs),rhsMax =  -4.94911021749683E+01  1.49755166285764E+00
(PID.TID 0000.0001)  ploadbar=  1.01057149430961E+05
 cg2d: Sum(rhs),rhsMax =  -4.95865608387915E+01  1.49429777462604E+00
(PID.TID 0000.0001)  ploadbar=  1.01058759635485E+05
 cg2d: Sum(rhs),rhsMax =  -4.96843818905170E+01  1.49100184087611E+00
(PID.TID 0000.0001)  ploadbar=  1.01060369840010E+05
 cg2d: Sum(rhs),rhsMax =  -4.97836174440474E+01  1.48768545843894E+00
(PID.TID 0000.0001)  ploadbar=  1.01061980044534E+05
 cg2d: Sum(rhs),rhsMax =  -4.98831274273347E+01  1.48437178197649E+00
(PID.TID 0000.0001)  ploadbar=  1.01063590249058E+05
 cg2d: Sum(rhs),rhsMax =  -4.99785839701214E+01  1.48113149938557E+00
(PID.TID 0000.0001)  ploadbar=  1.01065602515062E+05
 cg2d: Sum(rhs),rhsMax =  -5.00696532343918E+01  1.47796777829439E+00
(PID.TID 0000.0001)  ploadbar=  1.01067614781066E+05
 cg2d: Sum(rhs),rhsMax =  -5.01564073852790E+01  1.47487061671001E+00
(PID.TID 0000.0001)  ploadbar=  1.01069627047071E+05
 cg2d: Sum(rhs),rhsMax =  -5.02402026015611E+01  1.47179864582842E+00
(PID.TID 0000.0001)  ploadbar=  1.01071639313075E+05
 cg2d: Sum(rhs),rhsMax =  -5.03209409860376E+01  1.46875259837691E+00
(PID.TID 0000.0001)  ploadbar=  1.01073651579079E+05
 cg2d: Sum(rhs),rhsMax =  -5.03980394280500E+01  1.46574852470159E+00
(PID.TID 0000.0001)  ploadbar=  1.01075663845083E+05
 cg2d: Sum(rhs),rhsMax =  -5.04779436804665E+01  1.46274363802948E+00
(PID.TID 0000.0001)  ploadbar=  1.01078624763073E+05
 cg2d: Sum(rhs),rhsMax =  -5.05608229448420E+01  1.45973209496367E+00
(PID.TID 0000.0001)  ploadbar=  1.01081585681062E+05
 cg2d: Sum(rhs),rhsMax =  -5.06440961316965E+01  1.45678466380049E+00
(PID.TID 0000.0001)  ploadbar=  1.01084546599052E+05
 cg2d: Sum(rhs),rhsMax =  -5.07275269266618E+01  1.45389972510725E+00
(PID.TID 0000.0001)  ploadbar=  1.01087507517042E+05
 cg2d: Sum(rhs),rhsMax =  -5.08103117242547E+01  1.45109353747027E+00
(PID.TID 0000.0001)  ploadbar=  1.01090468435031E+05
 cg2d: Sum(rhs),rhsMax =  -5.08919850518365E+01  1.44837098959482E+00
(PID.TID 0000.0001)  ploadbar=  1.01093429353021E+05
 cg2d: Sum(rhs),rhsMax =  -5.09739029461482E+01  1.44563715975968E+00
(PID.TID 0000.0001)  ploadbar=  1.01094999971839E+05
 cg2d: Sum(rhs),rhsMax =  -5.10622660767821E+01  1.44271358281581E+00
(PID.TID 0000.0001)  ploadbar=  1.01096570590656E+05
 cg2d: Sum(rhs),rhsMax =  -5.11483413204151E+01  1.43984672589459E+00
(PID.TID 0000.0001)  ploadbar=  1.01098141209474E+05
 cg2d: Sum(rhs),rhsMax =  -5.12320032252335E+01  1.43703606010666E+00
(PID.TID 0000.0001)  ploadbar=  1.01099711828292E+05
 cg2d: Sum(rhs),rhsMax =  -5.13126973798520E+01  1.43429310172583E+00
(PID.TID 0000.0001)  ploadbar=  1.01101282447110E+05
 cg2d: Sum(rhs),rhsMax =  -5.13907429213779E+01  1.43160518522489E+00
(PID.TID 0000.0001)  ploadbar=  1.01102853065928E+05
 cg2d: Sum(rhs),rhsMax =  -5.14670788141366E+01  1.42898499396289E+00
(PID.TID 0000.0001)  ploadbar=  1.01104088696930E+05
 cg2d: Sum(rhs),rhsMax =  -5.15441254665750E+01  1.42636277599859E+00
(PID.TID 0000.0001)  ploadbar=  1.01105324327931E+05
 cg2d: Sum(rhs),rhsMax =  -5.16192795165815E+01  1.42380861257453E+00
(PID.TID 0000.0001)  ploadbar=  1.01106559958933E+05
 cg2d: Sum(rhs),rhsMax =  -5.16938313419194E+01  1.42128303005028E+00
(PID.TID 0000.0001)  ploadbar=  1.01107795589934E+05
 cg2d: Sum(rhs),rhsMax =  -5.17675690655220E+01  1.41878561836783E+00
(PID.TID 0000.0001)  ploadbar=  1.01109031220936E+05
 cg2d: Sum(rhs),rhsMax =  -5.18403320266143E+01  1.41631577291880E+00
(PID.TID 0000.0001)  ploadbar=  1.01110266851938E+05
 cg2d: Sum(rhs),rhsMax =  -5.19087314557350E+01  1.41394205827176E+00
(PID.TID 0000.0001)  ploadbar=  1.01111962750336E+05
 cg2d: Sum(rhs),rhsMax =  -5.19738910262419E+01  1.41163005962832E+00
(PID.TID 0000.0001)  ploadbar=  1.01113658648733E+05
 cg2d: Sum(rhs),rhsMax =  -5.20382043948804E+01  1.40930503806330E+00
(PID.TID 0000.0001)  ploadbar=  1.01115354547131E+05
 cg2d: Sum(rhs),rhsMax =  -5.21008071732442E+01  1.40698495748221E+00
(PID.TID 0000.0001)  ploadbar=  1.01117050445529E+05
 cg2d: Sum(rhs),rhsMax =  -5.21608829184438E+01  1.40469008304826E+00
(PID.TID 0000.0001)  ploadbar=  1.01118746343927E+05
 cg2d: Sum(rhs),rhsMax =  -5.22192658582939E+01  1.40239612909197E+00
(PID.TID 0000.0001)  ploadbar=  1.01120442242325E+05
 cg2d: Sum(rhs),rhsMax =  -5.22769382297696E+01  1.40015629429026E+00
(PID.TID 0000.0001)  ploadbar=  1.01122507542328E+05
 cg2d: Sum(rhs),rhsMax =  -5.23354923667930E+01  1.39792433692229E+00
(PID.TID 0000.0001)  ploadbar=  1.01124572842331E+05
 cg2d: Sum(rhs),rhsMax =  -5.23933074432978E+01  1.39574033589722E+00
(PID.TID 0000.0001)  ploadbar=  1.01126638142334E+05
 cg2d: Sum(rhs),rhsMax =  -5.24493118352510E+01  1.39362598299627E+00
(PID.TID 0000.0001)  ploadbar=  1.01128703442338E+05
 cg2d: Sum(rhs),rhsMax =  -5.25035853922652E+01  1.39157081059355E+00
(PID.TID 0000.0001)  ploadbar=  1.01130768742341E+05
 cg2d: Sum(rhs),rhsMax =  -5.25557069490559E+01  1.38957225908067E+00
(PID.TID 0000.0001)  ploadbar=  1.01132834042344E+05
 cg2d: Sum(rhs),rhsMax =  -5.26070412214355E+01  1.38758577871906E+00
(PID.TID 0000.0001)  ploadbar=  1.01134205595920E+05
 cg2d: Sum(rhs),rhsMax =  -5.26578295528279E+01  1.38560022135544E+00
(PID.TID 0000.0001)  ploadbar=  1.01135577149496E+05
 cg2d: Sum(rhs),rhsMax =  -5.27106433281594E+01  1.38354215406876E+00
(PID.TID 0000.0001)  ploadbar=  1.01136948703072E+05
 cg2d: Sum(rhs),rhsMax =  -5.27640871771381E+01  1.38144052820577E+00
(PID.TID 0000.0001)  ploadbar=  1.01138320256649E+05
 cg2d: Sum(rhs),rhsMax =  -5.28182141136138E+01  1.37928603744296E+00
(PID.TID 0000.0001)  ploadbar=  1.01139691810225E+05
 cg2d: Sum(rhs),rhsMax =  -5.28741215442807E+01  1.37704734252219E+00
(PID.TID 0000.0001)  ploadbar=  1.01141063363801E+05
 cg2d: Sum(rhs),rhsMax =  -5.29388477059361E+01  1.37464380653305E+00
(PID.TID 0000.0001)  ploadbar=  1.01142482329036E+05
 cg2d: Sum(rhs),rhsMax =  -5.30127315249648E+01  1.37206646135189E+00
(PID.TID 0000.0001)  ploadbar=  1.01143901294270E+05
 cg2d: Sum(rhs),rhsMax =  -5.30942020640449E+01  1.36935519653420E+00
(PID.TID 0000.0001)  ploadbar=  1.01145320259505E+05
 cg2d: Sum(rhs),rhsMax =  -5.31811928951112E+01  1.36655968280843E+00
(PID.TID 0000.0001)  ploadbar=  1.01146739224740E+05
 cg2d: Sum(rhs),rhsMax =  -5.32739339834966E+01  1.36367138937381E+00
(PID.TID 0000.0001)  ploadbar=  1.01148158189974E+05
 cg2d: Sum(rhs),rhsMax =  -5.33722957733860E+01  1.36068878472019E+00
(PID.TID 0000.0001)  ploadbar=  1.01149577155209E+05
 cg2d: Sum(rhs),rhsMax =  -5.34769737681755E+01  1.35755210105902E+00
(PID.TID 0000.0001)  ploadbar=  1.01149711572316E+05
 cg2d: Sum(rhs),rhsMax =  -5.35885858792919E+01  1.35424154821216E+00
(PID.TID 0000.0001)  ploadbar=  1.01149845989422E+05
 cg2d: Sum(rhs),rhsMax =  -5.37036726919295E+01  1.35083614751080E+00
(PID.TID 0000.0001)  ploadbar=  1.01149980406529E+05
 cg2d: Sum(rhs),rhsMax =  -5.38213824174631E+01  1.34735341335079E+00
(PID.TID 0000.0001)  ploadbar=  1.01150114823636E+05
 cg2d: Sum(rhs),rhsMax =  -5.39414216448126E+01  1.34380051922458E+00
(PID.TID 0000.0001)  ploadbar=  1.01150249240743E+05
 cg2d: Sum(rhs),rhsMax =  -5.40626034315669E+01  1.34020680260736E+00
(PID.TID 0000.0001)  ploadbar=  1.01150383657849E+05
 cg2d: Sum(rhs),rhsMax =  -5.41762304765523E+01  1.33688102286481E+00
(PID.TID 0000.0001)  ploadbar=  1.01150980379183E+05
 cg2d: Sum(rhs),rhsMax =  -5.42928520454542E+01  1.33356014758336E+00
(PID.TID 0000.0001)  ploadbar=  1.01151577100516E+05
 cg2d: Sum(rhs),rhsMax =  -5.44139951989663E+01  1.33020197024529E+00
(PID.TID 0000.0001)  ploadbar=  1.01152173821850E+05
 cg2d: Sum(rhs),rhsMax =  -5.45362668757667E+01  1.32688379689508E+00
(PID.TID 0000.0001)  ploadbar=  1.01152770543183E+05
 cg2d: Sum(rhs),rhsMax =  -5.46590096275631E+01  1.32361774723299E+00
(PID.TID 0000.0001)  ploadbar=  1.01153367264516E+05
 cg2d: Sum(rhs),rhsMax =  -5.47814808622182E+01  1.32041664126873E+00
(PID.TID 0000.0001)  ploadbar=  1.01153963985850E+05
 cg2d: Sum(rhs),rhsMax =  -5.49149579656900E+01  1.31697322913616E+00
(PID.TID 0000.0001)  ploadbar=  1.01154139387446E+05
 cg2d: Sum(rhs),rhsMax =  -5.50500089319106E+01  1.31351453815481E+00
(PID.TID 0000.0001)  ploadbar=  1.01154314789042E+05
 cg2d: Sum(rhs),rhsMax =  -5.51867254340100E+01  1.31003686619294E+00
(PID.TID 0000.0001)  ploadbar=  1.01154490190638E+05
 cg2d: Sum(rhs),rhsMax =  -5.53275170663850E+01  1.30647783101185E+00
(PID.TID 0000.0001)  ploadbar=  1.01154665592234E+05
 cg2d: Sum(rhs),rhsMax =  -5.54721523169039E+01  1.30284068501747E+00
(PID.TID 0000.0001)  ploadbar=  1.01154840993831E+05
 cg2d: Sum(rhs),rhsMax =  -5.56202378201029E+01  1.29913509748960E+00
(PID.TID 0000.0001)  ploadbar=  1.01155016395427E+05
 cg2d: Sum(rhs),rhsMax =  -5.57736994076027E+01  1.29535003028857E+00
(PID.TID 0000.0001)  ploadbar=  1.01155917175552E+05
 cg2d: Sum(rhs),rhsMax =  -5.59294576799017E+01  1.29155680925986E+00
(PID.TID 0000.0001)  ploadbar=  1.01156817955678E+05
 cg2d: Sum(rhs),rhsMax =  -5.60839139646460E+01  1.28783331349229E+00
(PID.TID 0000.0001)  ploadbar=  1.01157718735804E+05
 cg2d: Sum(rhs),rhsMax =  -5.62362967826094E+01  1.28419110054928E+00
(PID.TID 0000.0001)  ploadbar=  1.01158619515929E+05
 cg2d: Sum(rhs),rhsMax =  -5.63864946523998E+01  1.28062728239307E+00
(PID.TID 0000.0001)  ploadbar=  1.01159520296055E+05
 cg2d: Sum(rhs),rhsMax =  -5.65342414253432E+01  1.27714156367371E+00
(PID.TID 0000.0001)  ploadbar=  1.01160421076181E+05
 cg2d: Sum(rhs),rhsMax =  -5.66735831191218E+01  1.27382527967461E+00
(PID.TID 0000.0001)  ploadbar=  1.01159660229993E+05
 cg2d: Sum(rhs),rhsMax =  -5.68104098742585E+01  1.27053285313145E+00
(PID.TID 0000.0001)  ploadbar=  1.01158899383805E+05
 cg2d: Sum(rhs),rhsMax =  -5.69451800869607E+01  1.26725071442696E+00
(PID.TID 0000.0001)  ploadbar=  1.01158138537617E+05
 cg2d: Sum(rhs),rhsMax =  -5.70780587289975E+01  1.26397324011863E+00
(PID.TID 0000.0001)  ploadbar=  1.01157377691429E+05
 cg2d: Sum(rhs),rhsMax =  -5.72090946190301E+01  1.26069622011513E+00
(PID.TID 0000.0001)  ploadbar=  1.01156616845241E+05
 cg2d: Sum(rhs),rhsMax =  -5.73380175572314E+01  1.25742439794493E+00
(PID.TID 0000.0001)  ploadbar=  1.01155855999053E+05
 cg2d: Sum(rhs),rhsMax =  -5.74618535773084E+01  1.25434183148140E+00
(PID.TID 0000.0001)  ploadbar=  1.01154196820837E+05
 cg2d: Sum(rhs),rhsMax =  -5.75869043922024E+01  1.25130927255708E+00
(PID.TID 0000.0001)  ploadbar=  1.01152537642620E+05
 cg2d: Sum(rhs),rhsMax =  -5.77118458814068E+01  1.24835294879861E+00
(PID.TID 0000.0001)  ploadbar=  1.01150878464403E+05
 cg2d: Sum(rhs),rhsMax =  -5.78355317962491E+01  1.24549412965617E+00
(PID.TID 0000.0001)  ploadbar=  1.01149219286187E+05
 cg2d: Sum(rhs),rhsMax =  -5.79575099614717E+01  1.24273615673567E+00
(PID.TID 0000.0001)  ploadbar=  1.01147560107970E+05
 cg2d: Sum(rhs),rhsMax =  -5.80765815814803E+01  1.24009566992503E+00
(PID.TID 0000.0001)  ploadbar=  1.01145900929753E+05
 cg2d: Sum(rhs),rhsMax =  -5.81905074654514E+01  1.23755691664258E+00
(PID.TID 0000.0001)  ploadbar=  1.01145984775287E+05
 cg2d: Sum(rhs),rhsMax =  -5.82944305847186E+01  1.23521822440924E+00
(PID.TID 0000.0001)  ploadbar=  1.01146068620820E+05
 cg2d: Sum(rhs),rhsMax =  -5.83879082060369E+01  1.23308139954072E+00
(PID.TID 0000.0001)  ploadbar=  1.01146152466354E+05
 cg2d: Sum(rhs),rhsMax =  -5.84723169267748E+01  1.23111097910327E+00
(PID.TID 0000.0001)  ploadbar=  1.01146236311888E+05
 cg2d: Sum(rhs),rhsMax =  -5.85475118349847E+01  1.22930544750899E+00
(PID.TID 0000.0001)  ploadbar=  1.01146320157421E+05
 cg2d: Sum(rhs),rhsMax =  -5.86126514053993E+01  1.22767711906068E+00
(PID.TID 0000.0001)  ploadbar=  1.01146404002955E+05
 cg2d: Sum(rhs),rhsMax =  -5.86695335991926E+01  1.22621312877500E+00
(PID.TID 0000.0001)  ploadbar=  1.01147332448759E+05
 cg2d: Sum(rhs),rhsMax =  -5.87152346377889E+01  1.22497150901660E+00
(PID.TID 0000.0001)  ploadbar=  1.01148260894563E+05
 cg2d: Sum(rhs),rhsMax =  -5.87517841987065E+01  1.22390829769764E+00
(PID.TID 0000.0001)  ploadbar=  1.01149189340367E+05
 cg2d: Sum(rhs),rhsMax =  -5.87824097693534E+01  1.22294757837547E+00
(PID.TID 0000.0001)  ploadbar=  1.01150117786171E+05
 cg2d: Sum(rhs),rhsMax =  -5.88086954856111E+01  1.22205211031995E+00
(PID.TID 0000.0001)  ploadbar=  1.01151046231976E+05
 cg2d: Sum(rhs),rhsMax =  -5.88312526251782E+01  1.22119920423111E+00
(PID.TID 0000.0001)  ploadbar=  1.01151974677780E+05
 cg2d: Sum(rhs),rhsMax =  -5.88629162205665E+01  1.22015445166667E+00
(PID.TID 0000.0001)  ploadbar=  1.01152414175913E+05
 cg2d: Sum(rhs),rhsMax =  -5.88908793446851E+01  1.21917899035596E+00
(PID.TID 0000.0001)  ploadbar=  1.01152853674047E+05
 cg2d: Sum(rhs),rhsMax =  -5.89124071125261E+01  1.21832860335732E+00
(PID.TID 0000.0001)  ploadbar=  1.01153293172180E+05
 cg2d: Sum(rhs),rhsMax =  -5.89294014383794E+01  1.21756098110019E+00
(PID.TID 0000.0001)  ploadbar=  1.01153732670314E+05
 cg2d: Sum(rhs),rhsMax =  -5.89414380047376E+01  1.21688158147793E+00
(PID.TID 0000.0001)  ploadbar=  1.01154172168447E+05
 cg2d: Sum(rhs),rhsMax =  -5.89482796491592E+01  1.21629186881300E+00
(PID.TID 0000.0001)  ploadbar=  1.01154611666581E+05
 cg2d: Sum(rhs),rhsMax =  -5.89451626450121E+01  1.21595503024680E+00
(PID.TID 0000.0001)  ploadbar=  1.01155633202438E+05
 cg2d: Sum(rhs),rhsMax =  -5.89387779957759E+01  1.21572929473409E+00
(PID.TID 0000.0001)  ploadbar=  1.01156654738294E+05
 cg2d: Sum(rhs),rhsMax =  -5.89339128089009E+01  1.21551463933271E+00
(PID.TID 0000.0001)  ploadbar=  1.01157676274151E+05
 cg2d: Sum(rhs),rhsMax =  -5.89255092658784E+01  1.21541214941909E+00
(PID.TID 0000.0001)  ploadbar=  1.01158697810007E+05
 cg2d: Sum(rhs),rhsMax =  -5.89119756949590E+01  1.21544957369579E+00
(PID.TID 0000.0001)  ploadbar=  1.01159719345864E+05
 cg2d: Sum(rhs),rhsMax =  -5.88928335988623E+01  1.21562777723240E+00
(PID.TID 0000.0001)  ploadbar=  1.01160740881720E+05
 cg2d: Sum(rhs),rhsMax =  -5.88704541623153E+01  1.21587142205170E+00
(PID.TID 0000.0001)  ploadbar=  1.01160328741133E+05
 cg2d: Sum(rhs),rhsMax =  -5.88433651501193E+01  1.21620766947959E+00
(PID.TID 0000.0001)  ploadbar=  1.01159916600547E+05
 cg2d: Sum(rhs),rhsMax =  -5.88098642176945E+01  1.21666355438069E+00
(PID.TID 0000.0001)  ploadbar=  1.01159504459960E+05
 cg2d: Sum(rhs),rhsMax =  -5.87711876017187E+01  1.21720668920343E+00
(PID.TID 0000.0001)  ploadbar=  1.01159092319373E+05
 cg2d: Sum(rhs),rhsMax =  -5.87295836957042E+01  1.21778412076270E+00
(PID.TID 0000.0001)  ploadbar=  1.01158680178786E+05
 cg2d: Sum(rhs),rhsMax =  -5.86858473126247E+01  1.21837557467855E+00
(PID.TID 0000.0001)  ploadbar=  1.01158268038200E+05
 cg2d: Sum(rhs),rhsMax =  -5.86323216571620E+01  1.21919106919929E+00
(PID.TID 0000.0001)  ploadbar=  1.01157250891005E+05
 cg2d: Sum(rhs),rhsMax =  -5.85778349337502E+01  1.22004511947260E+00
(PID.TID 0000.0001)  ploadbar=  1.01156233743810E+05
 cg2d: Sum(rhs),rhsMax =  -5.85297834190548E+01  1.22078040624924E+00
(PID.TID 0000.0001)  ploadbar=  1.01155216596615E+05
 cg2d: Sum(rhs),rhsMax =  -5.84853405515235E+01  1.22144691147313E+00
(PID.TID 0000.0001)  ploadbar=  1.01154199449421E+05
 cg2d: Sum(rhs),rhsMax =  -5.84459294889591E+01  1.22200893026945E+00
(PID.TID 0000.0001)  ploadbar=  1.01153182302226E+05
 cg2d: Sum(rhs),rhsMax =  -5.84146997398593E+01  1.22239355932435E+00
(PID.TID 0000.0001)  ploadbar=  1.01152165155031E+05
 cg2d: Sum(rhs),rhsMax =  -5.84070715255282E+01  1.22222673832801E+00
(PID.TID 0000.0001)  ploadbar=  1.01151734585887E+05
 cg2d: Sum(rhs),rhsMax =  -5.84196200340862E+01  1.22157668872398E+00
(PID.TID 0000.0001)  ploadbar=  1.01151304016742E+05
 cg2d: Sum(rhs),rhsMax =  -5.80306041191605E+01  1.22931332718217E+00
(PID.TID 0000.0001)  ploadbar=  1.01150873447598E+05
 cg2d: Sum(rhs),rhsMax =  -5.67181513850334E+01  1.25723006834496E+00
(PID.TID 0000.0001)  ploadbar=  1.01150442878454E+05
 cg2d: Sum(rhs),rhsMax =  -5.54631179942438E+01  1.28506559848401E+00
(PID.TID 0000.0001)  ploadbar=  1.01150012309309E+05
 cg2d: Sum(rhs),rhsMax =  -5.42859671346678E+01  1.31223104928261E+00
(PID.TID 0000.0001)  ploadbar=  1.01149581740165E+05
 cg2d: Sum(rhs),rhsMax =  -5.32447695103673E+01  1.33725955324879E+00
(PID.TID 0000.0001)  ploadbar=  1.01149070617488E+05
 cg2d: Sum(rhs),rhsMax =  -5.23216689895154E+01  1.36028830315787E+00
(PID.TID 0000.0001)  ploadbar=  1.01148559494811E+05
 cg2d: Sum(rhs),rhsMax =  -5.16391920074795E+01  1.37777156722073E+00
(PID.TID 0000.0001)  ploadbar=  1.01148048372135E+05
 cg2d: Sum(rhs),rhsMax =  -5.11376147846378E+01  1.39086210770473E+00
(PID.TID 0000.0001)  ploadbar=  1.01147537249458E+05
 cg2d: Sum(rhs),rhsMax =  -5.07344831802010E+01  1.40155892227562E+00
(PID.TID 0000.0001)  ploadbar=  1.01147026126781E+05
 cg2d: Sum(rhs),rhsMax =  -5.03678845133680E+01  1.41146515875895E+00
(PID.TID 0000.0001)  ploadbar=  1.01146515004104E+05
 cg2d: Sum(rhs),rhsMax =  -4.99581444729177E+01  1.42277257530137E+00
(PID.TID 0000.0001)  ploadbar=  1.01145398191748E+05
 cg2d: Sum(rhs),rhsMax =  -4.94958325325538E+01  1.43580704743497E+00
(PID.TID 0000.0001)  ploadbar=  1.01144281379393E+05
 cg2d: Sum(rhs),rhsMax =  -4.89922127237924E+01  1.45032000102514E+00
(PID.TID 0000.0001)  ploadbar=  1.01143164567037E+05
 cg2d: Sum(rhs),rhsMax =  -4.84735217005053E+01  1.46559680833310E+00
(PID.TID 0000.0001)  ploadbar=  1.01142047754681E+05
 cg2d: Sum(rhs),rhsMax =  -4.79312477783424E+01  1.48193568043541E+00
(PID.TID 0000.0001)  ploadbar=  1.01140930942325E+05
 cg2d: Sum(rhs),rhsMax =  -4.74283528366260E+01  1.49740595752871E+00
(PID.TID 0000.0001)  ploadbar=  1.01139814129970E+05
 cg2d: Sum(rhs),rhsMax =  -4.69838099109556E+01  1.51131343617297E+00
(PID.TID 0000.0001)  ploadbar=  1.01139931359417E+05
 cg2d: Sum(rhs),rhsMax =  -4.66202037749652E+01  1.52281933464020E+00
(PID.TID 0000.0001)  ploadbar=  1.01140048588864E+05
 cg2d: Sum(rhs),rhsMax =  -4.63411801003322E+01  1.53168290605067E+00
(PID.TID 0000.0001)  ploadbar=  1.01140165818311E+05
 cg2d: Sum(rhs),rhsMax =  -4.61381604900613E+01  1.53808558643924E+00
(PID.TID 0000.0001)  ploadbar=  1.01140283047758E+05
 cg2d: Sum(rhs),rhsMax =  -4.59991792362046E+01  1.54235692305768E+00
(PID.TID 0000.0001)  ploadbar=  1.01140400277205E+05
 cg2d: Sum(rhs),rhsMax =  -4.59082859671435E+01  1.54498946487276E+00
(PID.TID 0000.0001)  ploadbar=  1.01140517506652E+05
 cg2d: Sum(rhs),rhsMax =  -4.58572638785757E+01  1.54623179630500E+00
(PID.TID 0000.0001)  ploadbar=  1.01140714940362E+05
 cg2d: Sum(rhs),rhsMax =  -4.58174675152497E+01  1.54703903569660E+00
(PID.TID 0000.0001)  ploadbar=  1.01140912374071E+05
 cg2d: Sum(rhs),rhsMax =  -4.57813011455735E+01  1.54766179865947E+00
(PID.TID 0000.0001)  ploadbar=  1.01141109807781E+05
 cg2d: Sum(rhs),rhsMax =  -4.57440373704344E+01  1.54825499947602E+00
(PID.TID 0000.0001)  ploadbar=  1.01141307241490E+05
 cg2d: Sum(rhs),rhsMax =  -4.57044183732596E+01  1.54886111148571E+00
(PID.TID 0000.0001)  ploadbar=  1.01141504675200E+05
 cg2d: Sum(rhs),rhsMax =  -4.56642772681123E+01  1.54941732589733E+00
(PID.TID 0000.0001)  ploadbar=  1.01141702108910E+05
 cg2d: Sum(rhs),rhsMax =  -4.56069368748925E+01  1.55063230543868E+00
(PID.TID 0000.0001)  ploadbar=  1.01141320733737E+05
 cg2d: Sum(rhs),rhsMax =  -4.55328694420739E+01  1.55248948027655E+00
(PID.TID 0000.0001)  ploadbar=  1.01140939358565E+05
 cg2d: Sum(rhs),rhsMax =  -4.54510640300649E+01  1.55468381907941E+00
(PID.TID 0000.0001)  ploadbar=  1.01140557983392E+05
 cg2d: Sum(rhs),rhsMax =  -4.55888290265258E+01  1.54944832580980E+00
(PID.TID 0000.0001)  ploadbar=  1.01140176608219E+05
 cg2d: Sum(rhs),rhsMax =  -4.58271283504224E+01  1.54091260644755E+00
(PID.TID 0000.0001)  ploadbar=  1.01139795233047E+05
 cg2d: Sum(rhs),rhsMax =  -4.61151144136414E+01  1.53086129876526E+00
(PID.TID 0000.0001)  ploadbar=  1.01139413857874E+05
 cg2d: Sum(rhs),rhsMax =  -4.64341789534049E+01  1.51993928794715E+00
(PID.TID 0000.0001)  ploadbar=  1.01138831493154E+05
 cg2d: Sum(rhs),rhsMax =  -4.67801733365271E+01  1.50830774111216E+00
(PID.TID 0000.0001)  ploadbar=  1.01138249128433E+05
 cg2d: Sum(rhs),rhsMax =  -4.71534332049973E+01  1.49598833207924E+00
(PID.TID 0000.0001)  ploadbar=  1.01137666763713E+05
 cg2d: Sum(rhs),rhsMax =  -4.75516518942003E+01  1.48308758028594E+00
(PID.TID 0000.0001)  ploadbar=  1.01137084398992E+05
 cg2d: Sum(rhs),rhsMax =  -4.79899120302592E+01  1.46917476624509E+00
(PID.TID 0000.0001)  ploadbar=  1.01136502034272E+05
 cg2d: Sum(rhs),rhsMax =  -4.85165260292549E+01  1.45285872729305E+00
(PID.TID 0000.0001)  ploadbar=  1.01135919669551E+05
 cg2d: Sum(rhs),rhsMax =  -4.90331480715319E+01  1.43718930635455E+00
(PID.TID 0000.0001)  ploadbar=  1.01135696235600E+05
 cg2d: Sum(rhs),rhsMax =  -4.95607964525776E+01  1.42153080987054E+00
(PID.TID 0000.0001)  ploadbar=  1.01135472801648E+05
 cg2d: Sum(rhs),rhsMax =  -5.01117203675500E+01  1.40554422750388E+00
(PID.TID 0000.0001)  ploadbar=  1.01135249367696E+05
 cg2d: Sum(rhs),rhsMax =  -5.07017834085886E+01  1.38882318205000E+00
(PID.TID 0000.0001)  ploadbar=  1.01135025933744E+05
 cg2d: Sum(rhs),rhsMax =  -5.13405950430871E+01  1.37116694373987E+00
(PID.TID 0000.0001)  ploadbar=  1.01134802499792E+05
 cg2d: Sum(rhs),rhsMax =  -5.20332871311927E+01  1.35251976044918E+00
(PID.TID 0000.0001)  ploadbar=  1.01134579065840E+05
 cg2d: Sum(rhs),rhsMax =  -5.26712598208111E+01  1.33573141544348E+00
(PID.TID 0000.0001)  ploadbar=  1.01133836001613E+05
 cg2d: Sum(rhs),rhsMax =  -5.32607867192210E+01  1.32052302817214E+00
(PID.TID 0000.0001)  ploadbar=  1.01133092937384E+05
 cg2d: Sum(rhs),rhsMax =  -5.38278960132071E+01  1.30616720108861E+00
(PID.TID 0000.0001)  ploadbar=  1.01132349873156E+05
 cg2d: Sum(rhs),rhsMax =  -5.44132488776898E+01  1.29165136288835E+00
(PID.TID 0000.0001)  ploadbar=  1.01131606808929E+05
 cg2d: Sum(rhs),rhsMax =  -5.50616003891144E+01  1.27595501126482E+00
(PID.TID 0000.0001)  ploadbar=  1.01130863744701E+05
 cg2d: Sum(rhs),rhsMax =  -5.58125487146308E+01  1.25827816051223E+00
(PID.TID 0000.0001)  ploadbar=  1.01130120680473E+05
 cg2d: Sum(rhs),rhsMax =  -5.65496078943858E+01  1.24142079011544E+00
(PID.TID 0000.0001)  ploadbar=  1.01129803542803E+05
 cg2d: Sum(rhs),rhsMax =  -5.73445082404189E+01  1.22380282365456E+00
(PID.TID 0000.0001)  ploadbar=  1.01129486405133E+05
 cg2d: Sum(rhs),rhsMax =  -5.81376622785869E+01  1.20673932329694E+00
(PID.TID 0000.0001)  ploadbar=  1.01129169267463E+05
 cg2d: Sum(rhs),rhsMax =  -5.89151343002134E+01  1.19048375578656E+00
(PID.TID 0000.0001)  ploadbar=  1.01128852129794E+05
 cg2d: Sum(rhs),rhsMax =  -5.95605023414935E+01  1.17728561792604E+00
(PID.TID 0000.0001)  ploadbar=  1.01128534992124E+05
 cg2d: Sum(rhs),rhsMax =  -6.00122561941962E+01  1.16814813594651E+00
(PID.TID 0000.0001)  ploadbar=  1.01128217854454E+05
 cg2d: Sum(rhs),rhsMax =  -6.03612919567111E+01  1.16113922589277E+00
(PID.TID 0000.0001)  ploadbar=  1.01127231719532E+05
 cg2d: Sum(rhs),rhsMax =  -6.06409466066440E+01  1.15554793761485E+00
(PID.TID 0000.0001)  ploadbar=  1.01126245584610E+05
 cg2d: Sum(rhs),rhsMax =  -6.07110154517459E+01  1.15399228376659E+00
(PID.TID 0000.0001)  ploadbar=  1.01125259449688E+05
 cg2d: Sum(rhs),rhsMax =  -5.99405913336795E+01  1.16861040010855E+00
(PID.TID 0000.0001)  ploadbar=  1.01124273314766E+05
 cg2d: Sum(rhs),rhsMax =  -5.90676915817910E+01  1.18566959664197E+00
(PID.TID 0000.0001)  ploadbar=  1.01123287179844E+05
 cg2d: Sum(rhs),rhsMax =  -5.81121958970468E+01  1.20495264689522E+00
(PID.TID 0000.0001)  ploadbar=  1.01122301044922E+05
 cg2d: Sum(rhs),rhsMax =  -5.70195866363765E+01  1.22782208485187E+00
(PID.TID 0000.0001)  ploadbar=  1.01122453575512E+05
 cg2d: Sum(rhs),rhsMax =  -5.59170038739957E+01  1.25180210724027E+00
(PID.TID 0000.0001)  ploadbar=  1.01122606106102E+05
 cg2d: Sum(rhs),rhsMax =  -5.48281005473074E+01  1.27641710410351E+00
(PID.TID 0000.0001)  ploadbar=  1.01122758636691E+05
 cg2d: Sum(rhs),rhsMax =  -5.37476535106367E+01  1.30181179630599E+00
(PID.TID 0000.0001)  ploadbar=  1.01122911167281E+05
 cg2d: Sum(rhs),rhsMax =  -5.26821331033035E+01  1.32785526649458E+00
(PID.TID 0000.0001)  ploadbar=  1.01123063697871E+05
 cg2d: Sum(rhs),rhsMax =  -5.16288255038830E+01  1.35463010175003E+00
(PID.TID 0000.0001)  ploadbar=  1.01123216228460E+05
 cg2d: Sum(rhs),rhsMax =  -5.07384194136343E+01  1.37805114580398E+00
(PID.TID 0000.0001)  ploadbar=  1.01122750044224E+05
 cg2d: Sum(rhs),rhsMax =  -5.01899707987919E+01  1.39272305744307E+00
(PID.TID 0000.0001)  ploadbar=  1.01122283859988E+05
 cg2d: Sum(rhs),rhsMax =  -4.97676220850931E+01  1.40411827228129E+00
(PID.TID 0000.0001)  ploadbar=  1.01121817675751E+05
 cg2d: Sum(rhs),rhsMax =  -4.94248207667256E+01  1.41339416196327E+00
(PID.TID 0000.0001)  ploadbar=  1.01121351491515E+05
 cg2d: Sum(rhs),rhsMax =  -4.90090894905284E+01  1.42487794503341E+00
(PID.TID 0000.0001)  ploadbar=  1.01120885307279E+05
 cg2d: Sum(rhs),rhsMax =  -4.86875423628919E+01  1.43373886155584E+00
(PID.TID 0000.0001)  ploadbar=  1.01120419123042E+05
 cg2d: Sum(rhs),rhsMax =  -4.85507148623421E+01  1.43727674451689E+00
(PID.TID 0000.0001)  ploadbar=  1.01121045662023E+05
 cg2d: Sum(rhs),rhsMax =  -4.86258807429207E+01  1.43459507161754E+00
(PID.TID 0000.0001)  ploadbar=  1.01121672201004E+05
 cg2d: Sum(rhs),rhsMax =  -4.87619962460849E+01  1.43017122578736E+00
(PID.TID 0000.0001)  ploadbar=  1.01122298739984E+05
 cg2d: Sum(rhs),rhsMax =  -4.89776122992850E+01  1.42349582192160E+00
(PID.TID 0000.0001)  ploadbar=  1.01122925278965E+05
 cg2d: Sum(rhs),rhsMax =  -4.92178315977881E+01  1.41620505424227E+00
(PID.TID 0000.0001)  ploadbar=  1.01123551817946E+05
 cg2d: Sum(rhs),rhsMax =  -4.94399210012329E+01  1.40952810547542E+00
(PID.TID 0000.0001)  ploadbar=  1.01124178356926E+05
 cg2d: Sum(rhs),rhsMax =  -4.95219605532518E+01  1.40688054844665E+00
(PID.TID 0000.0001)  ploadbar=  1.01124805063512E+05
 cg2d: Sum(rhs),rhsMax =  -4.95888492134859E+01  1.40467089543400E+00
(PID.TID 0000.0001)  ploadbar=  1.01125431770097E+05
 cg2d: Sum(rhs),rhsMax =  -4.96593801912583E+01  1.40235989694472E+00
(PID.TID 0000.0001)  ploadbar=  1.01126058476682E+05
 cg2d: Sum(rhs),rhsMax =  -4.97265482555677E+01  1.40014429543560E+00
(PID.TID 0000.0001)  ploadbar=  1.01126685183268E+05
 cg2d: Sum(rhs),rhsMax =  -4.97972440422112E+01  1.39782617602696E+00
(PID.TID 0000.0001)  ploadbar=  1.01127311889853E+05
 cg2d: Sum(rhs),rhsMax =  -4.98768695697459E+01  1.39525068682458E+00
(PID.TID 0000.0001)  ploadbar=  1.01127938596438E+05
 cg2d: Sum(rhs),rhsMax =  -4.99290906435682E+01  1.39345139726132E+00
(PID.TID 0000.0001)  ploadbar=  1.01128126306178E+05
 cg2d: Sum(rhs),rhsMax =  -5.00190349250289E+01  1.39060405777920E+00
(PID.TID 0000.0001)  ploadbar=  1.01128314015919E+05
 cg2d: Sum(rhs),rhsMax =  -5.01772882792019E+01  1.38587230129965E+00
(PID.TID 0000.0001)  ploadbar=  1.01128501725659E+05
 cg2d: Sum(rhs),rhsMax =  -5.04330604894503E+01  1.37848911872831E+00
(PID.TID 0000.0001)  ploadbar=  1.01128689435399E+05
 cg2d: Sum(rhs),rhsMax =  -5.08161731169280E+01  1.36773060227707E+00
(PID.TID 0000.0001)  ploadbar=  1.01128877145139E+05
 cg2d: Sum(rhs),rhsMax =  -5.13494137237312E+01  1.35314711858858E+00
(PID.TID 0000.0001)  ploadbar=  1.01129064854880E+05
 cg2d: Sum(rhs),rhsMax =  -5.19229095706890E+01  1.33778843470431E+00
(PID.TID 0000.0001)  ploadbar=  1.01129288456005E+05
 cg2d: Sum(rhs),rhsMax =  -5.25235193830882E+01  1.32204500526981E+00
(PID.TID 0000.0001)  ploadbar=  1.01129512057130E+05
 cg2d: Sum(rhs),rhsMax =  -5.31088764738789E+01  1.30699533080944E+00
(PID.TID 0000.0001)  ploadbar=  1.01129735658255E+05
 cg2d: Sum(rhs),rhsMax =  -5.36777820539954E+01  1.29263071514068E+00
(PID.TID 0000.0001)  ploadbar=  1.01129959259380E+05
 cg2d: Sum(rhs),rhsMax =  -5.42457631455078E+01  1.27854748453911E+00
(PID.TID 0000.0001)  ploadbar=  1.01130182860506E+05
 cg2d: Sum(rhs),rhsMax =  -5.48325027191121E+01  1.26428027527446E+00
(PID.TID 0000.0001)  ploadbar=  1.01130406461631E+05
 cg2d: Sum(rhs),rhsMax =  -5.56423074186164E+01  1.24539915585294E+00
(PID.TID 0000.0001)  ploadbar=  1.01130340233188E+05
 cg2d: Sum(rhs),rhsMax =  -5.64285470729544E+01  1.22766291171030E+00
(PID.TID 0000.0001)  ploadbar=  1.01130274004746E+05
 cg2d: Sum(rhs),rhsMax =  -5.71525387627995E+01  1.21181919210668E+00
(PID.TID 0000.0001)  ploadbar=  1.01130207776304E+05
 cg2d: Sum(rhs),rhsMax =  -5.77142331766226E+01  1.19981857199565E+00
(PID.TID 0000.0001)  ploadbar=  1.01130141547861E+05
 cg2d: Sum(rhs),rhsMax =  -5.81373117156757E+01  1.19096029780614E+00
(PID.TID 0000.0001)  ploadbar=  1.01130075319419E+05
 cg2d: Sum(rhs),rhsMax =  -5.84675031324248E+01  1.18418055515131E+00
(PID.TID 0000.0001)  ploadbar=  1.01130009090977E+05
 cg2d: Sum(rhs),rhsMax =  -5.86851701041899E+01  1.17971463493069E+00
(PID.TID 0000.0001)  ploadbar=  1.01129859640716E+05
 cg2d: Sum(rhs),rhsMax =  -5.89060298957408E+01  1.17519177293528E+00
(PID.TID 0000.0001)  ploadbar=  1.01129710190454E+05
 cg2d: Sum(rhs),rhsMax =  -5.91100774488231E+01  1.17100827804581E+00
(PID.TID 0000.0001)  ploadbar=  1.01129560740193E+05
 cg2d: Sum(rhs),rhsMax =  -5.93048718447883E+01  1.16700733348749E+00
(PID.TID 0000.0001)  ploadbar=  1.01129411289932E+05
 cg2d: Sum(rhs),rhsMax =  -5.94782775111413E+01  1.16342112888556E+00
(PID.TID 0000.0001)  ploadbar=  1.01129261839671E+05
 cg2d: Sum(rhs),rhsMax =  -5.96151019491962E+01  1.16053519432156E+00
(PID.TID 0000.0001)  ploadbar=  1.01129112389409E+05
 cg2d: Sum(rhs),rhsMax =  -5.95291926097609E+01  1.16199521036736E+00
(PID.TID 0000.0001)  ploadbar=  1.01129549914557E+05
 cg2d: Sum(rhs),rhsMax =  -5.94772223174826E+01  1.16279558271043E+00
(PID.TID 0000.0001)  ploadbar=  1.01129987439705E+05
 cg2d: Sum(rhs),rhsMax =  -5.94481628172706E+01  1.16314687213474E+00
(PID.TID 0000.0001)  ploadbar=  1.01130424964853E+05
 cg2d: Sum(rhs),rhsMax =  -5.94064660214017E+01  1.16373915364544E+00
(PID.TID 0000.0001)  ploadbar=  1.01130862490000E+05
 cg2d: Sum(rhs),rhsMax =  -5.93678649000915E+01  1.16426037310461E+00
(PID.TID 0000.0001)  ploadbar=  1.01131300015148E+05
 cg2d: Sum(rhs),rhsMax =  -5.94050884251172E+01  1.16328090551331E+00
(PID.TID 0000.0001)  ploadbar=  1.01131737540296E+05
 cg2d: Sum(rhs),rhsMax =  -5.96113453226986E+01  1.15899362384157E+00
(PID.TID 0000.0001)  ploadbar=  1.01130988179612E+05
 cg2d: Sum(rhs),rhsMax =  -5.98762678137445E+01  1.15359133401086E+00
(PID.TID 0000.0001)  ploadbar=  1.01130238818927E+05
 cg2d: Sum(rhs),rhsMax =  -6.01934626767170E+01  1.14722465944752E+00
(PID.TID 0000.0001)  ploadbar=  1.01129489458243E+05
 cg2d: Sum(rhs),rhsMax =  -6.05451718750088E+01  1.14025991928040E+00
(PID.TID 0000.0001)  ploadbar=  1.01128740097559E+05
 cg2d: Sum(rhs),rhsMax =  -6.09028964842499E+01  1.13325029484047E+00
(PID.TID 0000.0001)  ploadbar=  1.01127990736874E+05
 cg2d: Sum(rhs),rhsMax =  -6.11053166652983E+01  1.12917162953947E+00
(PID.TID 0000.0001)  ploadbar=  1.01127241376190E+05
 cg2d: Sum(rhs),rhsMax =  -6.14357120142712E+01  1.12281520113514E+00
(PID.TID 0000.0001)  ploadbar=  1.01125499179574E+05
 cg2d: Sum(rhs),rhsMax =  -6.18368756183347E+01  1.11528201721497E+00
(PID.TID 0000.0001)  ploadbar=  1.01123756982958E+05
 cg2d: Sum(rhs),rhsMax =  -6.23242281943545E+01  1.10634568150480E+00
(PID.TID 0000.0001)  ploadbar=  1.01122014786341E+05
 cg2d: Sum(rhs),rhsMax =  -6.29158132433529E+01  1.09576016513950E+00
(PID.TID 0000.0001)  ploadbar=  1.01120272589725E+05
 cg2d: Sum(rhs),rhsMax =  -6.31958930861227E+01  1.09075253328215E+00
(PID.TID 0000.0001)  ploadbar=  1.01118530393108E+05
 cg2d: Sum(rhs),rhsMax =  -6.32980486380220E+01  1.08886941008906E+00
(PID.TID 0000.0001)  ploadbar=  1.01116788196492E+05
 cg2d: Sum(rhs),rhsMax =  -6.34081026141253E+01  1.08685246532407E+00
(PID.TID 0000.0001)  ploadbar=  1.01116852702411E+05
 cg2d: Sum(rhs),rhsMax =  -6.35204030417108E+01  1.08479781965148E+00
(PID.TID 0000.0001)  ploadbar=  1.01116917208330E+05
 cg2d: Sum(rhs),rhsMax =  -6.36284853586273E+01  1.08281432077979E+00
(PID.TID 0000.0001)  ploadbar=  1.01116981714248E+05
 cg2d: Sum(rhs),rhsMax =  -6.37319607291742E+01  1.08090522259905E+00
(PID.TID 0000.0001)  ploadbar=  1.01117046220167E+05
 cg2d: Sum(rhs),rhsMax =  -6.38290537860500E+01  1.07909649513937E+00
(PID.TID 0000.0001)  ploadbar=  1.01117110726086E+05
 cg2d: Sum(rhs),rhsMax =  -6.39188659113033E+01  1.07739852471846E+00
(PID.TID 0000.0001)  ploadbar=  1.01117175232005E+05
 cg2d: Sum(rhs),rhsMax =  -6.40079768603108E+01  1.07573586767402E+00
(PID.TID 0000.0001)  ploadbar=  1.01118487521576E+05
 cg2d: Sum(rhs),rhsMax =  -6.41036411853154E+01  1.07398400167105E+00
(PID.TID 0000.0001)  ploadbar=  1.01119799811146E+05
 cg2d: Sum(rhs),rhsMax =  -6.41934895892997E+01  1.07234841154867E+00
(PID.TID 0000.0001)  ploadbar=  1.01121112100717E+05
 cg2d: Sum(rhs),rhsMax =  -6.42807673212956E+01  1.07077279955026E+00
(PID.TID 0000.0001)  ploadbar=  1.01122424390288E+05
 cg2d: Sum(rhs),rhsMax =  -6.43635780304774E+01  1.06928552959752E+00
(PID.TID 0000.0001)  ploadbar=  1.01123736679859E+05
 cg2d: Sum(rhs),rhsMax =  -6.44366960535094E+01  1.06796562017023E+00
(PID.TID 0000.0001)  ploadbar=  1.01125048969429E+05
 cg2d: Sum(rhs),rhsMax =  -6.45066131202321E+01  1.06667247552777E+00
(PID.TID 0000.0001)  ploadbar=  1.01125769583376E+05
 cg2d: Sum(rhs),rhsMax =  -6.45834007964521E+01  1.06523839850963E+00
(PID.TID 0000.0001)  ploadbar=  1.01126490197322E+05
 cg2d: Sum(rhs),rhsMax =  -6.46637161554097E+01  1.06371786432596E+00
(PID.TID 0000.0001)  ploadbar=  1.01127210811269E+05
 cg2d: Sum(rhs),rhsMax =  -6.47485560614874E+01  1.06209334385264E+00
(PID.TID 0000.0001)  ploadbar=  1.01127931425216E+05
 cg2d: Sum(rhs),rhsMax =  -6.48377272779195E+01  1.06036724853092E+00
(PID.TID 0000.0001)  ploadbar=  1.01128652039162E+05
 cg2d: Sum(rhs),rhsMax =  -6.49295235217547E+01  1.05856586006852E+00
(PID.TID 0000.0001)  ploadbar=  1.01129372653109E+05
 cg2d: Sum(rhs),rhsMax =  -6.50678342250646E+01  1.05607731580958E+00
(PID.TID 0000.0001)  ploadbar=  1.01129733617350E+05
 cg2d: Sum(rhs),rhsMax =  -6.52170376132601E+01  1.05348421888840E+00
(PID.TID 0000.0001)  ploadbar=  1.01130094581592E+05
 cg2d: Sum(rhs),rhsMax =  -6.53828780316993E+01  1.05069476963321E+00
(PID.TID 0000.0001)  ploadbar=  1.01130455545833E+05
 cg2d: Sum(rhs),rhsMax =  -6.55578467913868E+01  1.04783029992137E+00
(PID.TID 0000.0001)  ploadbar=  1.01130816510075E+05
 cg2d: Sum(rhs),rhsMax =  -6.57335130016082E+01  1.04502426957279E+00
(PID.TID 0000.0001)  ploadbar=  1.01131177474316E+05
 cg2d: Sum(rhs),rhsMax =  -6.59044277402032E+01  1.04236062427805E+00
(PID.TID 0000.0001)  ploadbar=  1.01131538438558E+05
 cg2d: Sum(rhs),rhsMax =  -6.60473104338917E+01  1.04014922771878E+00
(PID.TID 0000.0001)  ploadbar=  1.01131894109103E+05
 cg2d: Sum(rhs),rhsMax =  -6.61842916670269E+01  1.03803361045108E+00
(PID.TID 0000.0001)  ploadbar=  1.01132249779648E+05
 cg2d: Sum(rhs),rhsMax =  -6.63328779466795E+01  1.03573796800119E+00
(PID.TID 0000.0001)  ploadbar=  1.01132605450194E+05
 cg2d: Sum(rhs),rhsMax =  -6.64880199220414E+01  1.03333965255573E+00
(PID.TID 0000.0001)  ploadbar=  1.01132961120739E+05
 cg2d: Sum(rhs),rhsMax =  -6.66508681823300E+01  1.03081683494249E+00
(PID.TID 0000.0001)  ploadbar=  1.01133316791284E+05
 cg2d: Sum(rhs),rhsMax =  -6.68261229898317E+01  1.02809585868572E+00
(PID.TID 0000.0001)  ploadbar=  1.01133672461829E+05
 cg2d: Sum(rhs),rhsMax =  -6.70876260902987E+01  1.02408552080523E+00
(PID.TID 0000.0001)  ploadbar=  1.01134885946353E+05
 cg2d: Sum(rhs),rhsMax =  -6.73600761684427E+01  1.01995326562771E+00
(PID.TID 0000.0001)  ploadbar=  1.01136099430877E+05
 cg2d: Sum(rhs),rhsMax =  -6.76430269038333E+01  1.01570270780815E+00
(PID.TID 0000.0001)  ploadbar=  1.01137312915400E+05
 cg2d: Sum(rhs),rhsMax =  -6.79454486582898E+01  1.01119858768885E+00
(PID.TID 0000.0001)  ploadbar=  1.01138526399924E+05
 cg2d: Sum(rhs),rhsMax =  -6.82723958573510E+01  1.00637043158641E+00
(PID.TID 0000.0001)  ploadbar=  1.01139739884447E+05
 cg2d: Sum(rhs),rhsMax =  -6.86352839273028E+01  1.00105756111445E+00
(PID.TID 0000.0001)  ploadbar=  1.01140953368971E+05
 cg2d: Sum(rhs),rhsMax =  -6.89456960643325E+01  9.96504865292163E-01
(PID.TID 0000.0001)  ploadbar=  1.01140354532123E+05
 cg2d: Sum(rhs),rhsMax =  -6.92563781126679E+01  9.91934092104257E-01
(PID.TID 0000.0001)  ploadbar=  1.01139755695275E+05
 cg2d: Sum(rhs),rhsMax =  -6.95674451153097E+01  9.87342960015110E-01
(PID.TID 0000.0001)  ploadbar=  1.01139156858427E+05
 cg2d: Sum(rhs),rhsMax =  -6.98652785008872E+01  9.82922060105447E-01
(PID.TID 0000.0001)  ploadbar=  1.01138558021579E+05
 cg2d: Sum(rhs),rhsMax =  -7.01517481301318E+01  9.78639056373155E-01
(PID.TID 0000.0001)  ploadbar=  1.01137959184731E+05
 cg2d: Sum(rhs),rhsMax =  -7.04270200022368E+01  9.74487475204090E-01
(PID.TID 0000.0001)  ploadbar=  1.01137360347883E+05
 cg2d: Sum(rhs),rhsMax =  -7.06286774003392E+01  9.71409183818721E-01
(PID.TID 0000.0001)  ploadbar=  1.01137710124583E+05
 cg2d: Sum(rhs),rhsMax =  -7.08207624131034E+01  9.68506667743228E-01
(PID.TID 0000.0001)  ploadbar=  1.01138059901282E+05
 cg2d: Sum(rhs),rhsMax =  -7.10256128884065E+01  9.65470390262629E-01
(PID.TID 0000.0001)  ploadbar=  1.01138409677981E+05
 cg2d: Sum(rhs),rhsMax =  -7.12310119093444E+01  9.62464452075573E-01
(PID.TID 0000.0001)  ploadbar=  1.01138759454680E+05
 cg2d: Sum(rhs),rhsMax =  -7.14328295845610E+01  9.59542241248210E-01
(PID.TID 0000.0001)  ploadbar=  1.01139109231379E+05
 cg2d: Sum(rhs),rhsMax =  -7.16248977606547E+01  9.56781946052225E-01
(PID.TID 0000.0001)  ploadbar=  1.01139459008078E+05
 cg2d: Sum(rhs),rhsMax =  -7.17841740089584E+01  9.54482390284731E-01
(PID.TID 0000.0001)  ploadbar=  1.01139039124933E+05
 cg2d: Sum(rhs),rhsMax =  -7.19039041587817E+01  9.52723508382554E-01
(PID.TID 0000.0001)  ploadbar=  1.01138619241788E+05
 cg2d: Sum(rhs),rhsMax =  -7.19765880473726E+01  9.51596651942925E-01
(PID.TID 0000.0001)  ploadbar=  1.01138199358643E+05
 cg2d: Sum(rhs),rhsMax =  -7.20221453888152E+01  9.50834365459856E-01
(PID.TID 0000.0001)  ploadbar=  1.01137779475498E+05
 cg2d: Sum(rhs),rhsMax =  -7.20496627866547E+01  9.50314172061881E-01
(PID.TID 0000.0001)  ploadbar=  1.01137359592353E+05
 cg2d: Sum(rhs),rhsMax =  -7.20603637243162E+01  9.50017560642795E-01
(PID.TID 0000.0001)  ploadbar=  1.01136939709208E+05
 cg2d: Sum(rhs),rhsMax =  -7.21371946479686E+01  9.48858046287703E-01
(PID.TID 0000.0001)  ploadbar=  1.01138474762085E+05
 cg2d: Sum(rhs),rhsMax =  -7.22379070007056E+01  9.47391233009509E-01
(PID.TID 0000.0001)  ploadbar=  1.01140009814961E+05
 cg2d: Sum(rhs),rhsMax =  -7.23494008374382E+01  9.45785870676918E-01
(PID.TID 0000.0001)  ploadbar=  1.01141544867837E+05
 cg2d: Sum(rhs),rhsMax =  -7.24778624218074E+01  9.43959378786777E-01
(PID.TID 0000.0001)  ploadbar=  1.01143079920713E+05
 cg2d: Sum(rhs),rhsMax =  -7.26208138694631E+01  9.41945196550067E-01
(PID.TID 0000.0001)  ploadbar=  1.01144614973590E+05
 cg2d: Sum(rhs),rhsMax =  -7.27752515341069E+01  9.39782512992162E-01
(PID.TID 0000.0001)  ploadbar=  1.01146150026466E+05
 cg2d: Sum(rhs),rhsMax =  -7.30076115020999E+01  9.36606302905038E-01
(PID.TID 0000.0001)  ploadbar=  1.01145852031405E+05
 cg2d: Sum(rhs),rhsMax =  -7.32689110573741E+01  9.33059238043456E-01
(PID.TID 0000.0001)  ploadbar=  1.01145554036344E+05
 cg2d: Sum(rhs),rhsMax =  -7.35659137807524E+01  9.29063517993166E-01
(PID.TID 0000.0001)  ploadbar=  1.01145256041283E+05
 cg2d: Sum(rhs),rhsMax =  -7.39106746244686E+01  9.24478301323891E-01
(PID.TID 0000.0001)  ploadbar=  1.01144958046222E+05
 cg2d: Sum(rhs),rhsMax =  -7.43152544347972E+01  9.19171127731851E-01
(PID.TID 0000.0001)  ploadbar=  1.01144660051161E+05
 cg2d: Sum(rhs),rhsMax =  -7.47931382522209E+01  9.13000460855376E-01
(PID.TID 0000.0001)  ploadbar=  1.01144362056100E+05
 cg2d: Sum(rhs),rhsMax =  -7.52725422213372E+01  9.06928060838660E-01
(PID.TID 0000.0001)  ploadbar=  1.01144043623650E+05
 cg2d: Sum(rhs),rhsMax =  -7.58023845980916E+01  9.00369813080068E-01
(PID.TID 0000.0001)  ploadbar=  1.01143725191201E+05
 cg2d: Sum(rhs),rhsMax =  -7.38106975584249E+01  9.24476486359642E-01
(PID.TID 0000.0001)  ploadbar=  1.01143406758752E+05
 cg2d: Sum(rhs),rhsMax =  -7.06620641121212E+01  9.65509238699587E-01
(PID.TID 0000.0001)  ploadbar=  1.01143088326303E+05
 cg2d: Sum(rhs),rhsMax =  -6.77223883443475E+01  1.00728528668023E+00
(PID.TID 0000.0001)  ploadbar=  1.01142769893853E+05
 cg2d: Sum(rhs),rhsMax =  -6.50527209797875E+01  1.04851209952039E+00
(PID.TID 0000.0001)  ploadbar=  1.01142451461404E+05
 cg2d: Sum(rhs),rhsMax =  -6.29003627864595E+01  1.08430803554978E+00
(PID.TID 0000.0001)  ploadbar=  1.01140919505926E+05
 cg2d: Sum(rhs),rhsMax =  -6.11562631692797E+01  1.11517696465437E+00
(PID.TID 0000.0001)  ploadbar=  1.01139387550449E+05
 cg2d: Sum(rhs),rhsMax =  -5.97468056804182E+01  1.14145806371105E+00
(PID.TID 0000.0001)  ploadbar=  1.01137855594971E+05
 cg2d: Sum(rhs),rhsMax =  -5.86764279088844E+01  1.16228145679124E+00
(PID.TID 0000.0001)  ploadbar=  1.01136323639493E+05
 cg2d: Sum(rhs),rhsMax =  -5.79390123018652E+01  1.17710220836706E+00
(PID.TID 0000.0001)  ploadbar=  1.01134791684015E+05
 cg2d: Sum(rhs),rhsMax =  -5.74492618471257E+01  1.18718994149372E+00
(PID.TID 0000.0001)  ploadbar=  1.01133259728537E+05
 cg2d: Sum(rhs),rhsMax =  -5.71118246592880E+01  1.19425451729078E+00
(PID.TID 0000.0001)  ploadbar=  1.01131319470125E+05
 cg2d: Sum(rhs),rhsMax =  -5.68042555673372E+01  1.20076266711603E+00
(PID.TID 0000.0001)  ploadbar=  1.01129379211712E+05
 cg2d: Sum(rhs),rhsMax =  -5.65152922367561E+01  1.20692957536480E+00
(PID.TID 0000.0001)  ploadbar=  1.01127438953299E+05
 cg2d: Sum(rhs),rhsMax =  -5.62504662994855E+01  1.21262199838344E+00
(PID.TID 0000.0001)  ploadbar=  1.01125498694887E+05
 cg2d: Sum(rhs),rhsMax =  -5.60229442182696E+01  1.21753504388871E+00
(PID.TID 0000.0001)  ploadbar=  1.01123558436474E+05
 cg2d: Sum(rhs),rhsMax =  -5.58438701194416E+01  1.22140262543086E+00
(PID.TID 0000.0001)  ploadbar=  1.01121618178061E+05
 cg2d: Sum(rhs),rhsMax =  -5.56950091860008E+01  1.22459440402171E+00
(PID.TID 0000.0001)  ploadbar=  1.01119780079373E+05
 cg2d: Sum(rhs),rhsMax =  -5.56091601121790E+01  1.22637399622159E+00
(PID.TID 0000.0001)  ploadbar=  1.01117941980684E+05
 cg2d: Sum(rhs),rhsMax =  -5.55725709584260E+01  1.22703126467250E+00
(PID.TID 0000.0001)  ploadbar=  1.01116103881996E+05
 cg2d: Sum(rhs),rhsMax =  -5.55645912110459E+01  1.22701566758856E+00
(PID.TID 0000.0001)  ploadbar=  1.01114265783308E+05
 cg2d: Sum(rhs),rhsMax =  -5.55632202534100E+01  1.22680581543503E+00
(PID.TID 0000.0001)  ploadbar=  1.01112427684620E+05
 cg2d: Sum(rhs),rhsMax =  -5.55434230186577E+01  1.22695403417838E+00
(PID.TID 0000.0001)  ploadbar=  1.01110589585931E+05
 cg2d: Sum(rhs),rhsMax =  -5.54397202774413E+01  1.22903409117391E+00
(PID.TID 0000.0001)  ploadbar=  1.01109603580876E+05
 cg2d: Sum(rhs),rhsMax =  -5.53808981534342E+01  1.23019639336276E+00
(PID.TID 0000.0001)  ploadbar=  1.01108617575820E+05
 cg2d: Sum(rhs),rhsMax =  -5.53609528616707E+01  1.23056544457214E+00
(PID.TID 0000.0001)  ploadbar=  1.01107631570765E+05
 cg2d: Sum(rhs),rhsMax =  -5.53836221984907E+01  1.23005282220227E+00
(PID.TID 0000.0001)  ploadbar=  1.01106645565709E+05
 cg2d: Sum(rhs),rhsMax =  -5.54507245515043E+01  1.22861608522920E+00
(PID.TID 0000.0001)  ploadbar=  1.01105659560653E+05
 cg2d: Sum(rhs),rhsMax =  -5.55764209733974E+01  1.22594742800216E+00
(PID.TID 0000.0001)  ploadbar=  1.01104673555598E+05
 cg2d: Sum(rhs),rhsMax =  -5.57399038487802E+01  1.22244755453816E+00
(PID.TID 0000.0001)  ploadbar=  1.01103958698674E+05
 cg2d: Sum(rhs),rhsMax =  -5.59584413348125E+01  1.21775121626425E+00
(PID.TID 0000.0001)  ploadbar=  1.01103243841751E+05
 cg2d: Sum(rhs),rhsMax =  -5.62385367021635E+01  1.21174482573983E+00
(PID.TID 0000.0001)  ploadbar=  1.01102528984827E+05
 cg2d: Sum(rhs),rhsMax =  -5.65981944124215E+01  1.20408122454782E+00
(PID.TID 0000.0001)  ploadbar=  1.01101814127903E+05
 cg2d: Sum(rhs),rhsMax =  -5.70459328067651E+01  1.19464105388487E+00
(PID.TID 0000.0001)  ploadbar=  1.01101099270980E+05
 cg2d: Sum(rhs),rhsMax =  -5.75804529425268E+01  1.18353303871425E+00
(PID.TID 0000.0001)  ploadbar=  1.01100384414056E+05
 cg2d: Sum(rhs),rhsMax =  -5.81614680772622E+01  1.17167071959721E+00
(PID.TID 0000.0001)  ploadbar=  1.01098876136126E+05
 cg2d: Sum(rhs),rhsMax =  -5.88124295556410E+01  1.15863735630662E+00
(PID.TID 0000.0001)  ploadbar=  1.01097367858196E+05
 cg2d: Sum(rhs),rhsMax =  -5.95200085790035E+01  1.14476823868229E+00
(PID.TID 0000.0001)  ploadbar=  1.01095859580266E+05
 cg2d: Sum(rhs),rhsMax =  -6.03017503396059E+01  1.12979966301545E+00
(PID.TID 0000.0001)  ploadbar=  1.01094351302336E+05
 cg2d: Sum(rhs),rhsMax =  -6.11488665547496E+01  1.11398587140472E+00
(PID.TID 0000.0001)  ploadbar=  1.01092843024406E+05
 cg2d: Sum(rhs),rhsMax =  -6.02939773818959E+01  1.12957729066522E+00
(PID.TID 0000.0001)  ploadbar=  1.01091334746476E+05
 cg2d: Sum(rhs),rhsMax =  -5.92039908332749E+01  1.15013319651499E+00
(PID.TID 0000.0001)  ploadbar=  1.01090510690710E+05
 cg2d: Sum(rhs),rhsMax =  -5.81057062930448E+01  1.17159298095569E+00
(PID.TID 0000.0001)  ploadbar=  1.01089686634944E+05
 cg2d: Sum(rhs),rhsMax =  -5.70175071098460E+01  1.19363218059450E+00
(PID.TID 0000.0001)  ploadbar=  1.01088862579178E+05
 cg2d: Sum(rhs),rhsMax =  -5.59440930486161E+01  1.21616474384335E+00
(PID.TID 0000.0001)  ploadbar=  1.01088038523413E+05
 cg2d: Sum(rhs),rhsMax =  -5.48942695632053E+01  1.23899753524542E+00
(PID.TID 0000.0001)  ploadbar=  1.01087214467647E+05
 cg2d: Sum(rhs),rhsMax =  -5.38796419278442E+01  1.26184517675437E+00
(PID.TID 0000.0001)  ploadbar=  1.01086390411881E+05
 cg2d: Sum(rhs),rhsMax =  -5.29599906082029E+01  1.28334151658273E+00
(PID.TID 0000.0001)  ploadbar=  1.01085996581884E+05
 cg2d: Sum(rhs),rhsMax =  -5.21268441037199E+01  1.30350611920655E+00
(PID.TID 0000.0001)  ploadbar=  1.01085602751887E+05
 cg2d: Sum(rhs),rhsMax =  -5.13823763203720E+01  1.32210788979653E+00
(PID.TID 0000.0001)  ploadbar=  1.01085208921889E+05
 cg2d: Sum(rhs),rhsMax =  -5.07161218093433E+01  1.33924986862300E+00
(PID.TID 0000.0001)  ploadbar=  1.01084815091892E+05
 cg2d: Sum(rhs),rhsMax =  -5.01149215711812E+01  1.35514096053477E+00
(PID.TID 0000.0001)  ploadbar=  1.01084421261895E+05
 cg2d: Sum(rhs),rhsMax =  -4.95642279509309E+01  1.37006620444851E+00
(PID.TID 0000.0001)  ploadbar=  1.01084027431897E+05
 cg2d: Sum(rhs),rhsMax =  -4.90256816423476E+01  1.38499408298898E+00
(PID.TID 0000.0001)  ploadbar=  1.01083930055933E+05
 cg2d: Sum(rhs),rhsMax =  -4.85111459746941E+01  1.39956471643854E+00
(PID.TID 0000.0001)  ploadbar=  1.01083832679969E+05
 cg2d: Sum(rhs),rhsMax =  -4.80278040936661E+01  1.41353255351787E+00
(PID.TID 0000.0001)  ploadbar=  1.01083735304004E+05
 cg2d: Sum(rhs),rhsMax =  -4.75674677353698E+01  1.42709587241341E+00
(PID.TID 0000.0001)  ploadbar=  1.01083637928040E+05
 cg2d: Sum(rhs),rhsMax =  -4.71258657100824E+01  1.44035059852184E+00
(PID.TID 0000.0001)  ploadbar=  1.01083540552075E+05
 cg2d: Sum(rhs),rhsMax =  -4.67007098030845E+01  1.45333885886228E+00
(PID.TID 0000.0001)  ploadbar=  1.01083443176111E+05
 cg2d: Sum(rhs),rhsMax =  -4.63203169785290E+01  1.46513163471057E+00
(PID.TID 0000.0001)  ploadbar=  1.01083004729416E+05
 cg2d: Sum(rhs),rhsMax =  -4.59699147632182E+01  1.47613354903712E+00
(PID.TID 0000.0001)  ploadbar=  1.01082566282721E+05
 cg2d: Sum(rhs),rhsMax =  -4.56499393392900E+01  1.48628661742735E+00
(PID.TID 0000.0001)  ploadbar=  1.01082127836026E+05
 cg2d: Sum(rhs),rhsMax =  -4.53628351976086E+01  1.49546720974073E+00
(PID.TID 0000.0001)  ploadbar=  1.01081689389330E+05
 cg2d: Sum(rhs),rhsMax =  -4.51067645778956E+01  1.50369300909062E+00
(PID.TID 0000.0001)  ploadbar=  1.01081250942635E+05
 cg2d: Sum(rhs),rhsMax =  -4.48794825018630E+01  1.51100249504503E+00
(PID.TID 0000.0001)  ploadbar=  1.01080812495940E+05
 cg2d: Sum(rhs),rhsMax =  -4.46586575939540E+01  1.51812611347388E+00
(PID.TID 0000.0001)  ploadbar=  1.01080532984969E+05
 cg2d: Sum(rhs),rhsMax =  -4.44502055634202E+01  1.52484731865893E+00
(PID.TID 0000.0001)  ploadbar=  1.01080253473999E+05
 cg2d: Sum(rhs),rhsMax =  -4.42557513168625E+01  1.53108536882634E+00
(PID.TID 0000.0001)  ploadbar=  1.01079973963028E+05
 cg2d: Sum(rhs),rhsMax =  -4.40744328995440E+01  1.53685157811330E+00
(PID.TID 0000.0001)  ploadbar=  1.01079694452057E+05
 cg2d: Sum(rhs),rhsMax =  -4.39072955638044E+01  1.54209353644430E+00
(PID.TID 0000.0001)  ploadbar=  1.01079414941086E+05
 cg2d: Sum(rhs),rhsMax =  -4.37568122180782E+01  1.54671691317759E+00
(PID.TID 0000.0001)  ploadbar=  1.01079135430116E+05
 cg2d: Sum(rhs),rhsMax =  -4.36251593683613E+01  1.55080624648174E+00
(PID.TID 0000.0001)  ploadbar=  1.01077883336689E+05
 cg2d: Sum(rhs),rhsMax =  -4.35235244735315E+01  1.55395065100005E+00
(PID.TID 0000.0001)  ploadbar=  1.01076631243261E+05
 cg2d: Sum(rhs),rhsMax =  -4.34462805484157E+01  1.55633156201768E+00
(PID.TID 0000.0001)  ploadbar=  1.01075379149834E+05
 cg2d: Sum(rhs),rhsMax =  -4.33897733844223E+01  1.55805874788612E+00
(PID.TID 0000.0001)  ploadbar=  1.01074127056407E+05
 cg2d: Sum(rhs),rhsMax =  -4.33501555874275E+01  1.55925327919755E+00
(PID.TID 0000.0001)  ploadbar=  1.01072874962980E+05
 cg2d: Sum(rhs),rhsMax =  -4.33219593799593E+01  1.56009069237014E+00
(PID.TID 0000.0001)  ploadbar=  1.01071622869553E+05
 cg2d: Sum(rhs),rhsMax =  -4.33020860601524E+01  1.56057295428396E+00
(PID.TID 0000.0001)  ploadbar=  1.01071646639080E+05
 cg2d: Sum(rhs),rhsMax =  -4.32858665234316E+01  1.56085982323135E+00
(PID.TID 0000.0001)  ploadbar=  1.01071670408606E+05
 cg2d: Sum(rhs),rhsMax =  -4.32788685392262E+01  1.56074546827811E+00
(PID.TID 0000.0001)  ploadbar=  1.01071694178133E+05
 cg2d: Sum(rhs),rhsMax =  -4.32880458583492E+01  1.55997767350218E+00
(PID.TID 0000.0001)  ploadbar=  1.01071717947660E+05
 cg2d: Sum(rhs),rhsMax =  -4.33179525109095E+01  1.55838650607890E+00
(PID.TID 0000.0001)  ploadbar=  1.01071741717186E+05
 cg2d: Sum(rhs),rhsMax =  -4.33705919543067E+01  1.55589969419172E+00
(PID.TID 0000.0001)  ploadbar=  1.01071765486713E+05
 cg2d: Sum(rhs),rhsMax =  -4.34647133231549E+01  1.55196519150530E+00
(PID.TID 0000.0001)  ploadbar=  1.01071777061769E+05
 cg2d: Sum(rhs),rhsMax =  -4.35729578010519E+01  1.54756137902727E+00
(PID.TID 0000.0001)  ploadbar=  1.01071788636825E+05
 cg2d: Sum(rhs),rhsMax =  -4.36933066192968E+01  1.54275566838228E+00
(PID.TID 0000.0001)  ploadbar=  1.01071800211882E+05
 cg2d: Sum(rhs),rhsMax =  -4.38270110812281E+01  1.53750628927890E+00
(PID.TID 0000.0001)  ploadbar=  1.01071811786938E+05
 cg2d: Sum(rhs),rhsMax =  -4.39603487871985E+01  1.53229291817226E+00
(PID.TID 0000.0001)  ploadbar=  1.01071823361994E+05
 cg2d: Sum(rhs),rhsMax =  -4.41019264037564E+01  1.52680920988956E+00
(PID.TID 0000.0001)  ploadbar=  1.01071834937050E+05
 cg2d: Sum(rhs),rhsMax =  -4.42514701307662E+01  1.52102801626834E+00
(PID.TID 0000.0001)  ploadbar=  1.01071747452683E+05
 cg2d: Sum(rhs),rhsMax =  -4.44089074031377E+01  1.51494831099952E+00
(PID.TID 0000.0001)  ploadbar=  1.01071659968316E+05
 cg2d: Sum(rhs),rhsMax =  -4.45740285678547E+01  1.50857500863519E+00
(PID.TID 0000.0001)  ploadbar=  1.01071572483949E+05
 cg2d: Sum(rhs),rhsMax =  -4.47467288070813E+01  1.50190195784976E+00
(PID.TID 0000.0001)  ploadbar=  1.01071484999582E+05
 cg2d: Sum(rhs),rhsMax =  -4.49271234923284E+01  1.49492759115076E+00
(PID.TID 0000.0001)  ploadbar=  1.01071397515215E+05
 cg2d: Sum(rhs),rhsMax =  -4.51140259450308E+01  1.48770178277572E+00
(PID.TID 0000.0001)  ploadbar=  1.01071310030848E+05
 cg2d: Sum(rhs),rhsMax =  -4.53020509587640E+01  1.48061742458031E+00
(PID.TID 0000.0001)  ploadbar=  1.01070367543600E+05
 cg2d: Sum(rhs),rhsMax =  -4.54970813946998E+01  1.47348032875283E+00
(PID.TID 0000.0001)  ploadbar=  1.01069425056353E+05
 cg2d: Sum(rhs),rhsMax =  -4.57002010215963E+01  1.46625495960070E+00
(PID.TID 0000.0001)  ploadbar=  1.01068482569105E+05
 cg2d: Sum(rhs),rhsMax =  -4.59067646482326E+01  1.45908578406265E+00
(PID.TID 0000.0001)  ploadbar=  1.01067540081858E+05
 cg2d: Sum(rhs),rhsMax =  -4.46478387631831E+01  1.49973284789545E+00
(PID.TID 0000.0001)  ploadbar=  1.01066597594610E+05
 cg2d: Sum(rhs),rhsMax =  -4.33313198324394E+01  1.54487831178173E+00
(PID.TID 0000.0001)  ploadbar=  1.01065655107363E+05
 cg2d: Sum(rhs),rhsMax =  -4.21653771199547E+01  1.58713761942779E+00
(PID.TID 0000.0001)  ploadbar=  1.01064799105323E+05
 cg2d: Sum(rhs),rhsMax =  -4.11318784535286E+01  1.62650667891045E+00
(PID.TID 0000.0001)  ploadbar=  1.01063943103282E+05
 cg2d: Sum(rhs),rhsMax =  -4.02400064809970E+01  1.66198372202718E+00
(PID.TID 0000.0001)  ploadbar=  1.01063087101242E+05
 cg2d: Sum(rhs),rhsMax =  -3.94984304077055E+01  1.69254902989664E+00
(PID.TID 0000.0001)  ploadbar=  1.01062231099201E+05
 cg2d: Sum(rhs),rhsMax =  -3.88737059364617E+01  1.71904037394017E+00
(PID.TID 0000.0001)  ploadbar=  1.01061375097161E+05
 cg2d: Sum(rhs),rhsMax =  -3.83778675192135E+01  1.74046622642272E+00
(PID.TID 0000.0001)  ploadbar=  1.01060519095121E+05
 cg2d: Sum(rhs),rhsMax =  -3.81403935102886E+01  1.75058797163180E+00
(PID.TID 0000.0001)  ploadbar=  1.01059895293362E+05
 cg2d: Sum(rhs),rhsMax =  -3.80708737654242E+01  1.75313923286523E+00
(PID.TID 0000.0001)  ploadbar=  1.01059271491602E+05
 cg2d: Sum(rhs),rhsMax =  -3.81409617341688E+01  1.74933498848285E+00
(PID.TID 0000.0001)  ploadbar=  1.01058647689843E+05
 cg2d: Sum(rhs),rhsMax =  -3.83107387671008E+01  1.74105637790710E+00
(PID.TID 0000.0001)  ploadbar=  1.01058023888084E+05
 cg2d: Sum(rhs),rhsMax =  -3.85452113570929E+01  1.72999351758259E+00
(PID.TID 0000.0001)  ploadbar=  1.01057400086325E+05
 cg2d: Sum(rhs),rhsMax =  -3.88095491296754E+01  1.71778791768453E+00
(PID.TID 0000.0001)  ploadbar=  1.01056776284566E+05
 cg2d: Sum(rhs),rhsMax =  -3.89368710490927E+01  1.71169709506523E+00
(PID.TID 0000.0001)  ploadbar=  1.01056694400296E+05
 cg2d: Sum(rhs),rhsMax =  -3.90474894556214E+01  1.70632416525833E+00
(PID.TID 0000.0001)  ploadbar=  1.01056612516026E+05
 cg2d: Sum(rhs),rhsMax =  -3.91335015086816E+01  1.70199182644921E+00
(PID.TID 0000.0001)  ploadbar=  1.01056530631756E+05
 cg2d: Sum(rhs),rhsMax =  -3.91962618506665E+01  1.69862499746668E+00
(PID.TID 0000.0001)  ploadbar=  1.01056448747487E+05
 cg2d: Sum(rhs),rhsMax =  -3.92372609095175E+01  1.69614674735498E+00
(PID.TID 0000.0001)  ploadbar=  1.01056366863217E+05
 cg2d: Sum(rhs),rhsMax =  -3.92605245943623E+01  1.69437336447423E+00
(PID.TID 0000.0001)  ploadbar=  1.01056284978947E+05
 cg2d: Sum(rhs),rhsMax =  -3.91831588870747E+01  1.69707829772020E+00
(PID.TID 0000.0001)  ploadbar=  1.01055968081138E+05
 cg2d: Sum(rhs),rhsMax =  -3.91048485137904E+01  1.69996172082028E+00
(PID.TID 0000.0001)  ploadbar=  1.01055651183329E+05
 cg2d: Sum(rhs),rhsMax =  -3.90249550491228E+01  1.70305230551216E+00
(PID.TID 0000.0001)  ploadbar=  1.01055334285519E+05
 cg2d: Sum(rhs),rhsMax =  -3.89487233154634E+01  1.70611464754449E+00
(PID.TID 0000.0001)  ploadbar=  1.01055017387710E+05
 cg2d: Sum(rhs),rhsMax =  -3.88748579074388E+01  1.70919117331574E+00
(PID.TID 0000.0001)  ploadbar=  1.01054700489901E+05
 cg2d: Sum(rhs),rhsMax =  -3.88040095117958E+01  1.71224461358998E+00
(PID.TID 0000.0001)  ploadbar=  1.01054383592092E+05
 cg2d: Sum(rhs),rhsMax =  -3.88344304586939E+01  1.71080373940495E+00
(PID.TID 0000.0001)  ploadbar=  1.01054798138970E+05
 cg2d: Sum(rhs),rhsMax =  -3.88708075407597E+01  1.70906226591593E+00
(PID.TID 0000.0001)  ploadbar=  1.01055212685849E+05
 cg2d: Sum(rhs),rhsMax =  -3.89036242532448E+01  1.70743281801900E+00
(PID.TID 0000.0001)  ploadbar=  1.01055627232728E+05
 cg2d: Sum(rhs),rhsMax =  -3.89359614040248E+01  1.70577249278296E+00
(PID.TID 0000.0001)  ploadbar=  1.01056041779606E+05
 cg2d: Sum(rhs),rhsMax =  -3.89685411507366E+01  1.70404785724511E+00
(PID.TID 0000.0001)  ploadbar=  1.01056456326485E+05
 cg2d: Sum(rhs),rhsMax =  -3.90004271138819E+01  1.70229603504023E+00
(PID.TID 0000.0001)  ploadbar=  1.01056870873363E+05
 cg2d: Sum(rhs),rhsMax =  -3.90112158180358E+01  1.70151350097039E+00
(PID.TID 0000.0001)  ploadbar=  1.01057985636577E+05
 cg2d: Sum(rhs),rhsMax =  -3.90227476802546E+01  1.70073942913599E+00
(PID.TID 0000.0001)  ploadbar=  1.01059100399791E+05
 cg2d: Sum(rhs),rhsMax =  -3.90362646343854E+01  1.69991257034510E+00
(PID.TID 0000.0001)  ploadbar=  1.01060215163006E+05
 cg2d: Sum(rhs),rhsMax =  -3.90502732902311E+01  1.69909351601581E+00
(PID.TID 0000.0001)  ploadbar=  1.01061329926220E+05
 cg2d: Sum(rhs),rhsMax =  -3.90655403180074E+01  1.69824312898683E+00
(PID.TID 0000.0001)  ploadbar=  1.01062444689434E+05
 cg2d: Sum(rhs),rhsMax =  -3.90813589317550E+01  1.69738838380119E+00
(PID.TID 0000.0001)  ploadbar=  1.01063559452648E+05
 cg2d: Sum(rhs),rhsMax =  -3.90876720564744E+01  1.69687142953851E+00
(PID.TID 0000.0001)  ploadbar=  1.01064955965281E+05
 cg2d: Sum(rhs),rhsMax =  -3.90996134097368E+01  1.69603056827711E+00
(PID.TID 0000.0001)  ploadbar=  1.01066352477913E+05
 cg2d: Sum(rhs),rhsMax =  -3.91085029166255E+01  1.69524031590183E+00
(PID.TID 0000.0001)  ploadbar=  1.01067748990546E+05
 cg2d: Sum(rhs),rhsMax =  -3.91176259812860E+01  1.69435554506234E+00
(PID.TID 0000.0001)  ploadbar=  1.01069145503179E+05
 cg2d: Sum(rhs),rhsMax =  -3.91312720240218E+01  1.69318707884739E+00
(PID.TID 0000.0001)  ploadbar=  1.01070542015811E+05
 cg2d: Sum(rhs),rhsMax =  -3.91468736589890E+01  1.69184412969999E+00
(PID.TID 0000.0001)  ploadbar=  1.01071938528444E+05
 cg2d: Sum(rhs),rhsMax =  -3.91888396616573E+01  1.68949577047982E+00
(PID.TID 0000.0001)  ploadbar=  1.01074157361816E+05
 cg2d: Sum(rhs),rhsMax =  -3.92302833430396E+01  1.68730394528885E+00
(PID.TID 0000.0001)  ploadbar=  1.01076376195187E+05
 cg2d: Sum(rhs),rhsMax =  -3.92787293851325E+01  1.68494270411313E+00
(PID.TID 0000.0001)  ploadbar=  1.01078595028559E+05
 cg2d: Sum(rhs),rhsMax =  -3.93300557528968E+01  1.68258089667851E+00
(PID.TID 0000.0001)  ploadbar=  1.01080813861930E+05
 cg2d: Sum(rhs),rhsMax =  -3.93834971985216E+01  1.68023962373029E+00
(PID.TID 0000.0001)  ploadbar=  1.01083032695302E+05
 cg2d: Sum(rhs),rhsMax =  -3.94385925894900E+01  1.67792941071706E+00
(PID.TID 0000.0001)  ploadbar=  1.01085251528673E+05
 cg2d: Sum(rhs),rhsMax =  -3.94735023872270E+01  1.67644213336916E+00
(PID.TID 0000.0001)  ploadbar=  1.01087341469830E+05
 cg2d: Sum(rhs),rhsMax =  -3.95048685320477E+01  1.67505191617629E+00
(PID.TID 0000.0001)  ploadbar=  1.01089431410987E+05
 cg2d: Sum(rhs),rhsMax =  -3.95351823807962E+01  1.67364590252892E+00
(PID.TID 0000.0001)  ploadbar=  1.01091521352144E+05
 cg2d: Sum(rhs),rhsMax =  -3.95613749235164E+01  1.67234993913694E+00
(PID.TID 0000.0001)  ploadbar=  1.01093611293301E+05
 cg2d: Sum(rhs),rhsMax =  -3.95835255464827E+01  1.67115403334765E+00
(PID.TID 0000.0001)  ploadbar=  1.01095701234458E+05
 cg2d: Sum(rhs),rhsMax =  -3.96021465932486E+01  1.67003239799182E+00
(PID.TID 0000.0001)  ploadbar=  1.01097791175615E+05
 cg2d: Sum(rhs),rhsMax =  -3.96190187539092E+01  1.66902857904964E+00
(PID.TID 0000.0001)  ploadbar=  1.01099971274169E+05
 cg2d: Sum(rhs),rhsMax =  -3.96316478402967E+01  1.66824380915058E+00
(PID.TID 0000.0001)  ploadbar=  1.01102151372723E+05
 cg2d: Sum(rhs),rhsMax =  -3.96424885745677E+01  1.66756290773887E+00
(PID.TID 0000.0001)  ploadbar=  1.01104331471277E+05
 cg2d: Sum(rhs),rhsMax =  -3.96527041029507E+01  1.66692858043061E+00
(PID.TID 0000.0001)  ploadbar=  1.01106511569831E+05
 cg2d: Sum(rhs),rhsMax =  -3.96618275985442E+01  1.66635372573970E+00
(PID.TID 0000.0001)  ploadbar=  1.01108691668385E+05
 cg2d: Sum(rhs),rhsMax =  -3.96698687143165E+01  1.66582994996322E+00
(PID.TID 0000.0001)  ploadbar=  1.01110871766939E+05
 cg2d: Sum(rhs),rhsMax =  -3.96844863957079E+01  1.66495264735054E+00
(PID.TID 0000.0001)  ploadbar=  1.01111685215701E+05
 cg2d: Sum(rhs),rhsMax =  -3.96919225862072E+01  1.66429137122614E+00
(PID.TID 0000.0001)  ploadbar=  1.01112498664463E+05
 cg2d: Sum(rhs),rhsMax =  -3.96935083246800E+01  1.66378794691185E+00
(PID.TID 0000.0001)  ploadbar=  1.01113312113225E+05
 cg2d: Sum(rhs),rhsMax =  -3.96894616956166E+01  1.66342863127454E+00
(PID.TID 0000.0001)  ploadbar=  1.01114125561987E+05
 cg2d: Sum(rhs),rhsMax =  -3.96790642128704E+01  1.66324225666856E+00
(PID.TID 0000.0001)  ploadbar=  1.01114939010749E+05
 cg2d: Sum(rhs),rhsMax =  -3.96623093257164E+01  1.66322573481528E+00
(PID.TID 0000.0001)  ploadbar=  1.01115752459511E+05
 cg2d: Sum(rhs),rhsMax =  -3.96318803184603E+01  1.66387874350043E+00
(PID.TID 0000.0001)  ploadbar=  1.01116741777957E+05
 cg2d: Sum(rhs),rhsMax =  -3.95920831661580E+01  1.66501381727405E+00
(PID.TID 0000.0001)  ploadbar=  1.01117731096404E+05
 cg2d: Sum(rhs),rhsMax =  -3.95507306898424E+01  1.66629791176995E+00
(PID.TID 0000.0001)  ploadbar=  1.01118720414850E+05
 cg2d: Sum(rhs),rhsMax =  -3.95072988222264E+01  1.66774817909505E+00
(PID.TID 0000.0001)  ploadbar=  1.01119709733296E+05
 cg2d: Sum(rhs),rhsMax =  -3.94602445703170E+01  1.66942232344319E+00
(PID.TID 0000.0001)  ploadbar=  1.01120699051743E+05
 cg2d: Sum(rhs),rhsMax =  -3.94080715473726E+01  1.67137047781113E+00
(PID.TID 0000.0001)  ploadbar=  1.01121688370189E+05
 cg2d: Sum(rhs),rhsMax =  -3.93410496577323E+01  1.67392192860053E+00
(PID.TID 0000.0001)  ploadbar=  1.01121819752288E+05
 cg2d: Sum(rhs),rhsMax =  -3.92664509719954E+01  1.67676734482902E+00
(PID.TID 0000.0001)  ploadbar=  1.01121951134387E+05
 cg2d: Sum(rhs),rhsMax =  -3.91861175311861E+01  1.67982196762660E+00
(PID.TID 0000.0001)  ploadbar=  1.01122082516486E+05
 cg2d: Sum(rhs),rhsMax =  -3.91005634747521E+01  1.68305451325638E+00
(PID.TID 0000.0001)  ploadbar=  1.01122213898585E+05
 cg2d: Sum(rhs),rhsMax =  -3.90095101173195E+01  1.68647087403472E+00
(PID.TID 0000.0001)  ploadbar=  1.01122345280684E+05
 cg2d: Sum(rhs),rhsMax =  -3.89133868230412E+01  1.69004200632444E+00
(PID.TID 0000.0001)  ploadbar=  1.01122476662783E+05
 cg2d: Sum(rhs),rhsMax =  -3.88503095941896E+01  1.69221989532801E+00
(PID.TID 0000.0001)  ploadbar=  1.01121801712918E+05
 cg2d: Sum(rhs),rhsMax =  -3.87837124734199E+01  1.69457803727502E+00
(PID.TID 0000.0001)  ploadbar=  1.01121126763053E+05
 cg2d: Sum(rhs),rhsMax =  -3.87177461745324E+01  1.69692570393891E+00
(PID.TID 0000.0001)  ploadbar=  1.01120451813188E+05
 cg2d: Sum(rhs),rhsMax =  -3.86527220825162E+01  1.69923278458664E+00
(PID.TID 0000.0001)  ploadbar=  1.01119776863323E+05
 cg2d: Sum(rhs),rhsMax =  -3.85907476721402E+01  1.70138792980811E+00
(PID.TID 0000.0001)  ploadbar=  1.01119101913459E+05
 cg2d: Sum(rhs),rhsMax =  -3.85340939020845E+01  1.70327672241158E+00
(PID.TID 0000.0001)  ploadbar=  1.01118426963594E+05
 cg2d: Sum(rhs),rhsMax =  -3.84826184045560E+01  1.70491293677795E+00
(PID.TID 0000.0001)  ploadbar=  1.01118367182500E+05
 cg2d: Sum(rhs),rhsMax =  -3.84536489853615E+01  1.70552233261352E+00
(PID.TID 0000.0001)  ploadbar=  1.01118307401407E+05
 cg2d: Sum(rhs),rhsMax =  -3.84387333500767E+01  1.70547402213366E+00
(PID.TID 0000.0001)  ploadbar=  1.01118247620313E+05
 cg2d: Sum(rhs),rhsMax =  -3.84393671563306E+01  1.70469951657586E+00
(PID.TID 0000.0001)  ploadbar=  1.01118187839219E+05
 cg2d: Sum(rhs),rhsMax =  -3.84545017823005E+01  1.70324366272707E+00
(PID.TID 0000.0001)  ploadbar=  1.01118128058126E+05
 cg2d: Sum(rhs),rhsMax =  -3.84791432249871E+01  1.70132524284040E+00
(PID.TID 0000.0001)  ploadbar=  1.01118068277032E+05
 cg2d: Sum(rhs),rhsMax =  -3.84819658241760E+01  1.70044978663965E+00
(PID.TID 0000.0001)  ploadbar=  1.01118148900964E+05
 cg2d: Sum(rhs),rhsMax =  -3.84807114023995E+01  1.69982095182031E+00
(PID.TID 0000.0001)  ploadbar=  1.01118229524896E+05
 cg2d: Sum(rhs),rhsMax =  -3.84693054666128E+01  1.69970416332195E+00
(PID.TID 0000.0001)  ploadbar=  1.01118310148828E+05
 cg2d: Sum(rhs),rhsMax =  -3.84514507646123E+01  1.69993156393377E+00
(PID.TID 0000.0001)  ploadbar=  1.01118390772761E+05
 cg2d: Sum(rhs),rhsMax =  -3.84328168997988E+01  1.70024489183092E+00
(PID.TID 0000.0001)  ploadbar=  1.01118471396693E+05
 cg2d: Sum(rhs),rhsMax =  -3.84177659319765E+01  1.70044139497016E+00
(PID.TID 0000.0001)  ploadbar=  1.01118552020625E+05
 cg2d: Sum(rhs),rhsMax =  -3.84137486201289E+01  1.70016549167459E+00
(PID.TID 0000.0001)  ploadbar=  1.01117786163803E+05
 cg2d: Sum(rhs),rhsMax =  -3.84136730416098E+01  1.69972300748218E+00
(PID.TID 0000.0001)  ploadbar=  1.01117020306982E+05
 cg2d: Sum(rhs),rhsMax =  -3.84157451974983E+01  1.69917811512355E+00
(PID.TID 0000.0001)  ploadbar=  1.01116254450161E+05
 cg2d: Sum(rhs),rhsMax =  -3.84209186682128E+01  1.69848053472666E+00
(PID.TID 0000.0001)  ploadbar=  1.01115488593339E+05
 cg2d: Sum(rhs),rhsMax =  -3.84273563656450E+01  1.69769882783093E+00
(PID.TID 0000.0001)  ploadbar=  1.01114722736518E+05
 cg2d: Sum(rhs),rhsMax =  -3.84335574231737E+01  1.69688925231077E+00
(PID.TID 0000.0001)  ploadbar=  1.01113956879696E+05
 cg2d: Sum(rhs),rhsMax =  -3.84095141201635E+01  1.69750932333742E+00
(PID.TID 0000.0001)  ploadbar=  1.01113547689723E+05
 cg2d: Sum(rhs),rhsMax =  -3.83885999278641E+01  1.69807826553002E+00
(PID.TID 0000.0001)  ploadbar=  1.01113138499750E+05
 cg2d: Sum(rhs),rhsMax =  -3.83701547512899E+01  1.69861407355325E+00
(PID.TID 0000.0001)  ploadbar=  1.01112729309777E+05
 cg2d: Sum(rhs),rhsMax =  -3.83504192459641E+01  1.69926688215191E+00
(PID.TID 0000.0001)  ploadbar=  1.01112320119804E+05
 cg2d: Sum(rhs),rhsMax =  -3.83267844681339E+01  1.70014221333103E+00
(PID.TID 0000.0001)  ploadbar=  1.01111910929832E+05
 cg2d: Sum(rhs),rhsMax =  -3.83006589185297E+01  1.70116339641341E+00
(PID.TID 0000.0001)  ploadbar=  1.01111501739859E+05
 cg2d: Sum(rhs),rhsMax =  -3.82886829709953E+01  1.70151278811374E+00
(PID.TID 0000.0001)  ploadbar=  1.01111018444716E+05
 cg2d: Sum(rhs),rhsMax =  -3.82719224741380E+01  1.70202916862125E+00
(PID.TID 0000.0001)  ploadbar=  1.01110535149573E+05
 cg2d: Sum(rhs),rhsMax =  -3.82570064094195E+01  1.70241534864249E+00
(PID.TID 0000.0001)  ploadbar=  1.01110051854430E+05
 cg2d: Sum(rhs),rhsMax =  -3.82457740419610E+01  1.70258740550272E+00
(PID.TID 0000.0001)  ploadbar=  1.01109568559287E+05
 cg2d: Sum(rhs),rhsMax =  -3.82384046801890E+01  1.70253895656021E+00
(PID.TID 0000.0001)  ploadbar=  1.01109085264144E+05
 cg2d: Sum(rhs),rhsMax =  -3.82351062783571E+01  1.70225911681786E+00
(PID.TID 0000.0001)  ploadbar=  1.01108601969001E+05
 cg2d: Sum(rhs),rhsMax =  -3.82371635919182E+01  1.70183827804088E+00
(PID.TID 0000.0001)  ploadbar=  1.01107578744919E+05
 cg2d: Sum(rhs),rhsMax =  -3.82436801709364E+01  1.70130511056078E+00
(PID.TID 0000.0001)  ploadbar=  1.01106555520836E+05
 cg2d: Sum(rhs),rhsMax =  -3.82572455108870E+01  1.70053959303230E+00
(PID.TID 0000.0001)  ploadbar=  1.01105532296754E+05
 cg2d: Sum(rhs),rhsMax =  -3.82782209177316E+01  1.69952359726382E+00
(PID.TID 0000.0001)  ploadbar=  1.01104509072672E+05
 cg2d: Sum(rhs),rhsMax =  -3.83091534016469E+01  1.69814358266753E+00
(PID.TID 0000.0001)  ploadbar=  1.01103485848590E+05
 cg2d: Sum(rhs),rhsMax =  -3.83528885094651E+01  1.69626453176676E+00
(PID.TID 0000.0001)  ploadbar=  1.01102462624508E+05
 cg2d: Sum(rhs),rhsMax =  -3.84166867926375E+01  1.69346689828934E+00
(PID.TID 0000.0001)  ploadbar=  1.01102334025642E+05
 cg2d: Sum(rhs),rhsMax =  -3.84974936366469E+01  1.68988924777017E+00
(PID.TID 0000.0001)  ploadbar=  1.01102205426777E+05
 cg2d: Sum(rhs),rhsMax =  -3.85925260776377E+01  1.68565659856565E+00
(PID.TID 0000.0001)  ploadbar=  1.01102076827911E+05
 cg2d: Sum(rhs),rhsMax =  -3.87063919193186E+01  1.68057264306321E+00
(PID.TID 0000.0001)  ploadbar=  1.01101948229046E+05
 cg2d: Sum(rhs),rhsMax =  -3.88443750119527E+01  1.67442089920296E+00
(PID.TID 0000.0001)  ploadbar=  1.01101819630180E+05
 cg2d: Sum(rhs),rhsMax =  -3.90089182547501E+01  1.66711778658502E+00
(PID.TID 0000.0001)  ploadbar=  1.01101691031315E+05
 cg2d: Sum(rhs),rhsMax =  -3.92071785728705E+01  1.65843633406452E+00
(PID.TID 0000.0001)  ploadbar=  1.01101555925063E+05
 cg2d: Sum(rhs),rhsMax =  -3.94318031944603E+01  1.64872577363152E+00
(PID.TID 0000.0001)  ploadbar=  1.01101420818810E+05
 cg2d: Sum(rhs),rhsMax =  -3.96760182488104E+01  1.63829750770300E+00
(PID.TID 0000.0001)  ploadbar=  1.01101285712558E+05
 cg2d: Sum(rhs),rhsMax =  -3.99363163621302E+01  1.62731354762356E+00
(PID.TID 0000.0001)  ploadbar=  1.01101150606306E+05
 cg2d: Sum(rhs),rhsMax =  -4.02107404162229E+01  1.61586469185614E+00
(PID.TID 0000.0001)  ploadbar=  1.01101015500054E+05
 cg2d: Sum(rhs),rhsMax =  -4.04949389350763E+01  1.60412770926198E+00
(PID.TID 0000.0001)  ploadbar=  1.01100880393801E+05
 cg2d: Sum(rhs),rhsMax =  -4.07723545732452E+01  1.59275662895419E+00
(PID.TID 0000.0001)  ploadbar=  1.01100123687476E+05
 cg2d: Sum(rhs),rhsMax =  -4.10428917421477E+01  1.58174264985772E+00
(PID.TID 0000.0001)  ploadbar=  1.01099366981150E+05
 cg2d: Sum(rhs),rhsMax =  -4.13080896668216E+01  1.57101247803831E+00
(PID.TID 0000.0001)  ploadbar=  1.01098610274825E+05
 cg2d: Sum(rhs),rhsMax =  -4.15356809410961E+01  1.56176523321150E+00
(PID.TID 0000.0001)  ploadbar=  1.01097853568499E+05
 cg2d: Sum(rhs),rhsMax =  -4.16839964682885E+01  1.55550634193412E+00
(PID.TID 0000.0001)  ploadbar=  1.01097096862174E+05
 cg2d: Sum(rhs),rhsMax =  -4.17733810209429E+01  1.55141047257035E+00
(PID.TID 0000.0001)  ploadbar=  1.01096340155848E+05
 cg2d: Sum(rhs),rhsMax =  -4.18057166459910E+01  1.54954797975200E+00
(PID.TID 0000.0001)  ploadbar=  1.01095142609924E+05
 cg2d: Sum(rhs),rhsMax =  -4.16731945833236E+01  1.55390827022969E+00
(PID.TID 0000.0001)  ploadbar=  1.01093945064000E+05
 cg2d: Sum(rhs),rhsMax =  -4.16801723784491E+01  1.55317728300652E+00
(PID.TID 0000.0001)  ploadbar=  1.01092747518076E+05
 cg2d: Sum(rhs),rhsMax =  -4.17684040832293E+01  1.54951858258923E+00
(PID.TID 0000.0001)  ploadbar=  1.01091549972151E+05
 cg2d: Sum(rhs),rhsMax =  -4.16042828345785E+01  1.55533648634024E+00
(PID.TID 0000.0001)  ploadbar=  1.01090352426227E+05
 cg2d: Sum(rhs),rhsMax =  -4.11920612520922E+01  1.57067585834578E+00
(PID.TID 0000.0001)  ploadbar=  1.01089154880303E+05
 cg2d: Sum(rhs),rhsMax =  -4.07569577619668E+01  1.58724894488355E+00
(PID.TID 0000.0001)  ploadbar=  1.01089068997920E+05
 cg2d: Sum(rhs),rhsMax =  -4.03260665910680E+01  1.60403979907952E+00
(PID.TID 0000.0001)  ploadbar=  1.01088983115538E+05
 cg2d: Sum(rhs),rhsMax =  -3.99141732746043E+01  1.62043903307075E+00
(PID.TID 0000.0001)  ploadbar=  1.01088897233155E+05
 cg2d: Sum(rhs),rhsMax =  -3.95252280311673E+01  1.63623280255713E+00
(PID.TID 0000.0001)  ploadbar=  1.01088811350773E+05
 cg2d: Sum(rhs),rhsMax =  -3.91607353777374E+01  1.65130339370333E+00
(PID.TID 0000.0001)  ploadbar=  1.01088725468390E+05
 cg2d: Sum(rhs),rhsMax =  -3.88194660775299E+01  1.66564738555067E+00
(PID.TID 0000.0001)  ploadbar=  1.01088639586008E+05
 cg2d: Sum(rhs),rhsMax =  -3.85139450407258E+01  1.67871060596743E+00
(PID.TID 0000.0001)  ploadbar=  1.01088964295826E+05
 cg2d: Sum(rhs),rhsMax =  -3.82277101260291E+01  1.69114884712154E+00
(PID.TID 0000.0001)  ploadbar=  1.01089289005644E+05
 cg2d: Sum(rhs),rhsMax =  -3.79553141041581E+01  1.70316209855388E+00
(PID.TID 0000.0001)  ploadbar=  1.01089613715463E+05
 cg2d: Sum(rhs),rhsMax =  -3.76967245558022E+01  1.71472297318498E+00
(PID.TID 0000.0001)  ploadbar=  1.01089938425281E+05
 cg2d: Sum(rhs),rhsMax =  -3.74504082343069E+01  1.72586949663490E+00
(PID.TID 0000.0001)  ploadbar=  1.01090263135099E+05
 cg2d: Sum(rhs),rhsMax =  -3.72166637539284E+01  1.73655897158795E+00
(PID.TID 0000.0001)  ploadbar=  1.01090587844917E+05
 cg2d: Sum(rhs),rhsMax =  -3.70078489700846E+01  1.74618889041871E+00
(PID.TID 0000.0001)  ploadbar=  1.01091423636497E+05
 cg2d: Sum(rhs),rhsMax =  -3.68137304384265E+01  1.75520643304142E+00
(PID.TID 0000.0001)  ploadbar=  1.01092259428076E+05
 cg2d: Sum(rhs),rhsMax =  -3.66396988424528E+01  1.76332817613680E+00
(PID.TID 0000.0001)  ploadbar=  1.01093095219655E+05
 cg2d: Sum(rhs),rhsMax =  -3.64841343392274E+01  1.77060559826619E+00
(PID.TID 0000.0001)  ploadbar=  1.01093931011234E+05
 cg2d: Sum(rhs),rhsMax =  -3.63452309319965E+01  1.77710684000689E+00
(PID.TID 0000.0001)  ploadbar=  1.01094766802813E+05
 cg2d: Sum(rhs),rhsMax =  -3.62217893130127E+01  1.78287076619451E+00
(PID.TID 0000.0001)  ploadbar=  1.01095602594392E+05
 cg2d: Sum(rhs),rhsMax =  -3.61026124705773E+01  1.78854450062095E+00
(PID.TID 0000.0001)  ploadbar=  1.01096222823048E+05
 cg2d: Sum(rhs),rhsMax =  -3.59910691821715E+01  1.79395294897159E+00
(PID.TID 0000.0001)  ploadbar=  1.01096843051704E+05
 cg2d: Sum(rhs),rhsMax =  -3.58840291252782E+01  1.79924144216030E+00
(PID.TID 0000.0001)  ploadbar=  1.01097463280360E+05
 cg2d: Sum(rhs),rhsMax =  -3.57773622373588E+01  1.80460917234287E+00
(PID.TID 0000.0001)  ploadbar=  1.01098083509016E+05
 cg2d: Sum(rhs),rhsMax =  -3.56694334058855E+01  1.81012784570061E+00
(PID.TID 0000.0001)  ploadbar=  1.01098703737672E+05
 cg2d: Sum(rhs),rhsMax =  -3.55575527348246E+01  1.81591907150126E+00
(PID.TID 0000.0001)  ploadbar=  1.01099323966328E+05
 cg2d: Sum(rhs),rhsMax =  -3.54559997026108E+01  1.82121634025994E+00
(PID.TID 0000.0001)  ploadbar=  1.01100348389267E+05
 cg2d: Sum(rhs),rhsMax =  -3.53485174573524E+01  1.82682747967816E+00
(PID.TID 0000.0001)  ploadbar=  1.01101372812206E+05
 cg2d: Sum(rhs),rhsMax =  -3.52287434418414E+01  1.83306565935617E+00
(PID.TID 0000.0001)  ploadbar=  1.01102397235146E+05
 cg2d: Sum(rhs),rhsMax =  -3.50905896603028E+01  1.84025304651433E+00
(PID.TID 0000.0001)  ploadbar=  1.01103421658085E+05
 cg2d: Sum(rhs),rhsMax =  -3.49299193148945E+01  1.84862775352354E+00
(PID.TID 0000.0001)  ploadbar=  1.01104446081025E+05
 cg2d: Sum(rhs),rhsMax =  -3.47364587584644E+01  1.85876494021507E+00
(PID.TID 0000.0001)  ploadbar=  1.01105470503964E+05
 cg2d: Sum(rhs),rhsMax =  -3.45227383378027E+01  1.87011823642701E+00
(PID.TID 0000.0001)  ploadbar=  1.01106141543152E+05
 cg2d: Sum(rhs),rhsMax =  -3.42976489836654E+01  1.88223796302272E+00
(PID.TID 0000.0001)  ploadbar=  1.01106812582340E+05
 cg2d: Sum(rhs),rhsMax =  -3.40691032517183E+01  1.89470143816139E+00
(PID.TID 0000.0001)  ploadbar=  1.01107483621528E+05
 cg2d: Sum(rhs),rhsMax =  -3.38418146351388E+01  1.90724116345866E+00
(PID.TID 0000.0001)  ploadbar=  1.01108154660716E+05
 cg2d: Sum(rhs),rhsMax =  -3.36181660125550E+01  1.91971042261698E+00
(PID.TID 0000.0001)  ploadbar=  1.01108825699904E+05
 cg2d: Sum(rhs),rhsMax =  -3.33985077597292E+01  1.93206912140399E+00
(PID.TID 0000.0001)  ploadbar=  1.01109496739092E+05
 cg2d: Sum(rhs),rhsMax =  -3.31904236289376E+01  1.94387628405407E+00
(PID.TID 0000.0001)  ploadbar=  1.01111659513204E+05
 cg2d: Sum(rhs),rhsMax =  -3.29940294515795E+01  1.95509492317534E+00
(PID.TID 0000.0001)  ploadbar=  1.01113822287317E+05
 cg2d: Sum(rhs),rhsMax =  -3.28055815026153E+01  1.96592284736086E+00
(PID.TID 0000.0001)  ploadbar=  1.01115985061429E+05
 cg2d: Sum(rhs),rhsMax =  -3.26264368873925E+01  1.97625737577903E+00
(PID.TID 0000.0001)  ploadbar=  1.01118147835542E+05
 cg2d: Sum(rhs),rhsMax =  -3.24582756534226E+01  1.98597778630233E+00
(PID.TID 0000.0001)  ploadbar=  1.01120310609654E+05
 cg2d: Sum(rhs),rhsMax =  -3.22992725530074E+01  1.99517654490828E+00
(PID.TID 0000.0001)  ploadbar=  1.01122473383767E+05
 cg2d: Sum(rhs),rhsMax =  -3.21470722294131E+01  2.00415273676810E+00
(PID.TID 0000.0001)  ploadbar=  1.01122488344493E+05
 cg2d: Sum(rhs),rhsMax =  -3.20087189644463E+01  2.01244886123897E+00
(PID.TID 0000.0001)  ploadbar=  1.01122503305219E+05
 cg2d: Sum(rhs),rhsMax =  -3.18793780278740E+01  2.02034575865246E+00
(PID.TID 0000.0001)  ploadbar=  1.01122518265945E+05
 cg2d: Sum(rhs),rhsMax =  -3.17584954091134E+01  2.02786362196731E+00
(PID.TID 0000.0001)  ploadbar=  1.01122533226671E+05
 cg2d: Sum(rhs),rhsMax =  -3.16465310457328E+01  2.03495315048014E+00
(PID.TID 0000.0001)  ploadbar=  1.01122548187398E+05
 cg2d: Sum(rhs),rhsMax =  -3.15431980101411E+01  2.04160667378736E+00
(PID.TID 0000.0001)  ploadbar=  1.01122563148124E+05
 cg2d: Sum(rhs),rhsMax =  -3.14541180433838E+01  2.04738467737326E+00
(PID.TID 0000.0001)  ploadbar=  1.01123765120838E+05
 cg2d: Sum(rhs),rhsMax =  -3.13772968717833E+01  2.05237947764188E+00
(PID.TID 0000.0001)  ploadbar=  1.01124967093552E+05
 cg2d: Sum(rhs),rhsMax =  -3.13085211366839E+01  2.05684688762524E+00
(PID.TID 0000.0001)  ploadbar=  1.01126169066267E+05
 cg2d: Sum(rhs),rhsMax =  -3.12494779737941E+01  2.06066502457733E+00
(PID.TID 0000.0001)  ploadbar=  1.01127371038981E+05
 cg2d: Sum(rhs),rhsMax =  -3.11997625952479E+01  2.06384571784753E+00
(PID.TID 0000.0001)  ploadbar=  1.01128573011696E+05
 cg2d: Sum(rhs),rhsMax =  -3.11589862537397E+01  2.06640412756084E+00
(PID.TID 0000.0001)  ploadbar=  1.01129774984410E+05
 cg2d: Sum(rhs),rhsMax =  -3.11275574949511E+01  2.06834972571649E+00
(PID.TID 0000.0001)  ploadbar=  1.01131624570225E+05
 cg2d: Sum(rhs),rhsMax =  -3.11073354580843E+01  2.06954809334596E+00
(PID.TID 0000.0001)  ploadbar=  1.01133474156040E+05
 cg2d: Sum(rhs),rhsMax =  -3.10968359218987E+01  2.07008926477988E+00
(PID.TID 0000.0001)  ploadbar=  1.01135323741855E+05
 cg2d: Sum(rhs),rhsMax =  -3.10953351095397E+01  2.07001035614449E+00
(PID.TID 0000.0001)  ploadbar=  1.01137173327670E+05
 cg2d: Sum(rhs),rhsMax =  -3.11010446310626E+01  2.06942484122984E+00
(PID.TID 0000.0001)  ploadbar=  1.01139022913485E+05
 cg2d: Sum(rhs),rhsMax =  -3.11134782101684E+01  2.06835685608590E+00
(PID.TID 0000.0001)  ploadbar=  1.01140872499299E+05
 cg2d: Sum(rhs),rhsMax =  -3.11301810640646E+01  2.06697056029824E+00
(PID.TID 0000.0001)  ploadbar=  1.01143066438089E+05
 cg2d: Sum(rhs),rhsMax =  -3.11522457325726E+01  2.06518959480934E+00
(PID.TID 0000.0001)  ploadbar=  1.01145260376879E+05
 cg2d: Sum(rhs),rhsMax =  -3.11800434314335E+01  2.06299020692036E+00
(PID.TID 0000.0001)  ploadbar=  1.01147454315669E+05
 cg2d: Sum(rhs),rhsMax =  -3.12144297441876E+01  2.06031285353487E+00
(PID.TID 0000.0001)  ploadbar=  1.01149648254459E+05
 cg2d: Sum(rhs),rhsMax =  -3.12545313266842E+01  2.05721662352452E+00
(PID.TID 0000.0001)  ploadbar=  1.01151842193248E+05
 cg2d: Sum(rhs),rhsMax =  -3.12992983644520E+01  2.05377595083493E+00
(PID.TID 0000.0001)  ploadbar=  1.01154036132038E+05
 cg2d: Sum(rhs),rhsMax =  -3.13504801934048E+01  2.05006719156329E+00
(PID.TID 0000.0001)  ploadbar=  1.01155806791723E+05
 cg2d: Sum(rhs),rhsMax =  -3.14062936464254E+01  2.04619882520626E+00
(PID.TID 0000.0001)  ploadbar=  1.01157577451408E+05
 cg2d: Sum(rhs),rhsMax =  -3.14651789168668E+01  2.04227043933908E+00
(PID.TID 0000.0001)  ploadbar=  1.01159348111092E+05
 cg2d: Sum(rhs),rhsMax =  -3.15267595001951E+01  2.03830888752283E+00
(PID.TID 0000.0001)  ploadbar=  1.01161118770777E+05
 cg2d: Sum(rhs),rhsMax =  -3.15884933218473E+01  2.03447718016539E+00
(PID.TID 0000.0001)  ploadbar=  1.01162889430462E+05
 cg2d: Sum(rhs),rhsMax =  -3.16479848136475E+01  2.03091773434503E+00
(PID.TID 0000.0001)  ploadbar=  1.01164660090147E+05
 cg2d: Sum(rhs),rhsMax =  -3.16993805976304E+01  2.02785263704569E+00
(PID.TID 0000.0001)  ploadbar=  1.01166069779088E+05
 cg2d: Sum(rhs),rhsMax =  -3.17477250348896E+01  2.02493636445693E+00
(PID.TID 0000.0001)  ploadbar=  1.01167479468029E+05
 cg2d: Sum(rhs),rhsMax =  -3.17957453236337E+01  2.02198414276850E+00
(PID.TID 0000.0001)  ploadbar=  1.01168889156970E+05
 cg2d: Sum(rhs),rhsMax =  -3.18465261525331E+01  2.01879773084396E+00
(PID.TID 0000.0001)  ploadbar=  1.01170298845910E+05
 cg2d: Sum(rhs),rhsMax =  -3.19018871072504E+01  2.01525811441763E+00
(PID.TID 0000.0001)  ploadbar=  1.01171708534851E+05
 cg2d: Sum(rhs),rhsMax =  -3.19637644536294E+01  2.01123959149892E+00
(PID.TID 0000.0001)  ploadbar=  1.01173118223792E+05
 cg2d: Sum(rhs),rhsMax =  -3.20326424196323E+01  2.00686055848213E+00
(PID.TID 0000.0001)  ploadbar=  1.01173478769718E+05
 cg2d: Sum(rhs),rhsMax =  -3.21140225402517E+01  2.00176825810608E+00
(PID.TID 0000.0001)  ploadbar=  1.01173839315645E+05
 cg2d: Sum(rhs),rhsMax =  -3.22113447577781E+01  1.99575247415989E+00
(PID.TID 0000.0001)  ploadbar=  1.01174199861571E+05
 cg2d: Sum(rhs),rhsMax =  -3.23266600107361E+01  1.98869581158443E+00
(PID.TID 0000.0001)  ploadbar=  1.01174560407498E+05
 cg2d: Sum(rhs),rhsMax =  -3.24608068437864E+01  1.98055888374226E+00
(PID.TID 0000.0001)  ploadbar=  1.01174920953424E+05
 cg2d: Sum(rhs),rhsMax =  -3.26138779135517E+01  1.97135876067659E+00
(PID.TID 0000.0001)  ploadbar=  1.01175281499350E+05
 cg2d: Sum(rhs),rhsMax =  -3.27814858716490E+01  1.96138131157122E+00
(PID.TID 0000.0001)  ploadbar=  1.01174877572982E+05
 cg2d: Sum(rhs),rhsMax =  -3.29663925937590E+01  1.95048693745866E+00
(PID.TID 0000.0001)  ploadbar=  1.01174473646614E+05
 cg2d: Sum(rhs),rhsMax =  -3.31740107609765E+01  1.93839016001734E+00
(PID.TID 0000.0001)  ploadbar=  1.01174069720246E+05
 cg2d: Sum(rhs),rhsMax =  -3.34051732802358E+01  1.92509228113613E+00
(PID.TID 0000.0001)  ploadbar=  1.01173665793878E+05
 cg2d: Sum(rhs),rhsMax =  -3.36605540352325E+01  1.91060830467197E+00
(PID.TID 0000.0001)  ploadbar=  1.01173261867510E+05
 cg2d: Sum(rhs),rhsMax =  -3.39397198461945E+01  1.89502039836732E+00
(PID.TID 0000.0001)  ploadbar=  1.01172857941142E+05
 cg2d: Sum(rhs),rhsMax =  -3.42213072116223E+01  1.87962342492632E+00
(PID.TID 0000.0001)  ploadbar=  1.01171076550907E+05
 cg2d: Sum(rhs),rhsMax =  -3.45147970067279E+01  1.86389776716125E+00
(PID.TID 0000.0001)  ploadbar=  1.01169295160672E+05
 cg2d: Sum(rhs),rhsMax =  -3.48188578738920E+01  1.84793371073714E+00
(PID.TID 0000.0001)  ploadbar=  1.01167513770437E+05
 cg2d: Sum(rhs),rhsMax =  -3.51274360668453E+01  1.83206577092703E+00
(PID.TID 0000.0001)  ploadbar=  1.01165732380203E+05
 cg2d: Sum(rhs),rhsMax =  -3.54369855977827E+01  1.81647412245377E+00
(PID.TID 0000.0001)  ploadbar=  1.01163950989968E+05
 cg2d: Sum(rhs),rhsMax =  -3.57453316833912E+01  1.80125504968282E+00
(PID.TID 0000.0001)  ploadbar=  1.01162169599733E+05
 cg2d: Sum(rhs),rhsMax =  -3.60541961141061E+01  1.78616125935932E+00
(PID.TID 0000.0001)  ploadbar=  1.01161473262575E+05
 cg2d: Sum(rhs),rhsMax =  -3.63631408366788E+01  1.77119595985454E+00
(PID.TID 0000.0001)  ploadbar=  1.01160776925417E+05
 cg2d: Sum(rhs),rhsMax =  -3.66892078370388E+01  1.75552959499777E+00
(PID.TID 0000.0001)  ploadbar=  1.01160080588258E+05
 cg2d: Sum(rhs),rhsMax =  -3.70503911647279E+01  1.73835351048362E+00
(PID.TID 0000.0001)  ploadbar=  1.01159384251100E+05
 cg2d: Sum(rhs),rhsMax =  -3.74630013587420E+01  1.71900379279640E+00
(PID.TID 0000.0001)  ploadbar=  1.01158687913942E+05
 cg2d: Sum(rhs),rhsMax =  -3.79369248232247E+01  1.69718369073183E+00
(PID.TID 0000.0001)  ploadbar=  1.01157991576783E+05
 cg2d: Sum(rhs),rhsMax =  -3.84804843260373E+01  1.67290532369119E+00
(PID.TID 0000.0001)  ploadbar=  1.01156358325538E+05
 cg2d: Sum(rhs),rhsMax =  -3.90823555200525E+01  1.64686537684002E+00
(PID.TID 0000.0001)  ploadbar=  1.01154725074292E+05
 cg2d: Sum(rhs),rhsMax =  -3.97270279426223E+01  1.61988105445159E+00
(PID.TID 0000.0001)  ploadbar=  1.01153091823047E+05
 cg2d: Sum(rhs),rhsMax =  -4.04067936898052E+01  1.59237636889589E+00
(PID.TID 0000.0001)  ploadbar=  1.01151458571801E+05
 cg2d: Sum(rhs),rhsMax =  -4.11142132112700E+01  1.56472369842811E+00
(PID.TID 0000.0001)  ploadbar=  1.01149825320556E+05
 cg2d: Sum(rhs),rhsMax =  -4.18463643710684E+01  1.53708836596387E+00
(PID.TID 0000.0001)  ploadbar=  1.01148192069310E+05
 cg2d: Sum(rhs),rhsMax =  -4.26061507364896E+01  1.50934668132517E+00
(PID.TID 0000.0001)  ploadbar=  1.01147804059550E+05
 cg2d: Sum(rhs),rhsMax =  -4.33662989195649E+01  1.48249062942923E+00
(PID.TID 0000.0001)  ploadbar=  1.01147416049790E+05
 cg2d: Sum(rhs),rhsMax =  -4.41181994523898E+01  1.45675502771331E+00
(PID.TID 0000.0001)  ploadbar=  1.01147028040031E+05
 cg2d: Sum(rhs),rhsMax =  -4.48580436405045E+01  1.43218908212613E+00
(PID.TID 0000.0001)  ploadbar=  1.01146640030271E+05
 cg2d: Sum(rhs),rhsMax =  -4.55838121844542E+01  1.40877840634596E+00
(PID.TID 0000.0001)  ploadbar=  1.01146252020511E+05
 cg2d: Sum(rhs),rhsMax =  -4.64688120660127E+01  1.38127919521209E+00
(PID.TID 0000.0001)  ploadbar=  1.01145864010751E+05
 cg2d: Sum(rhs),rhsMax =  -4.73577889847464E+01  1.35481317078913E+00
(PID.TID 0000.0001)  ploadbar=  1.01145368764307E+05
 cg2d: Sum(rhs),rhsMax =  -4.82151779600752E+01  1.33030860981833E+00
(PID.TID 0000.0001)  ploadbar=  1.01144873517863E+05
 cg2d: Sum(rhs),rhsMax =  -4.90443562629493E+01  1.30752380935026E+00
(PID.TID 0000.0001)  ploadbar=  1.01144378271418E+05
 cg2d: Sum(rhs),rhsMax =  -4.98459840275573E+01  1.28631410323339E+00
(PID.TID 0000.0001)  ploadbar=  1.01143883024974E+05
 cg2d: Sum(rhs),rhsMax =  -5.06240188520128E+01  1.26646558478781E+00
(PID.TID 0000.0001)  ploadbar=  1.01143387778529E+05
 cg2d: Sum(rhs),rhsMax =  -5.13725700052922E+01  1.24802780193776E+00
(PID.TID 0000.0001)  ploadbar=  1.01142892532085E+05
 cg2d: Sum(rhs),rhsMax =  -5.16450400251429E+01  1.24142442015779E+00
(PID.TID 0000.0001)  ploadbar=  1.01142632435181E+05
 cg2d: Sum(rhs),rhsMax =  -5.15500112959628E+01  1.24365420753123E+00
(PID.TID 0000.0001)  ploadbar=  1.01142372338277E+05
 cg2d: Sum(rhs),rhsMax =  -5.14607670299938E+01  1.24570947295493E+00
(PID.TID 0000.0001)  ploadbar=  1.01142112241374E+05
 cg2d: Sum(rhs),rhsMax =  -5.13753984736273E+01  1.24763187791468E+00
(PID.TID 0000.0001)  ploadbar=  1.01141852144470E+05
 cg2d: Sum(rhs),rhsMax =  -5.12934926306368E+01  1.24942572524829E+00
(PID.TID 0000.0001)  ploadbar=  1.01141592047566E+05
 cg2d: Sum(rhs),rhsMax =  -5.12143513658726E+01  1.25109935826679E+00
(PID.TID 0000.0001)  ploadbar=  1.01141331950663E+05
 cg2d: Sum(rhs),rhsMax =  -5.11569385317167E+01  1.25225273525438E+00
(PID.TID 0000.0001)  ploadbar=  1.01141597837655E+05
 cg2d: Sum(rhs),rhsMax =  -5.11014107187235E+01  1.25336343961731E+00
(PID.TID 0000.0001)  ploadbar=  1.01141863724646E+05
 cg2d: Sum(rhs),rhsMax =  -5.10471352010345E+01  1.25443800618350E+00
(PID.TID 0000.0001)  ploadbar=  1.01142129611638E+05
 cg2d: Sum(rhs),rhsMax =  -5.09971324794023E+01  1.25539511428735E+00
(PID.TID 0000.0001)  ploadbar=  1.01142395498630E+05
 cg2d: Sum(rhs),rhsMax =  -5.09507589145787E+01  1.25623978356336E+00
(PID.TID 0000.0001)  ploadbar=  1.01142661385622E+05
 cg2d: Sum(rhs),rhsMax =  -5.09092155072785E+01  1.25693217907304E+00
(PID.TID 0000.0001)  ploadbar=  1.01142927272614E+05
 cg2d: Sum(rhs),rhsMax =  -5.08761785197818E+01  1.25736203734162E+00
(PID.TID 0000.0001)  ploadbar=  1.01143908037788E+05
 cg2d: Sum(rhs),rhsMax =  -5.08516160052894E+01  1.25752709817166E+00
(PID.TID 0000.0001)  ploadbar=  1.01144888802962E+05
 cg2d: Sum(rhs),rhsMax =  -5.08340738511281E+01  1.25746143482090E+00
(PID.TID 0000.0001)  ploadbar=  1.01145869568136E+05
 cg2d: Sum(rhs),rhsMax =  -5.08226167201570E+01  1.25718450920701E+00
(PID.TID 0000.0001)  ploadbar=  1.01146850333309E+05
 cg2d: Sum(rhs),rhsMax =  -5.08176899113069E+01  1.25668343341376E+00
(PID.TID 0000.0001)  ploadbar=  1.01147831098483E+05
 cg2d: Sum(rhs),rhsMax =  -5.08178474430965E+01  1.25599053224312E+00
(PID.TID 0000.0001)  ploadbar=  1.01148811863657E+05
 cg2d: Sum(rhs),rhsMax =  -5.08233076206031E+01  1.25526995004165E+00
(PID.TID 0000.0001)  ploadbar=  1.01149735332444E+05
 cg2d: Sum(rhs),rhsMax =  -5.08352941384602E+01  1.25448616807078E+00
(PID.TID 0000.0001)  ploadbar=  1.01150658801232E+05
 cg2d: Sum(rhs),rhsMax =  -5.08550016262141E+01  1.25360189414577E+00
(PID.TID 0000.0001)  ploadbar=  1.01151582270019E+05
 cg2d: Sum(rhs),rhsMax =  -5.08795163658649E+01  1.25267833010967E+00
(PID.TID 0000.0001)  ploadbar=  1.01152505738807E+05
 cg2d: Sum(rhs),rhsMax =  -5.09073546358763E+01  1.25174493238856E+00
(PID.TID 0000.0001)  ploadbar=  1.01153429207594E+05
 cg2d: Sum(rhs),rhsMax =  -5.09370435838507E+01  1.25082714532164E+00
(PID.TID 0000.0001)  ploadbar=  1.01154352676382E+05
 cg2d: Sum(rhs),rhsMax =  -5.09585317819689E+01  1.25009423375436E+00
(PID.TID 0000.0001)  ploadbar=  1.01154778556639E+05
 cg2d: Sum(rhs),rhsMax =  -5.09759916450211E+01  1.24943678289013E+00
(PID.TID 0000.0001)  ploadbar=  1.01155204436897E+05
 cg2d: Sum(rhs),rhsMax =  -5.09901052286735E+01  1.24883403659608E+00
(PID.TID 0000.0001)  ploadbar=  1.01155630317154E+05
 cg2d: Sum(rhs),rhsMax =  -5.10017584564959E+01  1.24825668237045E+00
(PID.TID 0000.0001)  ploadbar=  1.01156056197412E+05
 cg2d: Sum(rhs),rhsMax =  -5.10133443033010E+01  1.24763820753439E+00
(PID.TID 0000.0001)  ploadbar=  1.01156482077669E+05
 cg2d: Sum(rhs),rhsMax =  -5.10279608034488E+01  1.24690010926481E+00
(PID.TID 0000.0001)  ploadbar=  1.01156907957926E+05
 cg2d: Sum(rhs),rhsMax =  -5.10515986125664E+01  1.24600663642575E+00
(PID.TID 0000.0001)  ploadbar=  1.01155639887326E+05
 cg2d: Sum(rhs),rhsMax =  -5.10899034312315E+01  1.24481229094747E+00
(PID.TID 0000.0001)  ploadbar=  1.01154371816726E+05
 cg2d: Sum(rhs),rhsMax =  -5.11400744217066E+01  1.24337590820198E+00
(PID.TID 0000.0001)  ploadbar=  1.01153103746125E+05
 cg2d: Sum(rhs),rhsMax =  -5.12001915507814E+01  1.24173362958210E+00
(PID.TID 0000.0001)  ploadbar=  1.01151835675525E+05
 cg2d: Sum(rhs),rhsMax =  -5.12683856968208E+01  1.23992443119874E+00
(PID.TID 0000.0001)  ploadbar=  1.01150567604925E+05
 cg2d: Sum(rhs),rhsMax =  -5.13440671510797E+01  1.23795747045051E+00
(PID.TID 0000.0001)  ploadbar=  1.01149299534324E+05
 cg2d: Sum(rhs),rhsMax =  -5.14282231511120E+01  1.23578969850477E+00
(PID.TID 0000.0001)  ploadbar=  1.01149919317773E+05
 cg2d: Sum(rhs),rhsMax =  -5.15218670956820E+01  1.23339638404667E+00
(PID.TID 0000.0001)  ploadbar=  1.01150539101221E+05
 cg2d: Sum(rhs),rhsMax =  -5.16207015523237E+01  1.23087848185455E+00
(PID.TID 0000.0001)  ploadbar=  1.01151158884669E+05
 cg2d: Sum(rhs),rhsMax =  -5.17233637273076E+01  1.22826778964919E+00
(PID.TID 0000.0001)  ploadbar=  1.01151778668118E+05
 cg2d: Sum(rhs),rhsMax =  -5.18306333155715E+01  1.22554288258314E+00
(PID.TID 0000.0001)  ploadbar=  1.01152398451566E+05
 cg2d: Sum(rhs),rhsMax =  -5.19403603370154E+01  1.22275229423230E+00
(PID.TID 0000.0001)  ploadbar=  1.01153018235015E+05
 cg2d: Sum(rhs),rhsMax =  -5.20579530810946E+01  1.21987015293340E+00
(PID.TID 0000.0001)  ploadbar=  1.01152100380805E+05
 cg2d: Sum(rhs),rhsMax =  -5.21822588058729E+01  1.21691897915890E+00
(PID.TID 0000.0001)  ploadbar=  1.01151182526595E+05
 cg2d: Sum(rhs),rhsMax =  -5.23225160687248E+01  1.21368392324390E+00
(PID.TID 0000.0001)  ploadbar=  1.01150264672385E+05
 cg2d: Sum(rhs),rhsMax =  -5.24816729646141E+01  1.21009752707738E+00
(PID.TID 0000.0001)  ploadbar=  1.01149346818176E+05
 cg2d: Sum(rhs),rhsMax =  -5.26654668008522E+01  1.20602778123428E+00
(PID.TID 0000.0001)  ploadbar=  1.01148428963966E+05
 cg2d: Sum(rhs),rhsMax =  -5.28836900119697E+01  1.20125635668799E+00
(PID.TID 0000.0001)  ploadbar=  1.01147511109756E+05
 cg2d: Sum(rhs),rhsMax =  -5.31582374424267E+01  1.19520895871146E+00
(PID.TID 0000.0001)  ploadbar=  1.01147683406164E+05
 cg2d: Sum(rhs),rhsMax =  -5.35040437689259E+01  1.18758936207742E+00
(PID.TID 0000.0001)  ploadbar=  1.01147855702572E+05
 cg2d: Sum(rhs),rhsMax =  -5.39385181500298E+01  1.17807261340331E+00
(PID.TID 0000.0001)  ploadbar=  1.01148027998979E+05
 cg2d: Sum(rhs),rhsMax =  -5.44746743112132E+01  1.16646725729738E+00
(PID.TID 0000.0001)  ploadbar=  1.01148200295387E+05
 cg2d: Sum(rhs),rhsMax =  -5.51043714393480E+01  1.15306302632794E+00
(PID.TID 0000.0001)  ploadbar=  1.01148372591795E+05
 cg2d: Sum(rhs),rhsMax =  -5.58124675087027E+01  1.13829540753635E+00
(PID.TID 0000.0001)  ploadbar=  1.01148544888203E+05
 cg2d: Sum(rhs),rhsMax =  -5.65285054562930E+01  1.12375264201090E+00
(PID.TID 0000.0001)  ploadbar=  1.01147592168743E+05
 cg2d: Sum(rhs),rhsMax =  -5.71445320415431E+01  1.11152068606804E+00
(PID.TID 0000.0001)  ploadbar=  1.01146639449282E+05
 cg2d: Sum(rhs),rhsMax =  -5.60007350924474E+01  1.13410171578575E+00
(PID.TID 0000.0001)  ploadbar=  1.01145686729822E+05
 cg2d: Sum(rhs),rhsMax =  -5.49096679732198E+01  1.15650554183636E+00
(PID.TID 0000.0001)  ploadbar=  1.01144734010362E+05
 cg2d: Sum(rhs),rhsMax =  -5.38821581596862E+01  1.17841394746467E+00
(PID.TID 0000.0001)  ploadbar=  1.01143781290902E+05
 cg2d: Sum(rhs),rhsMax =  -5.29191425984031E+01  1.19969979663181E+00
(PID.TID 0000.0001)  ploadbar=  1.01142828571442E+05
 cg2d: Sum(rhs),rhsMax =  -5.19867842616783E+01  1.22102831022475E+00
(PID.TID 0000.0001)  ploadbar=  1.01142522505295E+05
 cg2d: Sum(rhs),rhsMax =  -5.11355008535834E+01  1.24113667533523E+00
(PID.TID 0000.0001)  ploadbar=  1.01142216439148E+05
 cg2d: Sum(rhs),rhsMax =  -5.03613614644827E+01  1.25996437370852E+00
(PID.TID 0000.0001)  ploadbar=  1.01141910373001E+05
 cg2d: Sum(rhs),rhsMax =  -4.96832842071431E+01  1.27688002288653E+00
(PID.TID 0000.0001)  ploadbar=  1.01141604306854E+05
 cg2d: Sum(rhs),rhsMax =  -4.90992661165655E+01  1.29176073482862E+00
(PID.TID 0000.0001)  ploadbar=  1.01141298240707E+05
 cg2d: Sum(rhs),rhsMax =  -4.86172383297613E+01  1.30423562286356E+00
(PID.TID 0000.0001)  ploadbar=  1.01140992174560E+05
 cg2d: Sum(rhs),rhsMax =  -4.82164273881643E+01  1.31484871245128E+00
(PID.TID 0000.0001)  ploadbar=  1.01140737216294E+05
 cg2d: Sum(rhs),rhsMax =  -4.78977498804976E+01  1.32347161495009E+00
(PID.TID 0000.0001)  ploadbar=  1.01140482258027E+05
 cg2d: Sum(rhs),rhsMax =  -4.76578524339430E+01  1.33011152506366E+00
(PID.TID 0000.0001)  ploadbar=  1.01140227299760E+05
 cg2d: Sum(rhs),rhsMax =  -4.75081499843826E+01  1.33438112534541E+00
(PID.TID 0000.0001)  ploadbar=  1.01139972341494E+05
 cg2d: Sum(rhs),rhsMax =  -4.74506022633999E+01  1.33617743632309E+00
(PID.TID 0000.0001)  ploadbar=  1.01139717383227E+05
 cg2d: Sum(rhs),rhsMax =  -4.74907605030443E+01  1.33532099651748E+00
(PID.TID 0000.0001)  ploadbar=  1.01139462424960E+05
 cg2d: Sum(rhs),rhsMax =  -4.76448738856950E+01  1.33125520681778E+00
(PID.TID 0000.0001)  ploadbar=  1.01139110885650E+05
 cg2d: Sum(rhs),rhsMax =  -4.79216403301253E+01  1.32379521952278E+00
(PID.TID 0000.0001)  ploadbar=  1.01138759346339E+05
 cg2d: Sum(rhs),rhsMax =  -4.83303203299340E+01  1.31279941445322E+00
(PID.TID 0000.0001)  ploadbar=  1.01138407807028E+05
 cg2d: Sum(rhs),rhsMax =  -4.88873894424374E+01  1.29800368804675E+00
(PID.TID 0000.0001)  ploadbar=  1.01138056267718E+05
 cg2d: Sum(rhs),rhsMax =  -4.98133893757271E+01  1.27399878583323E+00
(PID.TID 0000.0001)  ploadbar=  1.01137704728407E+05
 cg2d: Sum(rhs),rhsMax =  -4.81723237631433E+01  1.31748759017957E+00
(PID.TID 0000.0001)  ploadbar=  1.01137353189096E+05
 cg2d: Sum(rhs),rhsMax =  -4.60827630060247E+01  1.37732126310815E+00
(PID.TID 0000.0001)  ploadbar=  1.01135433671031E+05
 cg2d: Sum(rhs),rhsMax =  -4.42441186108501E+01  1.43465603973692E+00
(PID.TID 0000.0001)  ploadbar=  1.01133514152965E+05
 cg2d: Sum(rhs),rhsMax =  -4.26206777011859E+01  1.48940053657662E+00
(PID.TID 0000.0001)  ploadbar=  1.01131594634899E+05
 cg2d: Sum(rhs),rhsMax =  -4.11881010269708E+01  1.54129749444339E+00
(PID.TID 0000.0001)  ploadbar=  1.01129675116834E+05
 cg2d: Sum(rhs),rhsMax =  -3.99260443998279E+01  1.59009909419909E+00
(PID.TID 0000.0001)  ploadbar=  1.01127755598768E+05
 cg2d: Sum(rhs),rhsMax =  -3.88099547029585E+01  1.63588741894967E+00
(PID.TID 0000.0001)  ploadbar=  1.01125836080702E+05
 cg2d: Sum(rhs),rhsMax =  -3.78142138950016E+01  1.67887749776919E+00
(PID.TID 0000.0001)  ploadbar=  1.01123952432413E+05
 cg2d: Sum(rhs),rhsMax =  -3.69379443761485E+01  1.71846236385322E+00
(PID.TID 0000.0001)  ploadbar=  1.01122068784124E+05
 cg2d: Sum(rhs),rhsMax =  -3.61686120153776E+01  1.75460838956983E+00
(PID.TID 0000.0001)  ploadbar=  1.01120185135835E+05
 cg2d: Sum(rhs),rhsMax =  -3.54945618755027E+01  1.78735002504121E+00
(PID.TID 0000.0001)  ploadbar=  1.01118301487545E+05
 cg2d: Sum(rhs),rhsMax =  -3.49107154123830E+01  1.81648593583391E+00
(PID.TID 0000.0001)  ploadbar=  1.01116417839256E+05
 cg2d: Sum(rhs),rhsMax =  -3.44127429501596E+01  1.84183670732249E+00
(PID.TID 0000.0001)  ploadbar=  1.01114534190967E+05
 cg2d: Sum(rhs),rhsMax =  -3.39841221580518E+01  1.86424034395098E+00
(PID.TID 0000.0001)  ploadbar=  1.01112714093351E+05
 cg2d: Sum(rhs),rhsMax =  -3.36327852290678E+01  1.88299559390162E+00
(PID.TID 0000.0001)  ploadbar=  1.01110893995734E+05
 cg2d: Sum(rhs),rhsMax =  -3.33524509893114E+01  1.89820679613817E+00
(PID.TID 0000.0001)  ploadbar=  1.01109073898118E+05
 cg2d: Sum(rhs),rhsMax =  -3.31967332396381E+01  1.90659529022591E+00
(PID.TID 0000.0001)  ploadbar=  1.01107253800501E+05
 cg2d: Sum(rhs),rhsMax =  -3.30988656840881E+01  1.91181667585910E+00
(PID.TID 0000.0001)  ploadbar=  1.01105433702885E+05
 cg2d: Sum(rhs),rhsMax =  -3.30571563898137E+01  1.91390690196660E+00
(PID.TID 0000.0001)  ploadbar=  1.01103613605269E+05
 cg2d: Sum(rhs),rhsMax =  -3.30707232636459E+01  1.91273393547229E+00
(PID.TID 0000.0001)  ploadbar=  1.01103125396296E+05
 cg2d: Sum(rhs),rhsMax =  -3.31474639627607E+01  1.90784417273495E+00
(PID.TID 0000.0001)  ploadbar=  1.01102637187323E+05
 cg2d: Sum(rhs),rhsMax =  -3.32594468671675E+01  1.90087408366311E+00
(PID.TID 0000.0001)  ploadbar=  1.01102148978350E+05
 cg2d: Sum(rhs),rhsMax =  -3.37774324967837E+01  1.87108779650616E+00
(PID.TID 0000.0001)  ploadbar=  1.01101660769377E+05
 cg2d: Sum(rhs),rhsMax =  -3.42799648874709E+01  1.84292398613439E+00
(PID.TID 0000.0001)  ploadbar=  1.01101172560404E+05
 cg2d: Sum(rhs),rhsMax =  -3.47684683602898E+01  1.81618978320338E+00
(PID.TID 0000.0001)  ploadbar=  1.01100684351431E+05
 cg2d: Sum(rhs),rhsMax =  -3.52083215973644E+01  1.79274288910568E+00
(PID.TID 0000.0001)  ploadbar=  1.01099224848596E+05
 cg2d: Sum(rhs),rhsMax =  -3.56274879406662E+01  1.77097131778332E+00
(PID.TID 0000.0001)  ploadbar=  1.01097765345762E+05
 cg2d: Sum(rhs),rhsMax =  -3.60241829262572E+01  1.75085889044752E+00
(PID.TID 0000.0001)  ploadbar=  1.01096305842927E+05
 cg2d: Sum(rhs),rhsMax =  -3.63893891182986E+01  1.73273568397652E+00
(PID.TID 0000.0001)  ploadbar=  1.01094846340093E+05
 cg2d: Sum(rhs),rhsMax =  -3.67335059632680E+01  1.71600057239288E+00
(PID.TID 0000.0001)  ploadbar=  1.01093386837258E+05
 cg2d: Sum(rhs),rhsMax =  -3.70609461777352E+01  1.70037742383881E+00
(PID.TID 0000.0001)  ploadbar=  1.01091927334424E+05
 cg2d: Sum(rhs),rhsMax =  -3.74151830468645E+01  1.68381408243141E+00
(PID.TID 0000.0001)  ploadbar=  1.01090487436766E+05
 cg2d: Sum(rhs),rhsMax =  -3.77600996218500E+01  1.66796246132438E+00
(PID.TID 0000.0001)  ploadbar=  1.01089047539108E+05
 cg2d: Sum(rhs),rhsMax =  -3.80976055746475E+01  1.65270652004136E+00
(PID.TID 0000.0001)  ploadbar=  1.01087607641450E+05
 cg2d: Sum(rhs),rhsMax =  -3.84213622510723E+01  1.63829252687576E+00
(PID.TID 0000.0001)  ploadbar=  1.01086167743792E+05
 cg2d: Sum(rhs),rhsMax =  -3.87191281621339E+01  1.62519720926667E+00
(PID.TID 0000.0001)  ploadbar=  1.01084727846134E+05
 cg2d: Sum(rhs),rhsMax =  -3.89815239055288E+01  1.61375318819524E+00
(PID.TID 0000.0001)  ploadbar=  1.01083287948476E+05
 cg2d: Sum(rhs),rhsMax =  -3.92347599072063E+01  1.60294170150074E+00
(PID.TID 0000.0001)  ploadbar=  1.01083396012160E+05
 cg2d: Sum(rhs),rhsMax =  -3.94528893588513E+01  1.59378596389611E+00
(PID.TID 0000.0001)  ploadbar=  1.01083504075844E+05
 cg2d: Sum(rhs),rhsMax =  -3.96434887555475E+01  1.58592404776603E+00
(PID.TID 0000.0001)  ploadbar=  1.01083612139528E+05
 cg2d: Sum(rhs),rhsMax =  -3.98150732454898E+01  1.57897949843308E+00
(PID.TID 0000.0001)  ploadbar=  1.01083720203212E+05
 cg2d: Sum(rhs),rhsMax =  -3.99760960767895E+01  1.57259585976478E+00
(PID.TID 0000.0001)  ploadbar=  1.01083828266896E+05
 cg2d: Sum(rhs),rhsMax =  -4.01360782065905E+01  1.56638471198275E+00
(PID.TID 0000.0001)  ploadbar=  1.01083936330580E+05
 cg2d: Sum(rhs),rhsMax =  -4.03436307911754E+01  1.55831804529967E+00
(PID.TID 0000.0001)  ploadbar=  1.01082435624897E+05
 cg2d: Sum(rhs),rhsMax =  -4.04562398776879E+01  1.55389818947457E+00
(PID.TID 0000.0001)  ploadbar=  1.01080934919214E+05
 cg2d: Sum(rhs),rhsMax =  -4.02520926790378E+01  1.56161144457684E+00
(PID.TID 0000.0001)  ploadbar=  1.01079434213531E+05
 cg2d: Sum(rhs),rhsMax =  -4.00133435456340E+01  1.57066289797171E+00
(PID.TID 0000.0001)  ploadbar=  1.01077933507848E+05
 cg2d: Sum(rhs),rhsMax =  -3.97399030166635E+01  1.58109810986179E+00
(PID.TID 0000.0001)  ploadbar=  1.01076432802165E+05
 cg2d: Sum(rhs),rhsMax =  -3.94506335112442E+01  1.59220619326751E+00
(PID.TID 0000.0001)  ploadbar=  1.01074932096482E+05
 cg2d: Sum(rhs),rhsMax =  -3.91262164948179E+01  1.60499803834837E+00
(PID.TID 0000.0001)  ploadbar=  1.01071664570980E+05
 cg2d: Sum(rhs),rhsMax =  -3.87879555668046E+01  1.61865737541435E+00
(PID.TID 0000.0001)  ploadbar=  1.01068397045478E+05
 cg2d: Sum(rhs),rhsMax =  -3.84456520319719E+01  1.63279895983539E+00
(PID.TID 0000.0001)  ploadbar=  1.01065129519975E+05
 cg2d: Sum(rhs),rhsMax =  -3.81079057037983E+01  1.64706151423492E+00
(PID.TID 0000.0001)  ploadbar=  1.01061861994473E+05
 cg2d: Sum(rhs),rhsMax =  -3.78060791117558E+01  1.66006430696980E+00
(PID.TID 0000.0001)  ploadbar=  1.01058594468971E+05
 cg2d: Sum(rhs),rhsMax =  -3.75354387222798E+01  1.67194032861414E+00
(PID.TID 0000.0001)  ploadbar=  1.01055326943469E+05
 cg2d: Sum(rhs),rhsMax =  -3.72856620807306E+01  1.68303612743558E+00
(PID.TID 0000.0001)  ploadbar=  1.01054084723413E+05
 cg2d: Sum(rhs),rhsMax =  -3.70763578887651E+01  1.69241915165376E+00
(PID.TID 0000.0001)  ploadbar=  1.01052842503357E+05
 cg2d: Sum(rhs),rhsMax =  -3.69143892601778E+01  1.69970693846085E+00
(PID.TID 0000.0001)  ploadbar=  1.01051600283300E+05
 cg2d: Sum(rhs),rhsMax =  -3.67992198284387E+01  1.70486293984233E+00
(PID.TID 0000.0001)  ploadbar=  1.01050358063244E+05
 cg2d: Sum(rhs),rhsMax =  -3.67306163293775E+01  1.70785819641797E+00
(PID.TID 0000.0001)  ploadbar=  1.01049115843188E+05
 cg2d: Sum(rhs),rhsMax =  -3.67051228022165E+01  1.70882719000019E+00
(PID.TID 0000.0001)  ploadbar=  1.01047873623132E+05
 cg2d: Sum(rhs),rhsMax =  -3.67323597395281E+01  1.70744695370681E+00
(PID.TID 0000.0001)  ploadbar=  1.01046627081530E+05
 cg2d: Sum(rhs),rhsMax =  -3.67889349384314E+01  1.70480750174437E+00
(PID.TID 0000.0001)  ploadbar=  1.01045380539929E+05
 cg2d: Sum(rhs),rhsMax =  -3.68610750960308E+01  1.70155106470256E+00
(PID.TID 0000.0001)  ploadbar=  1.01044133998327E+05
 cg2d: Sum(rhs),rhsMax =  -3.69437756420719E+01  1.69790937614697E+00
(PID.TID 0000.0001)  ploadbar=  1.01042887456725E+05
 cg2d: Sum(rhs),rhsMax =  -3.70306145223772E+01  1.69417510988330E+00
(PID.TID 0000.0001)  ploadbar=  1.01041640915124E+05
 cg2d: Sum(rhs),rhsMax =  -3.71113932202795E+01  1.69080313148468E+00
(PID.TID 0000.0001)  ploadbar=  1.01040394373522E+05
 cg2d: Sum(rhs),rhsMax =  -3.71543223206763E+01  1.68912864856899E+00
(PID.TID 0000.0001)  ploadbar=  1.01039341910982E+05
 cg2d: Sum(rhs),rhsMax =  -3.71843245812187E+01  1.68799528318883E+00
(PID.TID 0000.0001)  ploadbar=  1.01038289448441E+05
 cg2d: Sum(rhs),rhsMax =  -3.71967957625678E+01  1.68760435852768E+00
(PID.TID 0000.0001)  ploadbar=  1.01037236985901E+05
 cg2d: Sum(rhs),rhsMax =  -3.71951816331448E+01  1.68778982453744E+00
(PID.TID 0000.0001)  ploadbar=  1.01036184523360E+05
 cg2d: Sum(rhs),rhsMax =  -3.71848305652481E+01  1.68830174731597E+00
(PID.TID 0000.0001)  ploadbar=  1.01035132060820E+05
 cg2d: Sum(rhs),rhsMax =  -3.71698538879157E+01  1.68895185884131E+00
(PID.TID 0000.0001)  ploadbar=  1.01034079598279E+05
 cg2d: Sum(rhs),rhsMax =  -3.71587969819028E+01  1.68950131038650E+00
(PID.TID 0000.0001)  ploadbar=  1.01034163956601E+05
 cg2d: Sum(rhs),rhsMax =  -3.71477986557199E+01  1.69011289836656E+00
(PID.TID 0000.0001)  ploadbar=  1.01034248314923E+05
 cg2d: Sum(rhs),rhsMax =  -3.71257782179102E+01  1.69128742174365E+00
(PID.TID 0000.0001)  ploadbar=  1.01034332673245E+05
 cg2d: Sum(rhs),rhsMax =  -3.70942121650957E+01  1.69295289347512E+00
(PID.TID 0000.0001)  ploadbar=  1.01034417031567E+05
 cg2d: Sum(rhs),rhsMax =  -3.70527728118264E+01  1.69512156024856E+00
(PID.TID 0000.0001)  ploadbar=  1.01034501389889E+05
 cg2d: Sum(rhs),rhsMax =  -3.70075932218775E+01  1.69750846543573E+00
(PID.TID 0000.0001)  ploadbar=  1.01034585748211E+05
 cg2d: Sum(rhs),rhsMax =  -3.70927450813160E+01  1.69389807414443E+00
(PID.TID 0000.0001)  ploadbar=  1.01034497765648E+05
 cg2d: Sum(rhs),rhsMax =  -3.71666505053454E+01  1.69077718766734E+00
(PID.TID 0000.0001)  ploadbar=  1.01034409783085E+05
 cg2d: Sum(rhs),rhsMax =  -3.72287141559919E+01  1.68816470461034E+00
(PID.TID 0000.0001)  ploadbar=  1.01034321800521E+05
 cg2d: Sum(rhs),rhsMax =  -3.72819045253651E+01  1.68591979746605E+00
(PID.TID 0000.0001)  ploadbar=  1.01034233817958E+05
 cg2d: Sum(rhs),rhsMax =  -3.73263521103986E+01  1.68403138936512E+00
(PID.TID 0000.0001)  ploadbar=  1.01034145835395E+05
 cg2d: Sum(rhs),rhsMax =  -3.73637237118260E+01  1.68242211080914E+00
(PID.TID 0000.0001)  ploadbar=  1.01034057852832E+05
 cg2d: Sum(rhs),rhsMax =  -3.74005583860720E+01  1.68094349844295E+00
(PID.TID 0000.0001)  ploadbar=  1.01034277849312E+05
 cg2d: Sum(rhs),rhsMax =  -3.74410807293700E+01  1.67939918639307E+00
(PID.TID 0000.0001)  ploadbar=  1.01034497845792E+05
 cg2d: Sum(rhs),rhsMax =  -3.74875380112873E+01  1.67768475891591E+00
(PID.TID 0000.0001)  ploadbar=  1.01034717842272E+05
 cg2d: Sum(rhs),rhsMax =  -3.75422301245046E+01  1.67569470816346E+00
(PID.TID 0000.0001)  ploadbar=  1.01034937838752E+05
 cg2d: Sum(rhs),rhsMax =  -3.76055215849304E+01  1.67341051717309E+00
(PID.TID 0000.0001)  ploadbar=  1.01035157835232E+05
 cg2d: Sum(rhs),rhsMax =  -3.76803731241631E+01  1.67069950859494E+00
(PID.TID 0000.0001)  ploadbar=  1.01035377831712E+05
 cg2d: Sum(rhs),rhsMax =  -3.77352589199450E+01  1.66886648164937E+00
(PID.TID 0000.0001)  ploadbar=  1.01036455749169E+05
 cg2d: Sum(rhs),rhsMax =  -3.78050229678111E+01  1.66635918886562E+00
(PID.TID 0000.0001)  ploadbar=  1.01037533666626E+05
 cg2d: Sum(rhs),rhsMax =  -3.78959513329532E+01  1.66290143795565E+00
(PID.TID 0000.0001)  ploadbar=  1.01038611584084E+05
 cg2d: Sum(rhs),rhsMax =  -3.80020070861188E+01  1.65875988043572E+00
(PID.TID 0000.0001)  ploadbar=  1.01039689501541E+05
 cg2d: Sum(rhs),rhsMax =  -3.81088062560089E+01  1.65455817441734E+00
(PID.TID 0000.0001)  ploadbar=  1.01040767418998E+05
 cg2d: Sum(rhs),rhsMax =  -3.82234238451193E+01  1.64998758444436E+00
(PID.TID 0000.0001)  ploadbar=  1.01041845336456E+05
 cg2d: Sum(rhs),rhsMax =  -3.83825817476545E+01  1.64357654086788E+00
(PID.TID 0000.0001)  ploadbar=  1.01043112636184E+05
 cg2d: Sum(rhs),rhsMax =  -3.85712553953108E+01  1.63599945563561E+00
(PID.TID 0000.0001)  ploadbar=  1.01044379935913E+05
 cg2d: Sum(rhs),rhsMax =  -3.87837845341526E+01  1.62752545107181E+00
(PID.TID 0000.0001)  ploadbar=  1.01045647235642E+05
 cg2d: Sum(rhs),rhsMax =  -3.90165213062009E+01  1.61833000083449E+00
(PID.TID 0000.0001)  ploadbar=  1.01046914535371E+05
 cg2d: Sum(rhs),rhsMax =  -3.92690644622881E+01  1.60844882697385E+00
(PID.TID 0000.0001)  ploadbar=  1.01048181835100E+05
 cg2d: Sum(rhs),rhsMax =  -3.95364241400162E+01  1.59811070321105E+00
(PID.TID 0000.0001)  ploadbar=  1.01049449134829E+05
 cg2d: Sum(rhs),rhsMax =  -3.98204053561069E+01  1.58718736112682E+00
(PID.TID 0000.0001)  ploadbar=  1.01050591823586E+05
 cg2d: Sum(rhs),rhsMax =  -4.01094561377811E+01  1.57615445508195E+00
(PID.TID 0000.0001)  ploadbar=  1.01051734512343E+05
 cg2d: Sum(rhs),rhsMax =  -4.04028621028205E+01  1.56504128012116E+00
(PID.TID 0000.0001)  ploadbar=  1.01052877201100E+05
 cg2d: Sum(rhs),rhsMax =  -4.07011498088151E+01  1.55383058899843E+00
(PID.TID 0000.0001)  ploadbar=  1.01054019889857E+05
 cg2d: Sum(rhs),rhsMax =  -4.10062821889681E+01  1.54245465855602E+00
(PID.TID 0000.0001)  ploadbar=  1.01055162578614E+05
 cg2d: Sum(rhs),rhsMax =  -4.13200134510405E+01  1.53085784050434E+00
(PID.TID 0000.0001)  ploadbar=  1.01056305267372E+05
 cg2d: Sum(rhs),rhsMax =  -4.16372356125604E+01  1.51934568035582E+00
(PID.TID 0000.0001)  ploadbar=  1.01056902169072E+05
 cg2d: Sum(rhs),rhsMax =  -4.19649888277143E+01  1.50766674446797E+00
(PID.TID 0000.0001)  ploadbar=  1.01057499070773E+05
 cg2d: Sum(rhs),rhsMax =  -4.23077608573588E+01  1.49567460938457E+00
(PID.TID 0000.0001)  ploadbar=  1.01058095972473E+05
 cg2d: Sum(rhs),rhsMax =  -4.26624014203365E+01  1.48349752372729E+00
(PID.TID 0000.0001)  ploadbar=  1.01058692874174E+05
 cg2d: Sum(rhs),rhsMax =  -4.30232251509913E+01  1.47134281356264E+00
(PID.TID 0000.0001)  ploadbar=  1.01059289775874E+05
 cg2d: Sum(rhs),rhsMax =  -4.33891764424316E+01  1.45924741925694E+00
(PID.TID 0000.0001)  ploadbar=  1.01059886677575E+05
 cg2d: Sum(rhs),rhsMax =  -4.37388971466770E+01  1.44784254779706E+00
(PID.TID 0000.0001)  ploadbar=  1.01061105258000E+05
 cg2d: Sum(rhs),rhsMax =  -4.40880597720098E+01  1.43658281106602E+00
(PID.TID 0000.0001)  ploadbar=  1.01062323838425E+05
 cg2d: Sum(rhs),rhsMax =  -4.44401283627807E+01  1.42534746428908E+00
(PID.TID 0000.0001)  ploadbar=  1.01063542418850E+05
 cg2d: Sum(rhs),rhsMax =  -4.47903904523720E+01  1.41427957116828E+00
(PID.TID 0000.0001)  ploadbar=  1.01064760999275E+05
 cg2d: Sum(rhs),rhsMax =  -4.51352786064982E+01  1.40348136286277E+00
(PID.TID 0000.0001)  ploadbar=  1.01065979579700E+05
 cg2d: Sum(rhs),rhsMax =  -4.54693639572408E+01  1.39310954804784E+00
(PID.TID 0000.0001)  ploadbar=  1.01067198160125E+05
 cg2d: Sum(rhs),rhsMax =  -4.58093367361032E+01  1.38275754969498E+00
(PID.TID 0000.0001)  ploadbar=  1.01067270766572E+05
 cg2d: Sum(rhs),rhsMax =  -4.61462394450989E+01  1.37268743381570E+00
(PID.TID 0000.0001)  ploadbar=  1.01067343373020E+05
 cg2d: Sum(rhs),rhsMax =  -4.64795458426805E+01  1.36290441825801E+00
(PID.TID 0000.0001)  ploadbar=  1.01067415979467E+05
 cg2d: Sum(rhs),rhsMax =  -4.68043533799849E+01  1.35353859423807E+00
(PID.TID 0000.0001)  ploadbar=  1.01067488585915E+05
 cg2d: Sum(rhs),rhsMax =  -4.71126643167861E+01  1.34480012722520E+00
(PID.TID 0000.0001)  ploadbar=  1.01067561192362E+05
 cg2d: Sum(rhs),rhsMax =  -4.73975263217746E+01  1.33686151563133E+00
(PID.TID 0000.0001)  ploadbar=  1.01067633798810E+05
 cg2d: Sum(rhs),rhsMax =  -4.76852948857294E+01  1.32895716166715E+00
(PID.TID 0000.0001)  ploadbar=  1.01068563882807E+05
 cg2d: Sum(rhs),rhsMax =  -4.79648498808133E+01  1.32138965592329E+00
(PID.TID 0000.0001)  ploadbar=  1.01069493966805E+05
 cg2d: Sum(rhs),rhsMax =  -4.82383157327668E+01  1.31409114347624E+00
(PID.TID 0000.0001)  ploadbar=  1.01070424050803E+05
 cg2d: Sum(rhs),rhsMax =  -4.85109626787966E+01  1.30691123350820E+00
(PID.TID 0000.0001)  ploadbar=  1.01071354134801E+05
 cg2d: Sum(rhs),rhsMax =  -4.87842683882836E+01  1.29981253688197E+00
(PID.TID 0000.0001)  ploadbar=  1.01072284218799E+05
 cg2d: Sum(rhs),rhsMax =  -4.90574410007533E+01  1.29281481860495E+00
(PID.TID 0000.0001)  ploadbar=  1.01073214302797E+05
 cg2d: Sum(rhs),rhsMax =  -4.93384731433857E+01  1.28574569373044E+00
(PID.TID 0000.0001)  ploadbar=  1.01073988983019E+05
 cg2d: Sum(rhs),rhsMax =  -4.96293099015272E+01  1.27855461422929E+00
(PID.TID 0000.0001)  ploadbar=  1.01074763663242E+05
 cg2d: Sum(rhs),rhsMax =  -4.99269413304107E+01  1.27132285808482E+00
(PID.TID 0000.0001)  ploadbar=  1.01075538343465E+05
 cg2d: Sum(rhs),rhsMax =  -5.02322601213277E+01  1.26402909968528E+00
(PID.TID 0000.0001)  ploadbar=  1.01076313023688E+05
 cg2d: Sum(rhs),rhsMax =  -5.05444415590846E+01  1.25669856213347E+00
(PID.TID 0000.0001)  ploadbar=  1.01077087703911E+05
 cg2d: Sum(rhs),rhsMax =  -5.08630465964417E+01  1.24934193487594E+00
(PID.TID 0000.0001)  ploadbar=  1.01077862384134E+05
 cg2d: Sum(rhs),rhsMax =  -5.11932449234418E+01  1.24170650592389E+00
(PID.TID 0000.0001)  ploadbar=  1.01078529683079E+05
 cg2d: Sum(rhs),rhsMax =  -5.15325020228813E+01  1.23385982189006E+00
(PID.TID 0000.0001)  ploadbar=  1.01079196982024E+05
 cg2d: Sum(rhs),rhsMax =  -5.18757676316783E+01  1.22592223072435E+00
(PID.TID 0000.0001)  ploadbar=  1.01079864280969E+05
 cg2d: Sum(rhs),rhsMax =  -5.22213233489780E+01  1.21793281015177E+00
(PID.TID 0000.0001)  ploadbar=  1.01080531579914E+05
 cg2d: Sum(rhs),rhsMax =  -5.25680673014908E+01  1.20991435049875E+00
(PID.TID 0000.0001)  ploadbar=  1.01081198878859E+05
 cg2d: Sum(rhs),rhsMax =  -5.29151341271144E+01  1.20188716153277E+00
(PID.TID 0000.0001)  ploadbar=  1.01081866177804E+05
 cg2d: Sum(rhs),rhsMax =  -5.32877650895025E+01  1.19345836912440E+00
(PID.TID 0000.0001)  ploadbar=  1.01081904464539E+05
 cg2d: Sum(rhs),rhsMax =  -5.36713083277412E+01  1.18496230025438E+00
(PID.TID 0000.0001)  ploadbar=  1.01081942751273E+05
 cg2d: Sum(rhs),rhsMax =  -5.40637831756554E+01  1.17644605866321E+00
(PID.TID 0000.0001)  ploadbar=  1.01081981038008E+05
 cg2d: Sum(rhs),rhsMax =  -5.44606785301595E+01  1.16800768054735E+00
(PID.TID 0000.0001)  ploadbar=  1.01082019324742E+05
 cg2d: Sum(rhs),rhsMax =  -5.48520720593003E+01  1.15985516235246E+00
(PID.TID 0000.0001)  ploadbar=  1.01082057611477E+05
 cg2d: Sum(rhs),rhsMax =  -5.52334238589240E+01  1.15207160345082E+00
(PID.TID 0000.0001)  ploadbar=  1.01082095898212E+05
 cg2d: Sum(rhs),rhsMax =  -5.56070833853354E+01  1.14454547872537E+00
(PID.TID 0000.0001)  ploadbar=  1.01083223599957E+05
 cg2d: Sum(rhs),rhsMax =  -5.59720680094266E+01  1.13728879166848E+00
(PID.TID 0000.0001)  ploadbar=  1.01084351301701E+05
 cg2d: Sum(rhs),rhsMax =  -5.63274748416835E+01  1.13031265808359E+00
(PID.TID 0000.0001)  ploadbar=  1.01085479003446E+05
 cg2d: Sum(rhs),rhsMax =  -5.66738538161090E+01  1.12359616190446E+00
(PID.TID 0000.0001)  ploadbar=  1.01086606705191E+05
 cg2d: Sum(rhs),rhsMax =  -5.70152680130568E+01  1.11705150524752E+00
(PID.TID 0000.0001)  ploadbar=  1.01087734406936E+05
 cg2d: Sum(rhs),rhsMax =  -5.73561704571895E+01  1.11058834218009E+00
(PID.TID 0000.0001)  ploadbar=  1.01088862108681E+05
 cg2d: Sum(rhs),rhsMax =  -5.76481671485657E+01  1.10522499510260E+00
(PID.TID 0000.0001)  ploadbar=  1.01089686799558E+05
 cg2d: Sum(rhs),rhsMax =  -5.79480220231881E+01  1.09984973500417E+00
(PID.TID 0000.0001)  ploadbar=  1.01090511490435E+05
 cg2d: Sum(rhs),rhsMax =  -5.82655627376164E+01  1.09427816824307E+00
(PID.TID 0000.0001)  ploadbar=  1.01091336181312E+05
 cg2d: Sum(rhs),rhsMax =  -5.85998800539623E+01  1.08853327164268E+00
(PID.TID 0000.0001)  ploadbar=  1.01092160872189E+05
 cg2d: Sum(rhs),rhsMax =  -5.89456579573690E+01  1.08271809338139E+00
(PID.TID 0000.0001)  ploadbar=  1.01092985563065E+05
 cg2d: Sum(rhs),rhsMax =  -5.93020248225275E+01  1.07684948654384E+00
(PID.TID 0000.0001)  ploadbar=  1.01093810253942E+05
 cg2d: Sum(rhs),rhsMax =  -5.96495330608237E+01  1.07117866540025E+00
(PID.TID 0000.0001)  ploadbar=  1.01093209512456E+05
 cg2d: Sum(rhs),rhsMax =  -5.99983436220557E+01  1.06551443675739E+00
(PID.TID 0000.0001)  ploadbar=  1.01092608770970E+05
 cg2d: Sum(rhs),rhsMax =  -6.03466372146505E+01  1.05988658137309E+00
(PID.TID 0000.0001)  ploadbar=  1.01092008029484E+05
 cg2d: Sum(rhs),rhsMax =  -6.06958738481555E+01  1.05426275687909E+00
(PID.TID 0000.0001)  ploadbar=  1.01091407287998E+05
 cg2d: Sum(rhs),rhsMax =  -6.10463944415103E+01  1.04863517230405E+00
(PID.TID 0000.0001)  ploadbar=  1.01090806546512E+05
 cg2d: Sum(rhs),rhsMax =  -6.13997632404513E+01  1.04297720452708E+00
(PID.TID 0000.0001)  ploadbar=  1.01090205805026E+05
 cg2d: Sum(rhs),rhsMax =  -6.17750164839943E+01  1.03702710042367E+00
(PID.TID 0000.0001)  ploadbar=  1.01088234175209E+05
 cg2d: Sum(rhs),rhsMax =  -6.21527642495484E+01  1.03110846836970E+00
(PID.TID 0000.0001)  ploadbar=  1.01086262545391E+05
 cg2d: Sum(rhs),rhsMax =  -6.25353052260833E+01  1.02518046493131E+00
(PID.TID 0000.0001)  ploadbar=  1.01084290915573E+05
 cg2d: Sum(rhs),rhsMax =  -6.29237929017522E+01  1.01922347711410E+00
(PID.TID 0000.0001)  ploadbar=  1.01082319285756E+05
 cg2d: Sum(rhs),rhsMax =  -6.33200647606557E+01  1.01320604040165E+00
(PID.TID 0000.0001)  ploadbar=  1.01080347655938E+05
 cg2d: Sum(rhs),rhsMax =  -6.37296229286057E+01  1.00704180199797E+00
(PID.TID 0000.0001)  ploadbar=  1.01078376026121E+05
 cg2d: Sum(rhs),rhsMax =  -6.41687597287582E+01  1.00045925928910E+00
(PID.TID 0000.0001)  ploadbar=  1.01077796548182E+05
 cg2d: Sum(rhs),rhsMax =  -6.46059493421411E+01  9.93958130369195E-01
(PID.TID 0000.0001)  ploadbar=  1.01077217070244E+05
 cg2d: Sum(rhs),rhsMax =  -6.50396454287430E+01  9.87557869362197E-01
(PID.TID 0000.0001)  ploadbar=  1.01076637592306E+05
 cg2d: Sum(rhs),rhsMax =  -6.54775336427613E+01  9.81139281562113E-01
(PID.TID 0000.0001)  ploadbar=  1.01076058114367E+05
 cg2d: Sum(rhs),rhsMax =  -6.49464350127917E+01  9.89309955639074E-01
(PID.TID 0000.0001)  ploadbar=  1.01075478636429E+05
 cg2d: Sum(rhs),rhsMax =  -6.43810022574384E+01  9.98107220755986E-01
(PID.TID 0000.0001)  ploadbar=  1.01074899158491E+05
 cg2d: Sum(rhs),rhsMax =  -6.37572252408677E+01  1.00805764939106E+00
(PID.TID 0000.0001)  ploadbar=  1.01075380999151E+05
 cg2d: Sum(rhs),rhsMax =  -6.30870775186809E+01  1.01902658433199E+00
(PID.TID 0000.0001)  ploadbar=  1.01075862839810E+05
 cg2d: Sum(rhs),rhsMax =  -6.23874217459220E+01  1.03078977117585E+00
(PID.TID 0000.0001)  ploadbar=  1.01076344680470E+05
 cg2d: Sum(rhs),rhsMax =  -6.16655726500505E+01  1.04326626422051E+00
(PID.TID 0000.0001)  ploadbar=  1.01076826521130E+05
 cg2d: Sum(rhs),rhsMax =  -6.09258734751887E+01  1.05641704545757E+00
(PID.TID 0000.0001)  ploadbar=  1.01077308361790E+05
 cg2d: Sum(rhs),rhsMax =  -6.01681398393145E+01  1.07027910189145E+00
(PID.TID 0000.0001)  ploadbar=  1.01077790202450E+05
 cg2d: Sum(rhs),rhsMax =  -5.93834647703552E+01  1.08493400886084E+00
(PID.TID 0000.0001)  ploadbar=  1.01077305201141E+05
 cg2d: Sum(rhs),rhsMax =  -5.85971565490258E+01  1.09995706840782E+00
(PID.TID 0000.0001)  ploadbar=  1.01076820199832E+05
 cg2d: Sum(rhs),rhsMax =  -5.78319150710988E+01  1.11492472988785E+00
(PID.TID 0000.0001)  ploadbar=  1.01076335198523E+05
 cg2d: Sum(rhs),rhsMax =  -5.71009637110018E+01  1.12955388189788E+00
(PID.TID 0000.0001)  ploadbar=  1.01075850197214E+05
 cg2d: Sum(rhs),rhsMax =  -5.64135884599236E+01  1.14361387885697E+00
(PID.TID 0000.0001)  ploadbar=  1.01075365195905E+05
 cg2d: Sum(rhs),rhsMax =  -5.57767500918353E+01  1.15690581982483E+00
(PID.TID 0000.0001)  ploadbar=  1.01074880194596E+05
 cg2d: Sum(rhs),rhsMax =  -5.52074734995871E+01  1.16907974907273E+00
(PID.TID 0000.0001)  ploadbar=  1.01074089618621E+05
 cg2d: Sum(rhs),rhsMax =  -5.47115314878558E+01  1.17992492146709E+00
(PID.TID 0000.0001)  ploadbar=  1.01073299042648E+05
 cg2d: Sum(rhs),rhsMax =  -5.42865606395969E+01  1.18940680186482E+00
(PID.TID 0000.0001)  ploadbar=  1.01072508466674E+05
 cg2d: Sum(rhs),rhsMax =  -5.39314058355742E+01  1.19747680072927E+00
(PID.TID 0000.0001)  ploadbar=  1.01071717890700E+05
 cg2d: Sum(rhs),rhsMax =  -5.36520548021332E+01  1.20393850601209E+00
(PID.TID 0000.0001)  ploadbar=  1.01070927314726E+05
 cg2d: Sum(rhs),rhsMax =  -5.34290184656661E+01  1.20917598513293E+00
(PID.TID 0000.0001)  ploadbar=  1.01070136738752E+05
 cg2d: Sum(rhs),rhsMax =  -5.32342744117989E+01  1.21377573362019E+00
(PID.TID 0000.0001)  ploadbar=  1.01069870937047E+05
 cg2d: Sum(rhs),rhsMax =  -5.30258679355742E+01  1.21868607190888E+00
(PID.TID 0000.0001)  ploadbar=  1.01069605135342E+05
 cg2d: Sum(rhs),rhsMax =  -5.27880968162691E+01  1.22427707645264E+00
(PID.TID 0000.0001)  ploadbar=  1.01069339333637E+05
 cg2d: Sum(rhs),rhsMax =  -5.25125090984886E+01  1.23076374758047E+00
(PID.TID 0000.0001)  ploadbar=  1.01069073531932E+05
 cg2d: Sum(rhs),rhsMax =  -5.21962530127027E+01  1.23824171759040E+00
(PID.TID 0000.0001)  ploadbar=  1.01068807730227E+05
 cg2d: Sum(rhs),rhsMax =  -5.18375161093131E+01  1.24679031185460E+00
(PID.TID 0000.0001)  ploadbar=  1.01068541928522E+05
 cg2d: Sum(rhs),rhsMax =  -5.14275227592594E+01  1.25676758926225E+00
(PID.TID 0000.0001)  ploadbar=  1.01068967481420E+05
 cg2d: Sum(rhs),rhsMax =  -5.09648890222459E+01  1.26827242968916E+00
(PID.TID 0000.0001)  ploadbar=  1.01069393034319E+05
 cg2d: Sum(rhs),rhsMax =  -5.04535135745296E+01  1.28128013787612E+00
(PID.TID 0000.0001)  ploadbar=  1.01069818587217E+05
 cg2d: Sum(rhs),rhsMax =  -4.99120302712909E+01  1.29538773830341E+00
(PID.TID 0000.0001)  ploadbar=  1.01070244140115E+05
 cg2d: Sum(rhs),rhsMax =  -4.93551222250167E+01  1.31026656634077E+00
(PID.TID 0000.0001)  ploadbar=  1.01070669693013E+05
 cg2d: Sum(rhs),rhsMax =  -4.87981607957768E+01  1.32553830718750E+00
(PID.TID 0000.0001)  ploadbar=  1.01071095245911E+05
 cg2d: Sum(rhs),rhsMax =  -4.82356193688831E+01  1.34128689216445E+00
(PID.TID 0000.0001)  ploadbar=  1.01071302467314E+05
 cg2d: Sum(rhs),rhsMax =  -4.76766739719828E+01  1.35726971254636E+00
(PID.TID 0000.0001)  ploadbar=  1.01071509688717E+05
 cg2d: Sum(rhs),rhsMax =  -4.71100528439726E+01  1.37381746769351E+00
(PID.TID 0000.0001)  ploadbar=  1.01071716910119E+05
 cg2d: Sum(rhs),rhsMax =  -4.65777302834160E+01  1.38969937992161E+00
(PID.TID 0000.0001)  ploadbar=  1.01071924131522E+05
 cg2d: Sum(rhs),rhsMax =  -4.63327256870396E+01  1.39718097609345E+00
(PID.TID 0000.0001)  ploadbar=  1.01072131352924E+05
 cg2d: Sum(rhs),rhsMax =  -4.60982642316039E+01  1.40437021774566E+00
(PID.TID 0000.0001)  ploadbar=  1.01072338574327E+05
 cg2d: Sum(rhs),rhsMax =  -4.59282607391702E+01  1.40968205685545E+00
(PID.TID 0000.0001)  ploadbar=  1.01072547695481E+05
 cg2d: Sum(rhs),rhsMax =  -4.58370107811666E+01  1.41262424970325E+00
(PID.TID 0000.0001)  ploadbar=  1.01072756816635E+05
 cg2d: Sum(rhs),rhsMax =  -4.58136910017050E+01  1.41349050286911E+00
(PID.TID 0000.0001)  ploadbar=  1.01072965937790E+05
 cg2d: Sum(rhs),rhsMax =  -4.58493029074853E+01  1.41254888416629E+00
(PID.TID 0000.0001)  ploadbar=  1.01073175058944E+05
 cg2d: Sum(rhs),rhsMax =  -4.59342919118301E+01  1.41009469247185E+00
(PID.TID 0000.0001)  ploadbar=  1.01073384180098E+05
 cg2d: Sum(rhs),rhsMax =  -4.60578094299752E+01  1.40646952915190E+00
(PID.TID 0000.0001)  ploadbar=  1.01073593301253E+05
 cg2d: Sum(rhs),rhsMax =  -4.61947873969000E+01  1.40239915468993E+00
(PID.TID 0000.0001)  ploadbar=  1.01074275660696E+05
 cg2d: Sum(rhs),rhsMax =  -4.63711108340487E+01  1.39710796655719E+00
(PID.TID 0000.0001)  ploadbar=  1.01074958020140E+05
 cg2d: Sum(rhs),rhsMax =  -4.65842993329603E+01  1.39069487435556E+00
(PID.TID 0000.0001)  ploadbar=  1.01075640379583E+05
 cg2d: Sum(rhs),rhsMax =  -4.68216261074892E+01  1.38356430849000E+00
(PID.TID 0000.0001)  ploadbar=  1.01076322739027E+05
 cg2d: Sum(rhs),rhsMax =  -4.70992837453161E+01  1.37526605533667E+00
(PID.TID 0000.0001)  ploadbar=  1.01077005098470E+05
 cg2d: Sum(rhs),rhsMax =  -4.58527655272332E+01  1.41244416976549E+00
(PID.TID 0000.0001)  ploadbar=  1.01077687457914E+05
 cg2d: Sum(rhs),rhsMax =  -4.42587670650145E+01  1.46319129107935E+00
(PID.TID 0000.0001)  ploadbar=  1.01077970783535E+05
 cg2d: Sum(rhs),rhsMax =  -4.26637379955083E+01  1.51785975600626E+00
(PID.TID 0000.0001)  ploadbar=  1.01078254109156E+05
 cg2d: Sum(rhs),rhsMax =  -4.15493225488928E+01  1.55862776948824E+00
(PID.TID 0000.0001)  ploadbar=  1.01078537434777E+05
 cg2d: Sum(rhs),rhsMax =  -4.06984647019079E+01  1.59136404931037E+00
(PID.TID 0000.0001)  ploadbar=  1.01078820760398E+05
 cg2d: Sum(rhs),rhsMax =  -4.00847557859557E+01  1.61597575096445E+00
(PID.TID 0000.0001)  ploadbar=  1.01079104086019E+05
 cg2d: Sum(rhs),rhsMax =  -3.96290769092621E+01  1.63490047353748E+00
(PID.TID 0000.0001)  ploadbar=  1.01079387411640E+05
 cg2d: Sum(rhs),rhsMax =  -3.92586809018565E+01  1.65068662825740E+00
(PID.TID 0000.0001)  ploadbar=  1.01079803834281E+05
 cg2d: Sum(rhs),rhsMax =  -3.88869280393485E+01  1.66684281998358E+00
(PID.TID 0000.0001)  ploadbar=  1.01080220256922E+05
 cg2d: Sum(rhs),rhsMax =  -3.85248388410390E+01  1.68289100562608E+00
(PID.TID 0000.0001)  ploadbar=  1.01080636679563E+05
 cg2d: Sum(rhs),rhsMax =  -3.81962407083626E+01  1.69774775453918E+00
(PID.TID 0000.0001)  ploadbar=  1.01081053102204E+05
 cg2d: Sum(rhs),rhsMax =  -3.79168846651385E+01  1.71062857726958E+00
(PID.TID 0000.0001)  ploadbar=  1.01081469524846E+05
 cg2d: Sum(rhs),rhsMax =  -3.77028662587314E+01  1.72070346093745E+00
(PID.TID 0000.0001)  ploadbar=  1.01081885947487E+05
 cg2d: Sum(rhs),rhsMax =  -3.75411195687841E+01  1.72853364263632E+00
(PID.TID 0000.0001)  ploadbar=  1.01081120790955E+05
 cg2d: Sum(rhs),rhsMax =  -3.76752218299997E+01  1.72284160749543E+00
(PID.TID 0000.0001)  ploadbar=  1.01080355634423E+05
 cg2d: Sum(rhs),rhsMax =  -3.79167812220568E+01  1.71235992522527E+00
(PID.TID 0000.0001)  ploadbar=  1.01079590477891E+05
 cg2d: Sum(rhs),rhsMax =  -3.81194294711897E+01  1.70377760594104E+00
(PID.TID 0000.0001)  ploadbar=  1.01078825321360E+05
 cg2d: Sum(rhs),rhsMax =  -3.83593482101923E+01  1.69365650823741E+00
(PID.TID 0000.0001)  ploadbar=  1.01078060164828E+05
 cg2d: Sum(rhs),rhsMax =  -3.86096632072793E+01  1.68321677761721E+00
(PID.TID 0000.0001)  ploadbar=  1.01077295008296E+05
 cg2d: Sum(rhs),rhsMax =  -3.88691108157774E+01  1.67242151539814E+00
(PID.TID 0000.0001)  ploadbar=  1.01077553162755E+05
 cg2d: Sum(rhs),rhsMax =  -3.91374730676154E+01  1.66129237163748E+00
(PID.TID 0000.0001)  ploadbar=  1.01077811317213E+05
 cg2d: Sum(rhs),rhsMax =  -3.94122690766430E+01  1.64994736138769E+00
(PID.TID 0000.0001)  ploadbar=  1.01078069471672E+05
 cg2d: Sum(rhs),rhsMax =  -3.96941109770242E+01  1.63836964589630E+00
(PID.TID 0000.0001)  ploadbar=  1.01078327626130E+05
 cg2d: Sum(rhs),rhsMax =  -3.99794742412891E+01  1.62671401149810E+00
(PID.TID 0000.0001)  ploadbar=  1.01078585780589E+05
 cg2d: Sum(rhs),rhsMax =  -4.02639900171720E+01  1.61516185621299E+00
(PID.TID 0000.0001)  ploadbar=  1.01078843935047E+05
 cg2d: Sum(rhs),rhsMax =  -4.05447546360784E+01  1.60402884737612E+00
(PID.TID 0000.0001)  ploadbar=  1.01079433724395E+05
 cg2d: Sum(rhs),rhsMax =  -4.08172737423881E+01  1.59347281415131E+00
(PID.TID 0000.0001)  ploadbar=  1.01080023513742E+05
 cg2d: Sum(rhs),rhsMax =  -4.10768373809197E+01  1.58364986672814E+00
(PID.TID 0000.0001)  ploadbar=  1.01080613303090E+05
 cg2d: Sum(rhs),rhsMax =  -4.13231097378903E+01  1.57454338118784E+00
(PID.TID 0000.0001)  ploadbar=  1.01081203092438E+05
 cg2d: Sum(rhs),rhsMax =  -4.15598882308203E+01  1.56598757447732E+00
(PID.TID 0000.0001)  ploadbar=  1.01081792881785E+05
 cg2d: Sum(rhs),rhsMax =  -4.17893803473635E+01  1.55788470408644E+00
(PID.TID 0000.0001)  ploadbar=  1.01082382671133E+05
 cg2d: Sum(rhs),rhsMax =  -4.20250095839389E+01  1.54963592512878E+00
(PID.TID 0000.0001)  ploadbar=  1.01082695315896E+05
 cg2d: Sum(rhs),rhsMax =  -4.22646971755146E+01  1.54131559878801E+00
(PID.TID 0000.0001)  ploadbar=  1.01083007960659E+05
 cg2d: Sum(rhs),rhsMax =  -4.25030113423252E+01  1.53311372980924E+00
(PID.TID 0000.0001)  ploadbar=  1.01083320605423E+05
 cg2d: Sum(rhs),rhsMax =  -4.27457815601906E+01  1.52481283994110E+00
(PID.TID 0000.0001)  ploadbar=  1.01083633250186E+05
 cg2d: Sum(rhs),rhsMax =  -4.29876452367226E+01  1.51660476950024E+00
(PID.TID 0000.0001)  ploadbar=  1.01083945894949E+05
 cg2d: Sum(rhs),rhsMax =  -4.32141278900970E+01  1.50899278645800E+00
(PID.TID 0000.0001)  ploadbar=  1.01084258539713E+05
 cg2d: Sum(rhs),rhsMax =  -4.34329549177277E+01  1.50179271485835E+00
(PID.TID 0000.0001)  ploadbar=  1.01083360084891E+05
 cg2d: Sum(rhs),rhsMax =  -4.36484665411155E+01  1.49484161818319E+00
(PID.TID 0000.0001)  ploadbar=  1.01082461630069E+05
 cg2d: Sum(rhs),rhsMax =  -4.38586784961118E+01  1.48819216416635E+00
(PID.TID 0000.0001)  ploadbar=  1.01081563175248E+05
 cg2d: Sum(rhs),rhsMax =  -4.40607157327574E+01  1.48191896977568E+00
(PID.TID 0000.0001)  ploadbar=  1.01080664720426E+05
 cg2d: Sum(rhs),rhsMax =  -4.42553806296572E+01  1.47597890300042E+00
(PID.TID 0000.0001)  ploadbar=  1.01079766265605E+05
 cg2d: Sum(rhs),rhsMax =  -4.44434454989687E+01  1.47033134719996E+00
(PID.TID 0000.0001)  ploadbar=  1.01078867810783E+05
 cg2d: Sum(rhs),rhsMax =  -4.46234907194125E+01  1.46491524794387E+00
(PID.TID 0000.0001)  ploadbar=  1.01078046442995E+05
 cg2d: Sum(rhs),rhsMax =  -4.47942355814572E+01  1.45976557418992E+00
(PID.TID 0000.0001)  ploadbar=  1.01077225075208E+05
 cg2d: Sum(rhs),rhsMax =  -4.49527545055237E+01  1.45496942101930E+00
(PID.TID 0000.0001)  ploadbar=  1.01076403707420E+05
 cg2d: Sum(rhs),rhsMax =  -4.50969713829064E+01  1.45058576660576E+00
(PID.TID 0000.0001)  ploadbar=  1.01075582339632E+05
 cg2d: Sum(rhs),rhsMax =  -4.52278857278975E+01  1.44657462152914E+00
(PID.TID 0000.0001)  ploadbar=  1.01074760971845E+05
 cg2d: Sum(rhs),rhsMax =  -4.53459590567571E+01  1.44291488698644E+00
(PID.TID 0000.0001)  ploadbar=  1.01073939604057E+05
 cg2d: Sum(rhs),rhsMax =  -4.54211310806153E+01  1.44067113898936E+00
(PID.TID 0000.0001)  ploadbar=  1.01074144409993E+05
 cg2d: Sum(rhs),rhsMax =  -4.54859744685104E+01  1.43879252507279E+00
(PID.TID 0000.0001)  ploadbar=  1.01074349215928E+05
 cg2d: Sum(rhs),rhsMax =  -4.55380371424585E+01  1.43734438310978E+00
(PID.TID 0000.0001)  ploadbar=  1.01074554021864E+05
 cg2d: Sum(rhs),rhsMax =  -4.55752496406871E+01  1.43638687035477E+00
(PID.TID 0000.0001)  ploadbar=  1.01074758827799E+05
 cg2d: Sum(rhs),rhsMax =  -4.55991699771557E+01  1.43586878785697E+00
(PID.TID 0000.0001)  ploadbar=  1.01074963633734E+05
 cg2d: Sum(rhs),rhsMax =  -4.56095821375125E+01  1.43579516814609E+00
(PID.TID 0000.0001)  ploadbar=  1.01075168439670E+05
 cg2d: Sum(rhs),rhsMax =  -4.55877589653139E+01  1.43668832168057E+00
(PID.TID 0000.0001)  ploadbar=  1.01075171212820E+05
 cg2d: Sum(rhs),rhsMax =  -4.55544724019011E+01  1.43789075662479E+00
(PID.TID 0000.0001)  ploadbar=  1.01075173985970E+05
 cg2d: Sum(rhs),rhsMax =  -4.55073073792063E+01  1.43947162120399E+00
(PID.TID 0000.0001)  ploadbar=  1.01075176759120E+05
 cg2d: Sum(rhs),rhsMax =  -4.54391695630451E+01  1.44165258462569E+00
(PID.TID 0000.0001)  ploadbar=  1.01075179532270E+05
 cg2d: Sum(rhs),rhsMax =  -4.53465949151805E+01  1.44454616994957E+00
(PID.TID 0000.0001)  ploadbar=  1.01075182305420E+05
 cg2d: Sum(rhs),rhsMax =  -4.52277185174368E+01  1.44821897266292E+00
(PID.TID 0000.0001)  ploadbar=  1.01075185078570E+05
 cg2d: Sum(rhs),rhsMax =  -4.50428028319446E+01  1.45409848753130E+00
(PID.TID 0000.0001)  ploadbar=  1.01074697220188E+05
 cg2d: Sum(rhs),rhsMax =  -4.48395870809864E+01  1.46067919601669E+00
(PID.TID 0000.0001)  ploadbar=  1.01074209361806E+05
 cg2d: Sum(rhs),rhsMax =  -4.46242171418389E+01  1.46776828107483E+00
(PID.TID 0000.0001)  ploadbar=  1.01073721503424E+05
 cg2d: Sum(rhs),rhsMax =  -4.44043021917314E+01  1.47511372284595E+00
(PID.TID 0000.0001)  ploadbar=  1.01073233645042E+05
 cg2d: Sum(rhs),rhsMax =  -4.41888982381822E+01  1.48240547803403E+00
(PID.TID 0000.0001)  ploadbar=  1.01072745786659E+05
 cg2d: Sum(rhs),rhsMax =  -4.39936823815136E+01  1.48910668532034E+00
(PID.TID 0000.0001)  ploadbar=  1.01072257928277E+05
 cg2d: Sum(rhs),rhsMax =  -4.38494207900189E+01  1.49409523479201E+00
(PID.TID 0000.0001)  ploadbar=  1.01072215795796E+05
 cg2d: Sum(rhs),rhsMax =  -4.37560387551821E+01  1.49733842871354E+00
(PID.TID 0000.0001)  ploadbar=  1.01072173663315E+05
 cg2d: Sum(rhs),rhsMax =  -4.37150788001065E+01  1.49875951302968E+00
(PID.TID 0000.0001)  ploadbar=  1.01072131530834E+05
 cg2d: Sum(rhs),rhsMax =  -4.37133287238201E+01  1.49879857264877E+00
(PID.TID 0000.0001)  ploadbar=  1.01072089398353E+05
 cg2d: Sum(rhs),rhsMax =  -4.37326816235593E+01  1.49807413266554E+00
(PID.TID 0000.0001)  ploadbar=  1.01072047265872E+05
 cg2d: Sum(rhs),rhsMax =  -4.37621449973056E+01  1.49696439371614E+00
(PID.TID 0000.0001)  ploadbar=  1.01072005133390E+05
 cg2d: Sum(rhs),rhsMax =  -4.38567024031078E+01  1.49370465348842E+00
(PID.TID 0000.0001)  ploadbar=  1.01071854020955E+05
 cg2d: Sum(rhs),rhsMax =  -4.39610960226074E+01  1.49018901993512E+00
(PID.TID 0000.0001)  ploadbar=  1.01071702908519E+05
 cg2d: Sum(rhs),rhsMax =  -4.40666318764617E+01  1.48670743993812E+00
(PID.TID 0000.0001)  ploadbar=  1.01071551796083E+05
 cg2d: Sum(rhs),rhsMax =  -4.41768736281162E+01  1.48313459791864E+00
(PID.TID 0000.0001)  ploadbar=  1.01071400683647E+05
 cg2d: Sum(rhs),rhsMax =  -4.42999036997179E+01  1.47920171979922E+00
(PID.TID 0000.0001)  ploadbar=  1.01071249571211E+05
 cg2d: Sum(rhs),rhsMax =  -4.44380526284619E+01  1.47483857316766E+00
(PID.TID 0000.0001)  ploadbar=  1.01071098458776E+05
 cg2d: Sum(rhs),rhsMax =  -4.45713778521582E+01  1.47065304408795E+00
(PID.TID 0000.0001)  ploadbar=  1.01070616010841E+05
 cg2d: Sum(rhs),rhsMax =  -4.47145134996521E+01  1.46615886206837E+00
(PID.TID 0000.0001)  ploadbar=  1.01070133562907E+05
 cg2d: Sum(rhs),rhsMax =  -4.48620492000636E+01  1.46153229609507E+00
(PID.TID 0000.0001)  ploadbar=  1.01069651114972E+05
 cg2d: Sum(rhs),rhsMax =  -4.50228553692732E+01  1.45648119826261E+00
(PID.TID 0000.0001)  ploadbar=  1.01069168667038E+05
 cg2d: Sum(rhs),rhsMax =  -4.51944110547354E+01  1.45109267271352E+00
(PID.TID 0000.0001)  ploadbar=  1.01068686219104E+05
 cg2d: Sum(rhs),rhsMax =  -4.53751223391460E+01  1.44542542564124E+00
(PID.TID 0000.0001)  ploadbar=  1.01068203771169E+05
 cg2d: Sum(rhs),rhsMax =  -4.55528477434314E+01  1.43992839796710E+00
(PID.TID 0000.0001)  ploadbar=  1.01067889600660E+05
 cg2d: Sum(rhs),rhsMax =  -4.57478541305019E+01  1.43396161991910E+00
(PID.TID 0000.0001)  ploadbar=  1.01067575430150E+05
 cg2d: Sum(rhs),rhsMax =  -4.59705142417002E+01  1.42720673254659E+00
(PID.TID 0000.0001)  ploadbar=  1.01067261259640E+05
 cg2d: Sum(rhs),rhsMax =  -4.62249855584537E+01  1.41955126525868E+00
(PID.TID 0000.0001)  ploadbar=  1.01066947089130E+05
 cg2d: Sum(rhs),rhsMax =  -4.65130371518532E+01  1.41096810331863E+00
(PID.TID 0000.0001)  ploadbar=  1.01066632918621E+05
 cg2d: Sum(rhs),rhsMax =  -4.68423540556369E+01  1.40125805464569E+00
(PID.TID 0000.0001)  ploadbar=  1.01066318748111E+05
 cg2d: Sum(rhs),rhsMax =  -4.71876040723197E+01  1.39115421292593E+00
(PID.TID 0000.0001)  ploadbar=  1.01066523597464E+05
 cg2d: Sum(rhs),rhsMax =  -4.75878214620087E+01  1.37953943761304E+00
(PID.TID 0000.0001)  ploadbar=  1.01066728446817E+05
 cg2d: Sum(rhs),rhsMax =  -4.80655200007638E+01  1.36585180255528E+00
(PID.TID 0000.0001)  ploadbar=  1.01066933296171E+05
 cg2d: Sum(rhs),rhsMax =  -4.86253300871362E+01  1.35009186639997E+00
(PID.TID 0000.0001)  ploadbar=  1.01067138145524E+05
 cg2d: Sum(rhs),rhsMax =  -4.92847900793933E+01  1.33193473199302E+00
(PID.TID 0000.0001)  ploadbar=  1.01067342994877E+05
 cg2d: Sum(rhs),rhsMax =  -5.00655983077546E+01  1.31101445765636E+00
(PID.TID 0000.0001)  ploadbar=  1.01067547844231E+05
 cg2d: Sum(rhs),rhsMax =  -5.09646204103155E+01  1.28779940477158E+00
(PID.TID 0000.0001)  ploadbar=  1.01066804910001E+05
 cg2d: Sum(rhs),rhsMax =  -5.19813912820157E+01  1.26257560566776E+00
(PID.TID 0000.0001)  ploadbar=  1.01066061975771E+05
 cg2d: Sum(rhs),rhsMax =  -5.31412385521266E+01  1.23503170095560E+00
(PID.TID 0000.0001)  ploadbar=  1.01065319041542E+05
 cg2d: Sum(rhs),rhsMax =  -5.44339095607709E+01  1.20575367625802E+00
(PID.TID 0000.0001)  ploadbar=  1.01064576107312E+05
 cg2d: Sum(rhs),rhsMax =  -5.36128441473597E+01  1.22430540184760E+00
(PID.TID 0000.0001)  ploadbar=  1.01063833173082E+05
 cg2d: Sum(rhs),rhsMax =  -5.24741150411786E+01  1.25099598468703E+00
(PID.TID 0000.0001)  ploadbar=  1.01063090238853E+05
 cg2d: Sum(rhs),rhsMax =  -5.13943886892521E+01  1.27738680439228E+00
(PID.TID 0000.0001)  ploadbar=  1.01063379898394E+05
 cg2d: Sum(rhs),rhsMax =  -5.03745536204597E+01  1.30333895338473E+00
(PID.TID 0000.0001)  ploadbar=  1.01063669557936E+05
 cg2d: Sum(rhs),rhsMax =  -4.94336007316465E+01  1.32821025924460E+00
(PID.TID 0000.0001)  ploadbar=  1.01063959217477E+05
 cg2d: Sum(rhs),rhsMax =  -4.85703755802383E+01  1.35184560748422E+00
(PID.TID 0000.0001)  ploadbar=  1.01064248877018E+05
 cg2d: Sum(rhs),rhsMax =  -4.77790486832204E+01  1.37423066371521E+00
(PID.TID 0000.0001)  ploadbar=  1.01064538536560E+05
 cg2d: Sum(rhs),rhsMax =  -4.70502601866201E+01  1.39548037735875E+00
(PID.TID 0000.0001)  ploadbar=  1.01064828196101E+05
 cg2d: Sum(rhs),rhsMax =  -4.63885542859815E+01  1.41536909117936E+00
(PID.TID 0000.0001)  ploadbar=  1.01065356269236E+05
 cg2d: Sum(rhs),rhsMax =  -4.57697916953390E+01  1.43449867959599E+00
(PID.TID 0000.0001)  ploadbar=  1.01065884342370E+05
 cg2d: Sum(rhs),rhsMax =  -4.51910462262472E+01  1.45286500762055E+00
(PID.TID 0000.0001)  ploadbar=  1.01066412415505E+05
 cg2d: Sum(rhs),rhsMax =  -4.46517570917286E+01  1.47039743935260E+00
(PID.TID 0000.0001)  ploadbar=  1.01066940488639E+05
 cg2d: Sum(rhs),rhsMax =  -4.41527820082591E+01  1.48698772164570E+00
(PID.TID 0000.0001)  ploadbar=  1.01067468561774E+05
 cg2d: Sum(rhs),rhsMax =  -4.36966385409430E+01  1.50246948577760E+00
(PID.TID 0000.0001)  ploadbar=  1.01067996634908E+05
 cg2d: Sum(rhs),rhsMax =  -4.32804012775590E+01  1.51684254911851E+00
(PID.TID 0000.0001)  ploadbar=  1.01069738467390E+05
 cg2d: Sum(rhs),rhsMax =  -4.29113874845843E+01  1.52976770626889E+00
(PID.TID 0000.0001)  ploadbar=  1.01071480299873E+05
 cg2d: Sum(rhs),rhsMax =  -4.25765731840616E+01  1.54163222041417E+00
(PID.TID 0000.0001)  ploadbar=  1.01073222132355E+05
 cg2d: Sum(rhs),rhsMax =  -4.22766864554897E+01  1.55235427416756E+00
(PID.TID 0000.0001)  ploadbar=  1.01074963964837E+05
 cg2d: Sum(rhs),rhsMax =  -4.20065705025338E+01  1.56207472910880E+00
(PID.TID 0000.0001)  ploadbar=  1.01076705797319E+05
 cg2d: Sum(rhs),rhsMax =  -4.17686395877656E+01  1.57066020769085E+00
(PID.TID 0000.0001)  ploadbar=  1.01078447629801E+05
 cg2d: Sum(rhs),rhsMax =  -4.15300617297471E+01  1.57950093813134E+00
(PID.TID 0000.0001)  ploadbar=  1.01080620880506E+05
 cg2d: Sum(rhs),rhsMax =  -4.13015273565788E+01  1.58818988049072E+00
(PID.TID 0000.0001)  ploadbar=  1.01082794131211E+05
 cg2d: Sum(rhs),rhsMax =  -4.10793886105258E+01  1.59685647852125E+00
(PID.TID 0000.0001)  ploadbar=  1.01084967381915E+05
 cg2d: Sum(rhs),rhsMax =  -4.08683070569020E+01  1.60530457548791E+00
(PID.TID 0000.0001)  ploadbar=  1.01087140632620E+05
 cg2d: Sum(rhs),rhsMax =  -4.06775071691768E+01  1.61314768100862E+00
(PID.TID 0000.0001)  ploadbar=  1.01089313883325E+05
 cg2d: Sum(rhs),rhsMax =  -4.05146683421088E+01  1.62005691395293E+00
(PID.TID 0000.0001)  ploadbar=  1.01091487134029E+05
 cg2d: Sum(rhs),rhsMax =  -4.03693713045763E+01  1.62625456672529E+00
(PID.TID 0000.0001)  ploadbar=  1.01093559835072E+05
 cg2d: Sum(rhs),rhsMax =  -4.02421286594924E+01  1.63169439708343E+00
(PID.TID 0000.0001)  ploadbar=  1.01095632536115E+05
 cg2d: Sum(rhs),rhsMax =  -4.01251954452428E+01  1.63667721468461E+00
(PID.TID 0000.0001)  ploadbar=  1.01097705237158E+05
 cg2d: Sum(rhs),rhsMax =  -4.00133405964629E+01  1.64140644441049E+00
(PID.TID 0000.0001)  ploadbar=  1.01099777938200E+05
 cg2d: Sum(rhs),rhsMax =  -3.99079653791014E+01  1.64582099927905E+00
(PID.TID 0000.0001)  ploadbar=  1.01101850639243E+05
 cg2d: Sum(rhs),rhsMax =  -3.97974916606820E+01  1.65039276284386E+00
(PID.TID 0000.0001)  ploadbar=  1.01103923340286E+05
 cg2d: Sum(rhs),rhsMax =  -3.96587460502404E+01  1.65622548581284E+00
(PID.TID 0000.0001)  ploadbar=  1.01105917522678E+05
 cg2d: Sum(rhs),rhsMax =  -3.95018322770811E+01  1.66290927309480E+00
(PID.TID 0000.0001)  ploadbar=  1.01107911705070E+05
 cg2d: Sum(rhs),rhsMax =  -3.93218899847540E+01  1.67065568859212E+00
(PID.TID 0000.0001)  ploadbar=  1.01109905887462E+05
 cg2d: Sum(rhs),rhsMax =  -3.91201829988922E+01  1.67943224183806E+00
(PID.TID 0000.0001)  ploadbar=  1.01111900069854E+05
 cg2d: Sum(rhs),rhsMax =  -3.88997854521195E+01  1.68912838591284E+00
(PID.TID 0000.0001)  ploadbar=  1.01113894252245E+05
 cg2d: Sum(rhs),rhsMax =  -3.86650763225354E+01  1.69957334258915E+00
(PID.TID 0000.0001)  ploadbar=  1.01115888434637E+05
 cg2d: Sum(rhs),rhsMax =  -3.84026991991992E+01  1.71130491806739E+00
(PID.TID 0000.0001)  ploadbar=  1.01118159780462E+05
 cg2d: Sum(rhs),rhsMax =  -3.81091530079717E+01  1.72452992381506E+00
(PID.TID 0000.0001)  ploadbar=  1.01120431126287E+05
 cg2d: Sum(rhs),rhsMax =  -3.77891457444281E+01  1.73909483028533E+00
(PID.TID 0000.0001)  ploadbar=  1.01122702472112E+05
 cg2d: Sum(rhs),rhsMax =  -3.74422560684958E+01  1.75508404434766E+00
(PID.TID 0000.0001)  ploadbar=  1.01124973817937E+05
 cg2d: Sum(rhs),rhsMax =  -3.70694603597207E+01  1.77251921669495E+00
(PID.TID 0000.0001)  ploadbar=  1.01127245163762E+05
 cg2d: Sum(rhs),rhsMax =  -3.66735352042113E+01  1.79134403509123E+00
(PID.TID 0000.0001)  ploadbar=  1.01129516509587E+05
 cg2d: Sum(rhs),rhsMax =  -3.62312109992558E+01  1.81299812408867E+00
(PID.TID 0000.0001)  ploadbar=  1.01130659557137E+05
 cg2d: Sum(rhs),rhsMax =  -3.57593243416837E+01  1.83680335631305E+00
(PID.TID 0000.0001)  ploadbar=  1.01131802604686E+05
 cg2d: Sum(rhs),rhsMax =  -3.52770970136171E+01  1.86188361736982E+00
(PID.TID 0000.0001)  ploadbar=  1.01132945652235E+05
 cg2d: Sum(rhs),rhsMax =  -3.48031703427476E+01  1.88728468635747E+00
(PID.TID 0000.0001)  ploadbar=  1.01134088699784E+05
 cg2d: Sum(rhs),rhsMax =  -3.43631155362474E+01  1.91156944267274E+00
(PID.TID 0000.0001)  ploadbar=  1.01135231747333E+05
 cg2d: Sum(rhs),rhsMax =  -3.39816374623365E+01  1.93321157022162E+00
(PID.TID 0000.0001)  ploadbar=  1.01136374794883E+05
 cg2d: Sum(rhs),rhsMax =  -3.37098316971411E+01  1.94893167309638E+00
(PID.TID 0000.0001)  ploadbar=  1.01137932159011E+05
 cg2d: Sum(rhs),rhsMax =  -3.35615050290367E+01  1.95762228835607E+00
(PID.TID 0000.0001)  ploadbar=  1.01139489523139E+05
 cg2d: Sum(rhs),rhsMax =  -3.35528548617093E+01  1.95814809967106E+00
(PID.TID 0000.0001)  ploadbar=  1.01141046887267E+05
 cg2d: Sum(rhs),rhsMax =  -3.36775790740789E+01  1.95086006003978E+00
(PID.TID 0000.0001)  ploadbar=  1.01142604251395E+05
 cg2d: Sum(rhs),rhsMax =  -3.39279510638376E+01  1.93636962928148E+00
(PID.TID 0000.0001)  ploadbar=  1.01144161615523E+05
 cg2d: Sum(rhs),rhsMax =  -3.42936103119224E+01  1.91557671448382E+00
(PID.TID 0000.0001)  ploadbar=  1.01145718979652E+05
 cg2d: Sum(rhs),rhsMax =  -3.47601293162245E+01  1.88978195422575E+00
(PID.TID 0000.0001)  ploadbar=  1.01146384758125E+05
 cg2d: Sum(rhs),rhsMax =  -3.53241467901934E+01  1.85955588600697E+00
(PID.TID 0000.0001)  ploadbar=  1.01147050536597E+05
 cg2d: Sum(rhs),rhsMax =  -3.59879650224732E+01  1.82521663190193E+00
(PID.TID 0000.0001)  ploadbar=  1.01147716315070E+05
 cg2d: Sum(rhs),rhsMax =  -3.67589544423913E+01  1.78690362122503E+00
(PID.TID 0000.0001)  ploadbar=  1.01148382093543E+05
 cg2d: Sum(rhs),rhsMax =  -3.76382599742292E+01  1.74512612246266E+00
(PID.TID 0000.0001)  ploadbar=  1.01149047872016E+05
 cg2d: Sum(rhs),rhsMax =  -3.86166277012268E+01  1.70087810682254E+00
(PID.TID 0000.0001)  ploadbar=  1.01149713650489E+05
 cg2d: Sum(rhs),rhsMax =  -3.96947656829084E+01  1.65459568891368E+00
(PID.TID 0000.0001)  ploadbar=  1.01149938498112E+05
 cg2d: Sum(rhs),rhsMax =  -4.08580026697619E+01  1.60735164437067E+00
(PID.TID 0000.0001)  ploadbar=  1.01150163345735E+05
 cg2d: Sum(rhs),rhsMax =  -4.20827922503706E+01  1.56038016956922E+00
(PID.TID 0000.0001)  ploadbar=  1.01150388193358E+05
 cg2d: Sum(rhs),rhsMax =  -4.33594839515179E+01  1.51419022243431E+00
(PID.TID 0000.0001)  ploadbar=  1.01150613040981E+05
 cg2d: Sum(rhs),rhsMax =  -4.46749156168720E+01  1.46930124212829E+00
(PID.TID 0000.0001)  ploadbar=  1.01150837888604E+05
 cg2d: Sum(rhs),rhsMax =  -4.60134496056185E+01  1.42619774984128E+00
(PID.TID 0000.0001)  ploadbar=  1.01151062736227E+05
 cg2d: Sum(rhs),rhsMax =  -4.73864249175448E+01  1.38458082071668E+00
(PID.TID 0000.0001)  ploadbar=  1.01151058725650E+05
 cg2d: Sum(rhs),rhsMax =  -4.89855426920816E+01  1.33914850057928E+00
(PID.TID 0000.0001)  ploadbar=  1.01151054715073E+05
 cg2d: Sum(rhs),rhsMax =  -5.10065656900327E+01  1.28590743760832E+00
(PID.TID 0000.0001)  ploadbar=  1.01151050704496E+05
 cg2d: Sum(rhs),rhsMax =  -5.34940202784523E+01  1.22597974821981E+00
(PID.TID 0000.0001)  ploadbar=  1.01151046693919E+05
 cg2d: Sum(rhs),rhsMax =  -5.63879687810173E+01  1.16296147961344E+00
(PID.TID 0000.0001)  ploadbar=  1.01151042683342E+05
 cg2d: Sum(rhs),rhsMax =  -5.96586888002681E+01  1.09913113433213E+00
(PID.TID 0000.0001)  ploadbar=  1.01151038672765E+05
 cg2d: Sum(rhs),rhsMax =  -6.29891110750611E+01  1.04095059528313E+00
(PID.TID 0000.0001)  ploadbar=  1.01151425596515E+05
 cg2d: Sum(rhs),rhsMax =  -6.03598311247970E+01  1.08622417418668E+00
(PID.TID 0000.0001)  ploadbar=  1.01151812520265E+05
 cg2d: Sum(rhs),rhsMax =  -5.88640645051128E+01  1.11374898565389E+00
(PID.TID 0000.0001)  ploadbar=  1.01152199444016E+05
 cg2d: Sum(rhs),rhsMax =  -5.79565382528138E+01  1.13110349065764E+00
(PID.TID 0000.0001)  ploadbar=  1.01152586367766E+05
 cg2d: Sum(rhs),rhsMax =  -5.72691254119272E+01  1.14458434338199E+00
(PID.TID 0000.0001)  ploadbar=  1.01152973291516E+05
 cg2d: Sum(rhs),rhsMax =  -5.66381827414768E+01  1.15722586587547E+00
(PID.TID 0000.0001)  ploadbar=  1.01153360215266E+05
 cg2d: Sum(rhs),rhsMax =  -5.60064037855363E+01  1.17020563203222E+00
(PID.TID 0000.0001)  ploadbar=  1.01152903098197E+05
 cg2d: Sum(rhs),rhsMax =  -5.53926558728105E+01  1.18311959449326E+00
(PID.TID 0000.0001)  ploadbar=  1.01152445981128E+05
 cg2d: Sum(rhs),rhsMax =  -5.47966241161940E+01  1.19595633324940E+00
(PID.TID 0000.0001)  ploadbar=  1.01151988864059E+05
 cg2d: Sum(rhs),rhsMax =  -5.42208950322664E+01  1.20863901956539E+00
(PID.TID 0000.0001)  ploadbar=  1.01151531746990E+05
 cg2d: Sum(rhs),rhsMax =  -5.36665864377749E+01  1.22111996985631E+00
(PID.TID 0000.0001)  ploadbar=  1.01151074629920E+05
 cg2d: Sum(rhs),rhsMax =  -5.31647688338835E+01  1.23265317537206E+00
(PID.TID 0000.0001)  ploadbar=  1.01150617512851E+05
 cg2d: Sum(rhs),rhsMax =  -5.27584959607557E+01  1.24211264980245E+00
(PID.TID 0000.0001)  ploadbar=  1.01150405509316E+05
 cg2d: Sum(rhs),rhsMax =  -5.24026607910100E+01  1.25047124957794E+00
(PID.TID 0000.0001)  ploadbar=  1.01150193505780E+05
 cg2d: Sum(rhs),rhsMax =  -5.21455102579120E+01  1.25651774082375E+00
(PID.TID 0000.0001)  ploadbar=  1.01149981502245E+05
 cg2d: Sum(rhs),rhsMax =  -5.20546246414390E+01  1.25854027327495E+00
(PID.TID 0000.0001)  ploadbar=  1.01149769498709E+05
 cg2d: Sum(rhs),rhsMax =  -5.20649588905530E+01  1.25806614468191E+00
(PID.TID 0000.0001)  ploadbar=  1.01149557495173E+05
 cg2d: Sum(rhs),rhsMax =  -5.21121809045394E+01  1.25664921348354E+00
(PID.TID 0000.0001)  ploadbar=  1.01149345491638E+05
 cg2d: Sum(rhs),rhsMax =  -5.19530936658291E+01  1.26032751737351E+00
(PID.TID 0000.0001)  ploadbar=  1.01148151061403E+05
 cg2d: Sum(rhs),rhsMax =  -5.15152787534975E+01  1.27097291419089E+00
(PID.TID 0000.0001)  ploadbar=  1.01146956631168E+05
 cg2d: Sum(rhs),rhsMax =  -5.07948530412754E+01  1.28903664810312E+00
(PID.TID 0000.0001)  ploadbar=  1.01145762200933E+05
 cg2d: Sum(rhs),rhsMax =  -4.99230416347834E+01  1.31169189181055E+00
(PID.TID 0000.0001)  ploadbar=  1.01144567770698E+05
 cg2d: Sum(rhs),rhsMax =  -4.86093684710888E+01  1.34739755508860E+00
(PID.TID 0000.0001)  ploadbar=  1.01143373340463E+05
 cg2d: Sum(rhs),rhsMax =  -4.73143132684086E+01  1.38464600150148E+00
(PID.TID 0000.0001)  ploadbar=  1.01142178910228E+05
 cg2d: Sum(rhs),rhsMax =  -4.59385307476036E+01  1.42644238649777E+00
(PID.TID 0000.0001)  ploadbar=  1.01141401859691E+05
 cg2d: Sum(rhs),rhsMax =  -4.45479918405923E+01  1.47125047037226E+00
(PID.TID 0000.0001)  ploadbar=  1.01140624809154E+05
 cg2d: Sum(rhs),rhsMax =  -4.31751620184039E+01  1.51826241155909E+00
(PID.TID 0000.0001)  ploadbar=  1.01139847758617E+05
 cg2d: Sum(rhs),rhsMax =  -4.18231990069242E+01  1.56751195489928E+00
(PID.TID 0000.0001)  ploadbar=  1.01139070708080E+05
 cg2d: Sum(rhs),rhsMax =  -4.05126449914967E+01  1.61832175404586E+00
(PID.TID 0000.0001)  ploadbar=  1.01138293657543E+05
 cg2d: Sum(rhs),rhsMax =  -3.92541492903579E+01  1.67023053883459E+00
(PID.TID 0000.0001)  ploadbar=  1.01137516607006E+05
 cg2d: Sum(rhs),rhsMax =  -3.80134530378922E+01  1.72477587025646E+00
(PID.TID 0000.0001)  ploadbar=  1.01136493715836E+05
 cg2d: Sum(rhs),rhsMax =  -3.67798560386188E+01  1.78265366961355E+00
(PID.TID 0000.0001)  ploadbar=  1.01135470824665E+05
 cg2d: Sum(rhs),rhsMax =  -3.56283069719691E+01  1.84029087886502E+00
(PID.TID 0000.0001)  ploadbar=  1.01134447933494E+05
 cg2d: Sum(rhs),rhsMax =  -3.45582406824168E+01  1.89727917167287E+00
(PID.TID 0000.0001)  ploadbar=  1.01133425042324E+05
 cg2d: Sum(rhs),rhsMax =  -3.35486877073129E+01  1.95435789227935E+00
(PID.TID 0000.0001)  ploadbar=  1.01132402151153E+05
 cg2d: Sum(rhs),rhsMax =  -3.25916166131921E+01  2.01170545699019E+00
(PID.TID 0000.0001)  ploadbar=  1.01131379259982E+05
 cg2d: Sum(rhs),rhsMax =  -3.16887188800432E+01  2.06888472455302E+00
(PID.TID 0000.0001)  ploadbar=  1.01131016250265E+05
 cg2d: Sum(rhs),rhsMax =  -3.08444888405802E+01  2.12526413099524E+00
(PID.TID 0000.0001)  ploadbar=  1.01130653240549E+05
 cg2d: Sum(rhs),rhsMax =  -3.00651918748613E+01  2.17998622650896E+00
(PID.TID 0000.0001)  ploadbar=  1.01130290230832E+05
 cg2d: Sum(rhs),rhsMax =  -2.93515103985853E+01  2.23250171337529E+00
(PID.TID 0000.0001)  ploadbar=  1.01129927221115E+05
 cg2d: Sum(rhs),rhsMax =  -2.87016192019430E+01  2.28243014919587E+00
(PID.TID 0000.0001)  ploadbar=  1.01129564211398E+05
 cg2d: Sum(rhs),rhsMax =  -2.81113408203568E+01  2.32959725943221E+00
(PID.TID 0000.0001)  ploadbar=  1.01129201201681E+05
 cg2d: Sum(rhs),rhsMax =  -2.75742943232661E+01  2.37435516150450E+00
(PID.TID 0000.0001)  ploadbar=  1.01129176840250E+05
 cg2d: Sum(rhs),rhsMax =  -2.70870940544375E+01  2.41659523648726E+00
(PID.TID 0000.0001)  ploadbar=  1.01129152478819E+05
 cg2d: Sum(rhs),rhsMax =  -2.66484399284055E+01  2.45605686766976E+00
(PID.TID 0000.0001)  ploadbar=  1.01129128117388E+05
 cg2d: Sum(rhs),rhsMax =  -2.62560083672628E+01  2.49259634677772E+00
(PID.TID 0000.0001)  ploadbar=  1.01129103755956E+05
 cg2d: Sum(rhs),rhsMax =  -2.59236318036566E+01  2.52453128975369E+00
(PID.TID 0000.0001)  ploadbar=  1.01129079394525E+05
 cg2d: Sum(rhs),rhsMax =  -2.56419840097005E+01  2.55238144237688E+00
(PID.TID 0000.0001)  ploadbar=  1.01129055033094E+05
 cg2d: Sum(rhs),rhsMax =  -2.54117664262536E+01  2.57567126589394E+00
(PID.TID 0000.0001)  ploadbar=  1.01128435533051E+05
 cg2d: Sum(rhs),rhsMax =  -2.52242078699741E+01  2.59501565907662E+00
(PID.TID 0000.0001)  ploadbar=  1.01127816033008E+05
 cg2d: Sum(rhs),rhsMax =  -2.50649096919157E+01  2.61171156303573E+00
(PID.TID 0000.0001)  ploadbar=  1.01127196532965E+05
 cg2d: Sum(rhs),rhsMax =  -2.49147841698589E+01  2.62765238956951E+00
(PID.TID 0000.0001)  ploadbar=  1.01126577032922E+05
 cg2d: Sum(rhs),rhsMax =  -2.47790323625769E+01  2.64224351144547E+00
(PID.TID 0000.0001)  ploadbar=  1.01125957532879E+05
 cg2d: Sum(rhs),rhsMax =  -2.46578198328333E+01  2.65541403493381E+00
(PID.TID 0000.0001)  ploadbar=  1.01125338032837E+05
 cg2d: Sum(rhs),rhsMax =  -2.45556636043039E+01  2.66659271344413E+00
(PID.TID 0000.0001)  ploadbar=  1.01123930954953E+05
 cg2d: Sum(rhs),rhsMax =  -2.44711350693726E+01  2.67587387116588E+00
(PID.TID 0000.0001)  ploadbar=  1.01122523877070E+05
 cg2d: Sum(rhs),rhsMax =  -2.44014953532503E+01  2.68351137381251E+00
(PID.TID 0000.0001)  ploadbar=  1.01121116799186E+05
 cg2d: Sum(rhs),rhsMax =  -2.43431623672082E+01  2.68986658853778E+00
(PID.TID 0000.0001)  ploadbar=  1.01119709721303E+05
 cg2d: Sum(rhs),rhsMax =  -2.42938006539473E+01  2.69517431497375E+00
(PID.TID 0000.0001)  ploadbar=  1.01118302643420E+05
 cg2d: Sum(rhs),rhsMax =  -2.42509443557762E+01  2.69968576461482E+00
(PID.TID 0000.0001)  ploadbar=  1.01116895565537E+05
 cg2d: Sum(rhs),rhsMax =  -2.42046362427863E+01  2.70454883926471E+00
(PID.TID 0000.0001)  ploadbar=  1.01115522792191E+05
 cg2d: Sum(rhs),rhsMax =  -2.41598963793546E+01  2.70920043274905E+00
(PID.TID 0000.0001)  ploadbar=  1.01114150018846E+05
 cg2d: Sum(rhs),rhsMax =  -2.41243290532949E+01  2.71277667216849E+00
(PID.TID 0000.0001)  ploadbar=  1.01112777245501E+05
 cg2d: Sum(rhs),rhsMax =  -2.41037176619509E+01  2.71461678755659E+00
(PID.TID 0000.0001)  ploadbar=  1.01111404472156E+05
 cg2d: Sum(rhs),rhsMax =  -2.41018206323685E+01  2.71428537744551E+00
(PID.TID 0000.0001)  ploadbar=  1.01110031698810E+05
 cg2d: Sum(rhs),rhsMax =  -2.41164600588550E+01  2.71202341162240E+00
(PID.TID 0000.0001)  ploadbar=  1.01108658925465E+05
 cg2d: Sum(rhs),rhsMax =  -2.41507738602896E+01  2.70781522673110E+00
(PID.TID 0000.0001)  ploadbar=  1.01107490639403E+05
 cg2d: Sum(rhs),rhsMax =  -2.42014998190982E+01  2.70203448144067E+00
(PID.TID 0000.0001)  ploadbar=  1.01106322353341E+05
 cg2d: Sum(rhs),rhsMax =  -2.42670808181062E+01  2.69486704420783E+00
(PID.TID 0000.0001)  ploadbar=  1.01105154067278E+05
 cg2d: Sum(rhs),rhsMax =  -2.43458623251582E+01  2.68650481441518E+00
(PID.TID 0000.0001)  ploadbar=  1.01103985781216E+05
 cg2d: Sum(rhs),rhsMax =  -2.44358911105972E+01  2.67717889962555E+00
(PID.TID 0000.0001)  ploadbar=  1.01102817495154E+05
 cg2d: Sum(rhs),rhsMax =  -2.45354239203980E+01  2.66709676181965E+00
(PID.TID 0000.0001)  ploadbar=  1.01101649209091E+05
 cg2d: Sum(rhs),rhsMax =  -2.46392009411358E+01  2.65663840508104E+00
(PID.TID 0000.0001)  ploadbar=  1.01100497555610E+05
 cg2d: Sum(rhs),rhsMax =  -2.47462011932151E+01  2.64590954491442E+00
(PID.TID 0000.0001)  ploadbar=  1.01099345902128E+05
 cg2d: Sum(rhs),rhsMax =  -2.48561695567902E+01  2.63493526042418E+00
(PID.TID 0000.0001)  ploadbar=  1.01098194248647E+05
 cg2d: Sum(rhs),rhsMax =  -2.49698206865272E+01  2.62364723821855E+00
(PID.TID 0000.0001)  ploadbar=  1.01097042595166E+05
 cg2d: Sum(rhs),rhsMax =  -2.50872299368674E+01  2.61204373537630E+00
(PID.TID 0000.0001)  ploadbar=  1.01095890941684E+05
 cg2d: Sum(rhs),rhsMax =  -2.52083999466921E+01  2.60013024574699E+00
(PID.TID 0000.0001)  ploadbar=  1.01094739288203E+05
 cg2d: Sum(rhs),rhsMax =  -2.53378396892037E+01  2.58751742962487E+00
(PID.TID 0000.0001)  ploadbar=  1.01093022608513E+05
 cg2d: Sum(rhs),rhsMax =  -2.54702361536339E+01  2.57475185162075E+00
(PID.TID 0000.0001)  ploadbar=  1.01091305928823E+05
 cg2d: Sum(rhs),rhsMax =  -2.56048187346610E+01  2.56190729717851E+00
(PID.TID 0000.0001)  ploadbar=  1.01089589249133E+05
 cg2d: Sum(rhs),rhsMax =  -2.57403004273292E+01  2.54911016747163E+00
(PID.TID 0000.0001)  ploadbar=  1.01087872569443E+05
 cg2d: Sum(rhs),rhsMax =  -2.58759570711732E+01  2.53642853775574E+00
(PID.TID 0000.0001)  ploadbar=  1.01086155889754E+05
 cg2d: Sum(rhs),rhsMax =  -2.60090254479198E+01  2.52411763994872E+00
(PID.TID 0000.0001)  ploadbar=  1.01084439210064E+05
 cg2d: Sum(rhs),rhsMax =  -2.61313960755559E+01  2.51288427958735E+00
(PID.TID 0000.0001)  ploadbar=  1.01084061144732E+05
 cg2d: Sum(rhs),rhsMax =  -2.62446379416948E+01  2.50254472376794E+00
(PID.TID 0000.0001)  ploadbar=  1.01083683079401E+05
 cg2d: Sum(rhs),rhsMax =  -2.63505098670392E+01  2.49290337671751E+00
(PID.TID 0000.0001)  ploadbar=  1.01083305014070E+05
 cg2d: Sum(rhs),rhsMax =  -2.64537130758848E+01  2.48350199575255E+00
(PID.TID 0000.0001)  ploadbar=  1.01082926948738E+05
 cg2d: Sum(rhs),rhsMax =  -2.65550016724218E+01  2.47425807963130E+00
(PID.TID 0000.0001)  ploadbar=  1.01082548883407E+05
 cg2d: Sum(rhs),rhsMax =  -2.66537375921147E+01  2.46522367844108E+00
(PID.TID 0000.0001)  ploadbar=  1.01082170818075E+05
 cg2d: Sum(rhs),rhsMax =  -2.67582846856530E+01  2.45588090821538E+00
(PID.TID 0000.0001)  ploadbar=  1.01081397867251E+05
 cg2d: Sum(rhs),rhsMax =  -2.68703074287848E+01  2.44608303020270E+00
(PID.TID 0000.0001)  ploadbar=  1.01080624916427E+05
 cg2d: Sum(rhs),rhsMax =  -2.69882357204624E+01  2.43597973130014E+00
(PID.TID 0000.0001)  ploadbar=  1.01079851965602E+05
 cg2d: Sum(rhs),rhsMax =  -2.71112258957646E+01  2.42564804193826E+00
(PID.TID 0000.0001)  ploadbar=  1.01079079014778E+05
 cg2d: Sum(rhs),rhsMax =  -2.72385910688834E+01  2.41514780121844E+00
(PID.TID 0000.0001)  ploadbar=  1.01078306063954E+05
 cg2d: Sum(rhs),rhsMax =  -2.73698993453857E+01  2.40451345423304E+00
(PID.TID 0000.0001)  ploadbar=  1.01077533113129E+05
 cg2d: Sum(rhs),rhsMax =  -2.75001100637996E+01  2.39399962108001E+00
(PID.TID 0000.0001)  ploadbar=  1.01077195217701E+05
 cg2d: Sum(rhs),rhsMax =  -2.76286782355711E+01  2.38364131652802E+00
(PID.TID 0000.0001)  ploadbar=  1.01076857322273E+05
 cg2d: Sum(rhs),rhsMax =  -2.77577619685855E+01  2.37324730493290E+00
(PID.TID 0000.0001)  ploadbar=  1.01076519426845E+05
 cg2d: Sum(rhs),rhsMax =  -2.78851990946801E+01  2.36299711808762E+00
(PID.TID 0000.0001)  ploadbar=  1.01076181531416E+05
 cg2d: Sum(rhs),rhsMax =  -2.80108722511204E+01  2.35289357575510E+00
(PID.TID 0000.0001)  ploadbar=  1.01075843635988E+05
 cg2d: Sum(rhs),rhsMax =  -2.81347489697334E+01  2.34293312155616E+00
(PID.TID 0000.0001)  ploadbar=  1.01075505740560E+05
 cg2d: Sum(rhs),rhsMax =  -2.82577522445426E+01  2.33314876849188E+00
(PID.TID 0000.0001)  ploadbar=  1.01074733860763E+05
 cg2d: Sum(rhs),rhsMax =  -2.83784518477856E+01  2.32363895518788E+00
(PID.TID 0000.0001)  ploadbar=  1.01073961980966E+05
 cg2d: Sum(rhs),rhsMax =  -2.84983829440835E+01  2.31426579161228E+00
(PID.TID 0000.0001)  ploadbar=  1.01073190101168E+05
 cg2d: Sum(rhs),rhsMax =  -2.86180355987151E+01  2.30498594639226E+00
(PID.TID 0000.0001)  ploadbar=  1.01072418221371E+05
 cg2d: Sum(rhs),rhsMax =  -2.87381980439239E+01  2.29573047371808E+00
(PID.TID 0000.0001)  ploadbar=  1.01071646341574E+05
 cg2d: Sum(rhs),rhsMax =  -2.88596064365911E+01  2.28643517462983E+00
(PID.TID 0000.0001)  ploadbar=  1.01070874461777E+05
 cg2d: Sum(rhs),rhsMax =  -2.89815901673133E+01  2.27712747541001E+00
(PID.TID 0000.0001)  ploadbar=  1.01071143684117E+05
 cg2d: Sum(rhs),rhsMax =  -2.91039820606312E+01  2.26781135090956E+00
(PID.TID 0000.0001)  ploadbar=  1.01071412906457E+05
 cg2d: Sum(rhs),rhsMax =  -2.92269123805449E+01  2.25846923241828E+00
(PID.TID 0000.0001)  ploadbar=  1.01071682128797E+05
 cg2d: Sum(rhs),rhsMax =  -2.93504755975348E+01  2.24908882538954E+00
(PID.TID 0000.0001)  ploadbar=  1.01071951351136E+05
 cg2d: Sum(rhs),rhsMax =  -2.94746257173239E+01  2.23967314907762E+00
(PID.TID 0000.0001)  ploadbar=  1.01072220573476E+05
 cg2d: Sum(rhs),rhsMax =  -2.95999847505542E+01  2.23017214032049E+00
(PID.TID 0000.0001)  ploadbar=  1.01072489795816E+05
 cg2d: Sum(rhs),rhsMax =  -2.97318751643183E+01  2.22035633958949E+00
(PID.TID 0000.0001)  ploadbar=  1.01071474444831E+05
 cg2d: Sum(rhs),rhsMax =  -2.98684083459324E+01  2.21036963690487E+00
(PID.TID 0000.0001)  ploadbar=  1.01070459093845E+05
 cg2d: Sum(rhs),rhsMax =  -3.00092972588669E+01  2.20023004816850E+00
(PID.TID 0000.0001)  ploadbar=  1.01069443742860E+05
 cg2d: Sum(rhs),rhsMax =  -3.01544696102134E+01  2.18994517044942E+00
(PID.TID 0000.0001)  ploadbar=  1.01068428391875E+05
 cg2d: Sum(rhs),rhsMax =  -3.03032846513946E+01  2.17956401193565E+00
(PID.TID 0000.0001)  ploadbar=  1.01067413040889E+05
 cg2d: Sum(rhs),rhsMax =  -3.04555422655032E+01  2.16910430312091E+00
(PID.TID 0000.0001)  ploadbar=  1.01066397689904E+05
 cg2d: Sum(rhs),rhsMax =  -3.06093689906435E+01  2.15860039310065E+00
(PID.TID 0000.0001)  ploadbar=  1.01066324645351E+05
 cg2d: Sum(rhs),rhsMax =  -3.07637119089229E+01  2.14811621400995E+00
(PID.TID 0000.0001)  ploadbar=  1.01066251600798E+05
 cg2d: Sum(rhs),rhsMax =  -3.09163224581056E+01  2.13779851283516E+00
(PID.TID 0000.0001)  ploadbar=  1.01066178556244E+05
 cg2d: Sum(rhs),rhsMax =  -3.10666646922629E+01  2.12767054139942E+00
(PID.TID 0000.0001)  ploadbar=  1.01066105511691E+05
 cg2d: Sum(rhs),rhsMax =  -3.12147497376685E+01  2.11772144049960E+00
(PID.TID 0000.0001)  ploadbar=  1.01066032467138E+05
 cg2d: Sum(rhs),rhsMax =  -3.13605516413423E+01  2.10794424743445E+00
(PID.TID 0000.0001)  ploadbar=  1.01065959422585E+05
 cg2d: Sum(rhs),rhsMax =  -3.15052840955179E+01  2.09838278620534E+00
(PID.TID 0000.0001)  ploadbar=  1.01064580700647E+05
 cg2d: Sum(rhs),rhsMax =  -3.16482455594273E+01  2.08907195098746E+00
(PID.TID 0000.0001)  ploadbar=  1.01063201978709E+05
 cg2d: Sum(rhs),rhsMax =  -3.17865608824282E+01  2.08018623298376E+00
(PID.TID 0000.0001)  ploadbar=  1.01061823256771E+05
 cg2d: Sum(rhs),rhsMax =  -3.19196235022817E+01  2.07174728404115E+00
(PID.TID 0000.0001)  ploadbar=  1.01060444534833E+05
 cg2d: Sum(rhs),rhsMax =  -3.20468711399783E+01  2.06377704334721E+00
(PID.TID 0000.0001)  ploadbar=  1.01059065812896E+05
 cg2d: Sum(rhs),rhsMax =  -3.21670834940534E+01  2.05633614130324E+00
(PID.TID 0000.0001)  ploadbar=  1.01057687090958E+05
 cg2d: Sum(rhs),rhsMax =  -3.22800804490495E+01  2.04933721688549E+00
(PID.TID 0000.0001)  ploadbar=  1.01057266102706E+05
 cg2d: Sum(rhs),rhsMax =  -3.23894111285383E+01  2.04254124880759E+00
(PID.TID 0000.0001)  ploadbar=  1.01056845114454E+05
 cg2d: Sum(rhs),rhsMax =  -3.24940524129873E+01  2.03599769099339E+00
(PID.TID 0000.0001)  ploadbar=  1.01056424126202E+05
 cg2d: Sum(rhs),rhsMax =  -3.25933336479114E+01  2.02973179454318E+00
(PID.TID 0000.0001)  ploadbar=  1.01056003137950E+05
 cg2d: Sum(rhs),rhsMax =  -3.26873805286745E+01  2.02372354204860E+00
(PID.TID 0000.0001)  ploadbar=  1.01055582149698E+05
 cg2d: Sum(rhs),rhsMax =  -3.27758893149234E+01  2.01797958848998E+00
(PID.TID 0000.0001)  ploadbar=  1.01055161161446E+05
 cg2d: Sum(rhs),rhsMax =  -3.28612117196874E+01  2.01256281624784E+00
(PID.TID 0000.0001)  ploadbar=  1.01055209394536E+05
 cg2d: Sum(rhs),rhsMax =  -3.29457835425521E+01  2.00731739299881E+00
(PID.TID 0000.0001)  ploadbar=  1.01055257627626E+05
 cg2d: Sum(rhs),rhsMax =  -3.30309781111906E+01  2.00215240472406E+00
(PID.TID 0000.0001)  ploadbar=  1.01055305860716E+05
 cg2d: Sum(rhs),rhsMax =  -3.31162643970633E+01  1.99709095458911E+00
(PID.TID 0000.0001)  ploadbar=  1.01055354093806E+05
 cg2d: Sum(rhs),rhsMax =  -3.32013150516845E+01  1.99213981654298E+00
(PID.TID 0000.0001)  ploadbar=  1.01055402326897E+05
 cg2d: Sum(rhs),rhsMax =  -3.32859762400498E+01  1.98730662294502E+00
(PID.TID 0000.0001)  ploadbar=  1.01055450559987E+05
 cg2d: Sum(rhs),rhsMax =  -3.33668525278282E+01  1.98266138422071E+00
(PID.TID 0000.0001)  ploadbar=  1.01056212725166E+05
 cg2d: Sum(rhs),rhsMax =  -3.34439719745375E+01  1.97818814730357E+00
(PID.TID 0000.0001)  ploadbar=  1.01056974890344E+05
 cg2d: Sum(rhs),rhsMax =  -3.35200493573703E+01  1.97372055765157E+00
(PID.TID 0000.0001)  ploadbar=  1.01057737055523E+05
 cg2d: Sum(rhs),rhsMax =  -3.35956056490737E+01  1.96922344806177E+00
(PID.TID 0000.0001)  ploadbar=  1.01058499220702E+05
 cg2d: Sum(rhs),rhsMax =  -3.36700921357628E+01  1.96472441186068E+00
(PID.TID 0000.0001)  ploadbar=  1.01059261385881E+05
 cg2d: Sum(rhs),rhsMax =  -3.37432670504323E+01  1.96023596893803E+00
(PID.TID 0000.0001)  ploadbar=  1.01060023551060E+05
 cg2d: Sum(rhs),rhsMax =  -3.38160944305464E+01  1.95584159426034E+00
(PID.TID 0000.0001)  ploadbar=  1.01060578095881E+05
 cg2d: Sum(rhs),rhsMax =  -3.38857032258329E+01  1.95168962752442E+00
(PID.TID 0000.0001)  ploadbar=  1.01061132640703E+05
 cg2d: Sum(rhs),rhsMax =  -3.39543017407252E+01  1.94764098553378E+00
(PID.TID 0000.0001)  ploadbar=  1.01061687185524E+05
 cg2d: Sum(rhs),rhsMax =  -3.40229948614084E+01  1.94362473760992E+00
(PID.TID 0000.0001)  ploadbar=  1.01062241730345E+05
 cg2d: Sum(rhs),rhsMax =  -3.40930869684771E+01  1.93955952918033E+00
(PID.TID 0000.0001)  ploadbar=  1.01062796275166E+05
 cg2d: Sum(rhs),rhsMax =  -3.41662826827916E+01  1.93534309889068E+00
(PID.TID 0000.0001)  ploadbar=  1.01063350819987E+05
 cg2d: Sum(rhs),rhsMax =  -3.42442732812747E+01  1.93082329798552E+00
(PID.TID 0000.0001)  ploadbar=  1.01064709760665E+05
 cg2d: Sum(rhs),rhsMax =  -3.43253777874020E+01  1.92609209165255E+00
(PID.TID 0000.0001)  ploadbar=  1.01066068701343E+05
 cg2d: Sum(rhs),rhsMax =  -3.44074166502060E+01  1.92127065450172E+00
(PID.TID 0000.0001)  ploadbar=  1.01067427642020E+05
 cg2d: Sum(rhs),rhsMax =  -3.44898240840075E+01  1.91638664036979E+00
(PID.TID 0000.0001)  ploadbar=  1.01068786582698E+05
 cg2d: Sum(rhs),rhsMax =  -3.45719541596497E+01  1.91146985393658E+00
(PID.TID 0000.0001)  ploadbar=  1.01070145523376E+05
 cg2d: Sum(rhs),rhsMax =  -3.46533483933967E+01  1.90654305444297E+00
(PID.TID 0000.0001)  ploadbar=  1.01071504464053E+05
 cg2d: Sum(rhs),rhsMax =  -3.47388935674493E+01  1.90150344617363E+00
(PID.TID 0000.0001)  ploadbar=  1.01072855019812E+05
 cg2d: Sum(rhs),rhsMax =  -3.48312850010794E+01  1.89620328179941E+00
(PID.TID 0000.0001)  ploadbar=  1.01074205575570E+05
 cg2d: Sum(rhs),rhsMax =  -3.49306386044652E+01  1.89063636315113E+00
(PID.TID 0000.0001)  ploadbar=  1.01075556131328E+05
 cg2d: Sum(rhs),rhsMax =  -3.50368374783747E+01  1.88480867199767E+00
(PID.TID 0000.0001)  ploadbar=  1.01076906687086E+05
 cg2d: Sum(rhs),rhsMax =  -3.51494181906235E+01  1.87874385284252E+00
(PID.TID 0000.0001)  ploadbar=  1.01078257242845E+05
 cg2d: Sum(rhs),rhsMax =  -3.52673436711844E+01  1.87249459766880E+00
(PID.TID 0000.0001)  ploadbar=  1.01079607798603E+05
 cg2d: Sum(rhs),rhsMax =  -3.53844122572595E+01  1.86630739205780E+00
(PID.TID 0000.0001)  ploadbar=  1.01081336288599E+05
 cg2d: Sum(rhs),rhsMax =  -3.54974425668778E+01  1.86034154716176E+00
(PID.TID 0000.0001)  ploadbar=  1.01083064778595E+05
 cg2d: Sum(rhs),rhsMax =  -3.56059341318413E+01  1.85461243078138E+00
(PID.TID 0000.0001)  ploadbar=  1.01084793268592E+05
 cg2d: Sum(rhs),rhsMax =  -3.57110992747226E+01  1.84905217924436E+00
(PID.TID 0000.0001)  ploadbar=  1.01086521758588E+05
 cg2d: Sum(rhs),rhsMax =  -3.58142685416831E+01  1.84359381292067E+00
(PID.TID 0000.0001)  ploadbar=  1.01088250248584E+05
 cg2d: Sum(rhs),rhsMax =  -3.59165930351120E+01  1.83818259797616E+00
(PID.TID 0000.0001)  ploadbar=  1.01089978738580E+05
 cg2d: Sum(rhs),rhsMax =  -3.60231816419327E+01  1.83262438593851E+00
(PID.TID 0000.0001)  ploadbar=  1.01089476385510E+05
 cg2d: Sum(rhs),rhsMax =  -3.61314968769180E+01  1.82703783416815E+00
(PID.TID 0000.0001)  ploadbar=  1.01088974032440E+05
 cg2d: Sum(rhs),rhsMax =  -3.62409412886253E+01  1.82145050872523E+00
(PID.TID 0000.0001)  ploadbar=  1.01088471679369E+05
 cg2d: Sum(rhs),rhsMax =  -3.63506081689177E+01  1.81590517806300E+00
(PID.TID 0000.0001)  ploadbar=  1.01087969326299E+05
 cg2d: Sum(rhs),rhsMax =  -3.64591299231051E+01  1.81046607537008E+00
(PID.TID 0000.0001)  ploadbar=  1.01087466973229E+05
 cg2d: Sum(rhs),rhsMax =  -3.65649233657591E+01  1.80520410831622E+00
(PID.TID 0000.0001)  ploadbar=  1.01086964620158E+05
 cg2d: Sum(rhs),rhsMax =  -3.66693298783715E+01  1.79998465181112E+00
(PID.TID 0000.0001)  ploadbar=  1.01087797054935E+05
 cg2d: Sum(rhs),rhsMax =  -3.67687227035097E+01  1.79498396989182E+00
(PID.TID 0000.0001)  ploadbar=  1.01088629489712E+05
 cg2d: Sum(rhs),rhsMax =  -3.68613605249476E+01  1.79028205055071E+00
(PID.TID 0000.0001)  ploadbar=  1.01089461924488E+05
 cg2d: Sum(rhs),rhsMax =  -3.69471230847514E+01  1.78587232000447E+00
(PID.TID 0000.0001)  ploadbar=  1.01090294359265E+05
 cg2d: Sum(rhs),rhsMax =  -3.70260466829730E+01  1.78174053101777E+00
(PID.TID 0000.0001)  ploadbar=  1.01091126794042E+05
 cg2d: Sum(rhs),rhsMax =  -3.70978532123035E+01  1.77789149947003E+00
(PID.TID 0000.0001)  ploadbar=  1.01091959228818E+05
 cg2d: Sum(rhs),rhsMax =  -3.71624977896461E+01  1.77451257594989E+00
(PID.TID 0000.0001)  ploadbar=  1.01091890843753E+05
 cg2d: Sum(rhs),rhsMax =  -3.72264998944701E+01  1.77128628138979E+00
(PID.TID 0000.0001)  ploadbar=  1.01091822458689E+05
 cg2d: Sum(rhs),rhsMax =  -3.72900113826134E+01  1.76819889580354E+00
(PID.TID 0000.0001)  ploadbar=  1.01091754073624E+05
 cg2d: Sum(rhs),rhsMax =  -3.73533685441716E+01  1.76522532751105E+00
(PID.TID 0000.0001)  ploadbar=  1.01091685688559E+05
 cg2d: Sum(rhs),rhsMax =  -3.74172819915670E+01  1.76232302365693E+00
(PID.TID 0000.0001)  ploadbar=  1.01091617303495E+05
 cg2d: Sum(rhs),rhsMax =  -3.74817728869591E+01  1.75948194219056E+00
(PID.TID 0000.0001)  ploadbar=  1.01091548918430E+05
 cg2d: Sum(rhs),rhsMax =  -3.75428093256468E+01  1.75681497225104E+00
(PID.TID 0000.0001)  ploadbar=  1.01091938409811E+05
 cg2d: Sum(rhs),rhsMax =  -3.76024186030532E+01  1.75421806974265E+00
(PID.TID 0000.0001)  ploadbar=  1.01092327901192E+05
 cg2d: Sum(rhs),rhsMax =  -3.76609943980270E+01  1.75166492201019E+00
(PID.TID 0000.0001)  ploadbar=  1.01092717392573E+05
 cg2d: Sum(rhs),rhsMax =  -3.77179917115239E+01  1.74917679051195E+00
(PID.TID 0000.0001)  ploadbar=  1.01093106883955E+05
 cg2d: Sum(rhs),rhsMax =  -3.77731930596511E+01  1.74676249095516E+00
(PID.TID 0000.0001)  ploadbar=  1.01093496375336E+05
 cg2d: Sum(rhs),rhsMax =  -3.78268015407870E+01  1.74441227984779E+00
(PID.TID 0000.0001)  ploadbar=  1.01093885866717E+05
 cg2d: Sum(rhs),rhsMax =  -3.78794527248163E+01  1.74215310931415E+00
(PID.TID 0000.0001)  ploadbar=  1.01094386738022E+05
 cg2d: Sum(rhs),rhsMax =  -3.79308422142716E+01  1.73998723806873E+00
(PID.TID 0000.0001)  ploadbar=  1.01094887609327E+05
 cg2d: Sum(rhs),rhsMax =  -3.79814469995285E+01  1.73788725925763E+00
(PID.TID 0000.0001)  ploadbar=  1.01095388480632E+05
 cg2d: Sum(rhs),rhsMax =  -3.80316637316037E+01  1.73582644923935E+00
(PID.TID 0000.0001)  ploadbar=  1.01095889351937E+05
 cg2d: Sum(rhs),rhsMax =  -3.80814161587799E+01  1.73380122324429E+00
(PID.TID 0000.0001)  ploadbar=  1.01096390223242E+05
 cg2d: Sum(rhs),rhsMax =  -3.81307308620153E+01  1.73180478669079E+00
(PID.TID 0000.0001)  ploadbar=  1.01096891094547E+05
 cg2d: Sum(rhs),rhsMax =  -3.81805381301322E+01  1.72975051535587E+00
(PID.TID 0000.0001)  ploadbar=  1.01097140132972E+05
 cg2d: Sum(rhs),rhsMax =  -3.82287437206165E+01  1.72773078101016E+00
(PID.TID 0000.0001)  ploadbar=  1.01097389171397E+05
 cg2d: Sum(rhs),rhsMax =  -3.82758961447823E+01  1.72571700521818E+00
(PID.TID 0000.0001)  ploadbar=  1.01097638209822E+05
 cg2d: Sum(rhs),rhsMax =  -3.83215027114073E+01  1.72372437903121E+00
(PID.TID 0000.0001)  ploadbar=  1.01097887248247E+05
 cg2d: Sum(rhs),rhsMax =  -3.83653573407645E+01  1.72175209518847E+00
(PID.TID 0000.0001)  ploadbar=  1.01098136286672E+05
 cg2d: Sum(rhs),rhsMax =  -3.84077542809220E+01  1.71978174039862E+00
(PID.TID 0000.0001)  ploadbar=  1.01098385325097E+05
 cg2d: Sum(rhs),rhsMax =  -3.84535493080344E+01  1.71779907604408E+00
(PID.TID 0000.0001)  ploadbar=  1.01098165844846E+05
 cg2d: Sum(rhs),rhsMax =  -3.85033858728776E+01  1.71576699432655E+00
(PID.TID 0000.0001)  ploadbar=  1.01097946364596E+05
 cg2d: Sum(rhs),rhsMax =  -3.85570011873372E+01  1.71368737019059E+00
(PID.TID 0000.0001)  ploadbar=  1.01097726884346E+05
 cg2d: Sum(rhs),rhsMax =  -3.86141468369272E+01  1.71156547728930E+00
(PID.TID 0000.0001)  ploadbar=  1.01097507404096E+05
 cg2d: Sum(rhs),rhsMax =  -3.86752368942169E+01  1.70938133275659E+00
(PID.TID 0000.0001)  ploadbar=  1.01097287923845E+05
 cg2d: Sum(rhs),rhsMax =  -3.87402286136326E+01  1.70713116060261E+00
(PID.TID 0000.0001)  ploadbar=  1.01097068443595E+05
 cg2d: Sum(rhs),rhsMax =  -3.88069707940622E+01  1.70480407378256E+00
(PID.TID 0000.0001)  ploadbar=  1.01096065444107E+05
 cg2d: Sum(rhs),rhsMax =  -3.88752610227540E+01  1.70240383087190E+00
(PID.TID 0000.0001)  ploadbar=  1.01095062444618E+05
 cg2d: Sum(rhs),rhsMax =  -3.89443038604394E+01  1.69996378036742E+00
(PID.TID 0000.0001)  ploadbar=  1.01094059445130E+05
 cg2d: Sum(rhs),rhsMax =  -3.90136003607102E+01  1.69749954437017E+00
(PID.TID 0000.0001)  ploadbar=  1.01093056445642E+05
 cg2d: Sum(rhs),rhsMax =  -3.90827627768482E+01  1.69502517231534E+00
(PID.TID 0000.0001)  ploadbar=  1.01092053446153E+05
 cg2d: Sum(rhs),rhsMax =  -3.91513868576491E+01  1.69255077500721E+00
(PID.TID 0000.0001)  ploadbar=  1.01091050446665E+05
 cg2d: Sum(rhs),rhsMax =  -3.92195264123344E+01  1.69011618413846E+00
(PID.TID 0000.0001)  ploadbar=  1.01088820959095E+05
 cg2d: Sum(rhs),rhsMax =  -3.92890173182789E+01  1.68763531361879E+00
(PID.TID 0000.0001)  ploadbar=  1.01086591471525E+05
 cg2d: Sum(rhs),rhsMax =  -3.93588185251893E+01  1.68514830901428E+00
(PID.TID 0000.0001)  ploadbar=  1.01084361983955E+05
 cg2d: Sum(rhs),rhsMax =  -3.94290149106295E+01  1.68265230832594E+00
(PID.TID 0000.0001)  ploadbar=  1.01082132496385E+05
 cg2d: Sum(rhs),rhsMax =  -3.94998121646971E+01  1.68013851526982E+00
(PID.TID 0000.0001)  ploadbar=  1.01079903008815E+05
 cg2d: Sum(rhs),rhsMax =  -3.95708375252924E+01  1.67761998770169E+00
(PID.TID 0000.0001)  ploadbar=  1.01077673521245E+05
 cg2d: Sum(rhs),rhsMax =  -3.96419831704797E+01  1.67500590190987E+00
(PID.TID 0000.0001)  ploadbar=  1.01077285593536E+05
 cg2d: Sum(rhs),rhsMax =  -3.97105889666335E+01  1.67240636987703E+00
(PID.TID 0000.0001)  ploadbar=  1.01076897665826E+05
 cg2d: Sum(rhs),rhsMax =  -3.97770596915408E+01  1.66979976227034E+00
(PID.TID 0000.0001)  ploadbar=  1.01076509738117E+05
 cg2d: Sum(rhs),rhsMax =  -3.98416201650379E+01  1.66717059342171E+00
(PID.TID 0000.0001)  ploadbar=  1.01076121810407E+05
 cg2d: Sum(rhs),rhsMax =  -3.99038887218621E+01  1.66453144667904E+00
(PID.TID 0000.0001)  ploadbar=  1.01075733882698E+05
 cg2d: Sum(rhs),rhsMax =  -3.99637287236277E+01  1.66188546330629E+00
(PID.TID 0000.0001)  ploadbar=  1.01075345954988E+05
 cg2d: Sum(rhs),rhsMax =  -4.00236557071742E+01  1.65935357605747E+00
(PID.TID 0000.0001)  ploadbar=  1.01076294250372E+05
 cg2d: Sum(rhs),rhsMax =  -4.00851323275037E+01  1.65686428749983E+00
(PID.TID 0000.0001)  ploadbar=  1.01077242545756E+05
 cg2d: Sum(rhs),rhsMax =  -4.01493952463798E+01  1.65436289060789E+00
(PID.TID 0000.0001)  ploadbar=  1.01078190841139E+05
 cg2d: Sum(rhs),rhsMax =  -4.02161283571444E+01  1.65185878569902E+00
(PID.TID 0000.0001)  ploadbar=  1.01079139136522E+05
 cg2d: Sum(rhs),rhsMax =  -4.02850849931820E+01  1.64936104831296E+00
(PID.TID 0000.0001)  ploadbar=  1.01080087431906E+05
 cg2d: Sum(rhs),rhsMax =  -4.03562085166779E+01  1.64687168825455E+00
(PID.TID 0000.0001)  ploadbar=  1.01081035727290E+05
 cg2d: Sum(rhs),rhsMax =  -4.04264724980183E+01  1.64445936747197E+00
(PID.TID 0000.0001)  ploadbar=  1.01082014077240E+05
 cg2d: Sum(rhs),rhsMax =  -4.04961326850960E+01  1.64210350925847E+00
(PID.TID 0000.0001)  ploadbar=  1.01082992427189E+05
 cg2d: Sum(rhs),rhsMax =  -4.05657026693856E+01  1.63977392166660E+00
(PID.TID 0000.0001)  ploadbar=  1.01083970777139E+05
 cg2d: Sum(rhs),rhsMax =  -4.06358312111974E+01  1.63743309020306E+00
(PID.TID 0000.0001)  ploadbar=  1.01084949127089E+05
 cg2d: Sum(rhs),rhsMax =  -4.07065772556587E+01  1.63507543858246E+00
(PID.TID 0000.0001)  ploadbar=  1.01085927477039E+05
 cg2d: Sum(rhs),rhsMax =  -4.07777170275401E+01  1.63270543521547E+00
(PID.TID 0000.0001)  ploadbar=  1.01086905826989E+05
 cg2d: Sum(rhs),rhsMax =  -4.08503366953650E+01  1.63030199181101E+00
(PID.TID 0000.0001)  ploadbar=  1.01086620204680E+05
 cg2d: Sum(rhs),rhsMax =  -4.09229762575021E+01  1.62791865429692E+00
(PID.TID 0000.0001)  ploadbar=  1.01086334582372E+05
 cg2d: Sum(rhs),rhsMax =  -4.09955430982057E+01  1.62555625193929E+00
(PID.TID 0000.0001)  ploadbar=  1.01086048960063E+05
 cg2d: Sum(rhs),rhsMax =  -4.10683434399749E+01  1.62319839416301E+00
(PID.TID 0000.0001)  ploadbar=  1.01085763337754E+05
 cg2d: Sum(rhs),rhsMax =  -4.11418230284887E+01  1.62082547148081E+00
(PID.TID 0000.0001)  ploadbar=  1.01085477715446E+05
 cg2d: Sum(rhs),rhsMax =  -4.12159525986309E+01  1.61843101124176E+00
(PID.TID 0000.0001)  ploadbar=  1.01085192093137E+05
 cg2d: Sum(rhs),rhsMax =  -4.12922451119623E+01  1.61595697096195E+00
(PID.TID 0000.0001)  ploadbar=  1.01086126575123E+05
 cg2d: Sum(rhs),rhsMax =  -4.13701800133172E+01  1.61341881425129E+00
(PID.TID 0000.0001)  ploadbar=  1.01087061057110E+05
 cg2d: Sum(rhs),rhsMax =  -4.14479829186054E+01  1.61088071914506E+00
(PID.TID 0000.0001)  ploadbar=  1.01087995539096E+05
 cg2d: Sum(rhs),rhsMax =  -4.15243321938520E+01  1.60838586415975E+00
(PID.TID 0000.0001)  ploadbar=  1.01088930021082E+05
 cg2d: Sum(rhs),rhsMax =  -4.15991644141334E+01  1.60593108176422E+00
(PID.TID 0000.0001)  ploadbar=  1.01089864503069E+05
 cg2d: Sum(rhs),rhsMax =  -4.16724758466712E+01  1.60351277780327E+00
(PID.TID 0000.0001)  ploadbar=  1.01090798985055E+05
 cg2d: Sum(rhs),rhsMax =  -4.17495476066377E+01  1.60107512678693E+00
(PID.TID 0000.0001)  ploadbar=  1.01091077247148E+05
 cg2d: Sum(rhs),rhsMax =  -4.18301909243357E+01  1.59861703148437E+00
(PID.TID 0000.0001)  ploadbar=  1.01091355509240E+05
 cg2d: Sum(rhs),rhsMax =  -4.19135507696034E+01  1.59617078798121E+00
(PID.TID 0000.0001)  ploadbar=  1.01091633771333E+05
 cg2d: Sum(rhs),rhsMax =  -4.19989223389312E+01  1.59376230502690E+00
(PID.TID 0000.0001)  ploadbar=  1.01091912033426E+05
 cg2d: Sum(rhs),rhsMax =  -4.20859487398222E+01  1.59140195093317E+00
(PID.TID 0000.0001)  ploadbar=  1.01092190295518E+05
 cg2d: Sum(rhs),rhsMax =  -4.21748614527283E+01  1.58907755996896E+00
(PID.TID 0000.0001)  ploadbar=  1.01092468557611E+05
 cg2d: Sum(rhs),rhsMax =  -4.22615127672274E+01  1.58682211497858E+00
(PID.TID 0000.0001)  ploadbar=  1.01092830157831E+05
 cg2d: Sum(rhs),rhsMax =  -4.23469399220779E+01  1.58458815524454E+00
(PID.TID 0000.0001)  ploadbar=  1.01093191758051E+05
 cg2d: Sum(rhs),rhsMax =  -4.24308586588592E+01  1.58237913802712E+00
(PID.TID 0000.0001)  ploadbar=  1.01093553358271E+05
 cg2d: Sum(rhs),rhsMax =  -4.25131804569539E+01  1.58019599265362E+00
(PID.TID 0000.0001)  ploadbar=  1.01093914958491E+05
 cg2d: Sum(rhs),rhsMax =  -4.25938529450069E+01  1.57804058039039E+00
(PID.TID 0000.0001)  ploadbar=  1.01094276558711E+05
 cg2d: Sum(rhs),rhsMax =  -4.26726470208577E+01  1.57591920697634E+00
(PID.TID 0000.0001)  ploadbar=  1.01094638158931E+05
 cg2d: Sum(rhs),rhsMax =  -4.27526290750384E+01  1.57377037020401E+00
(PID.TID 0000.0001)  ploadbar=  1.01094290436834E+05
 cg2d: Sum(rhs),rhsMax =  -4.28319625988332E+01  1.57165699967019E+00
(PID.TID 0000.0001)  ploadbar=  1.01093942714737E+05
 cg2d: Sum(rhs),rhsMax =  -4.29101495215500E+01  1.56959804908551E+00
(PID.TID 0000.0001)  ploadbar=  1.01093594992640E+05
 cg2d: Sum(rhs),rhsMax =  -4.29884690085140E+01  1.56754478888069E+00
(PID.TID 0000.0001)  ploadbar=  1.01093247270543E+05
 cg2d: Sum(rhs),rhsMax =  -4.30672237698975E+01  1.56548790994550E+00
(PID.TID 0000.0001)  ploadbar=  1.01092899548446E+05
 cg2d: Sum(rhs),rhsMax =  -4.31463177100687E+01  1.56343103265916E+00
(PID.TID 0000.0001)  ploadbar=  1.01092551826349E+05
 cg2d: Sum(rhs),rhsMax =  -4.32250083759463E+01  1.56130778943430E+00
(PID.TID 0000.0001)  ploadbar=  1.01092167809785E+05
 cg2d: Sum(rhs),rhsMax =  -4.33036161412846E+01  1.55910028413354E+00
(PID.TID 0000.0001)  ploadbar=  1.01091783793220E+05
 cg2d: Sum(rhs),rhsMax =  -4.33795027847108E+01  1.55689979244943E+00
(PID.TID 0000.0001)  ploadbar=  1.01091399776655E+05
 cg2d: Sum(rhs),rhsMax =  -4.34510820105352E+01  1.55475923981239E+00
(PID.TID 0000.0001)  ploadbar=  1.01091015760090E+05
 cg2d: Sum(rhs),rhsMax =  -4.35171809900818E+01  1.55271561304735E+00
(PID.TID 0000.0001)  ploadbar=  1.01090631743525E+05
 cg2d: Sum(rhs),rhsMax =  -4.35773645428402E+01  1.55078415648049E+00
(PID.TID 0000.0001)  ploadbar=  1.01090247726960E+05
 cg2d: Sum(rhs),rhsMax =  -4.36379381273975E+01  1.54897901688445E+00
(PID.TID 0000.0001)  ploadbar=  1.01087484875856E+05
 cg2d: Sum(rhs),rhsMax =  -4.37016511615168E+01  1.54719456909730E+00
(PID.TID 0000.0001)  ploadbar=  1.01084722024753E+05
 cg2d: Sum(rhs),rhsMax =  -4.37664300028966E+01  1.54550478825088E+00
(PID.TID 0000.0001)  ploadbar=  1.01081959173649E+05
 cg2d: Sum(rhs),rhsMax =  -4.38324370735053E+01  1.54390482879758E+00
(PID.TID 0000.0001)  ploadbar=  1.01079196322546E+05
 cg2d: Sum(rhs),rhsMax =  -4.39003210902692E+01  1.54237331145617E+00
(PID.TID 0000.0001)  ploadbar=  1.01076433471442E+05
 cg2d: Sum(rhs),rhsMax =  -4.39695905319193E+01  1.54092313330213E+00
(PID.TID 0000.0001)  ploadbar=  1.01073670620339E+05
 cg2d: Sum(rhs),rhsMax =  -4.40239764959117E+01  1.53997747641871E+00
(PID.TID 0000.0001)  ploadbar=  1.01072372548199E+05
 cg2d: Sum(rhs),rhsMax =  -4.40725353560854E+01  1.53921207953678E+00
(PID.TID 0000.0001)  ploadbar=  1.01071074476059E+05
 cg2d: Sum(rhs),rhsMax =  -4.41119789254560E+01  1.53874039527437E+00
(PID.TID 0000.0001)  ploadbar=  1.01069776403919E+05
 cg2d: Sum(rhs),rhsMax =  -4.41395415825549E+01  1.53865657976624E+00
(PID.TID 0000.0001)  ploadbar=  1.01068478331779E+05
 cg2d: Sum(rhs),rhsMax =  -4.41560604761544E+01  1.53893037438141E+00
(PID.TID 0000.0001)  ploadbar=  1.01067180259639E+05
 cg2d: Sum(rhs),rhsMax =  -4.41645124670451E+01  1.53945955613382E+00
(PID.TID 0000.0001)  ploadbar=  1.01065882187499E+05
 cg2d: Sum(rhs),rhsMax =  -4.41607566146477E+01  1.54042777075508E+00
(PID.TID 0000.0001)  ploadbar=  1.01064831839690E+05
 cg2d: Sum(rhs),rhsMax =  -4.41546385506648E+01  1.54148779698769E+00
(PID.TID 0000.0001)  ploadbar=  1.01063781491880E+05
 cg2d: Sum(rhs),rhsMax =  -4.41553000963529E+01  1.54232390263771E+00
(PID.TID 0000.0001)  ploadbar=  1.01062731144071E+05
 cg2d: Sum(rhs),rhsMax =  -4.41706368868505E+01  1.54266762752346E+00
(PID.TID 0000.0001)  ploadbar=  1.01061680796262E+05
 cg2d: Sum(rhs),rhsMax =  -4.42054245268697E+01  1.54235431988895E+00
(PID.TID 0000.0001)  ploadbar=  1.01060630448452E+05
 cg2d: Sum(rhs),rhsMax =  -4.42576878036328E+01  1.54146294586592E+00
(PID.TID 0000.0001)  ploadbar=  1.01059580100643E+05
 cg2d: Sum(rhs),rhsMax =  -4.43041038382390E+01  1.54070881525849E+00
(PID.TID 0000.0001)  ploadbar=  1.01058288647696E+05
 cg2d: Sum(rhs),rhsMax =  -4.43332284398033E+01  1.54048546902159E+00
(PID.TID 0000.0001)  ploadbar=  1.01056997194750E+05
 cg2d: Sum(rhs),rhsMax =  -4.43496717686671E+01  1.54063129269248E+00
(PID.TID 0000.0001)  ploadbar=  1.01055705741803E+05
 cg2d: Sum(rhs),rhsMax =  -4.43552739693688E+01  1.54107844443573E+00
(PID.TID 0000.0001)  ploadbar=  1.01054414288856E+05
 cg2d: Sum(rhs),rhsMax =  -4.43536915916603E+01  1.54169937953710E+00
(PID.TID 0000.0001)  ploadbar=  1.01053122835910E+05
 cg2d: Sum(rhs),rhsMax =  -4.43492006056172E+01  1.54234680318916E+00
(PID.TID 0000.0001)  ploadbar=  1.01051831382963E+05
 cg2d: Sum(rhs),rhsMax =  -4.43406324442751E+01  1.54315705505524E+00
(PID.TID 0000.0001)  ploadbar=  1.01050410014458E+05
 cg2d: Sum(rhs),rhsMax =  -4.43234749263951E+01  1.54428789495458E+00
(PID.TID 0000.0001)  ploadbar=  1.01048988645952E+05
 cg2d: Sum(rhs),rhsMax =  -4.43155925265798E+01  1.54511839950422E+00
(PID.TID 0000.0001)  ploadbar=  1.01047567277446E+05
 cg2d: Sum(rhs),rhsMax =  -4.42896842349237E+01  1.54660385940664E+00
(PID.TID 0000.0001)  ploadbar=  1.01046145908941E+05
 cg2d: Sum(rhs),rhsMax =  -4.42473647116728E+01  1.54869454117165E+00
(PID.TID 0000.0001)  ploadbar=  1.01044724540435E+05
 cg2d: Sum(rhs),rhsMax =  -4.41944819485395E+01  1.55118516603875E+00
(PID.TID 0000.0001)  ploadbar=  1.01043303171930E+05
 cg2d: Sum(rhs),rhsMax =  -4.41492642453306E+01  1.55337598471729E+00
(PID.TID 0000.0001)  ploadbar=  1.01042169733065E+05
 cg2d: Sum(rhs),rhsMax =  -4.40954570891347E+01  1.55583349042799E+00
(PID.TID 0000.0001)  ploadbar=  1.01041036294200E+05
 cg2d: Sum(rhs),rhsMax =  -4.40356530067176E+01  1.55846598743662E+00
(PID.TID 0000.0001)  ploadbar=  1.01039902855335E+05
 cg2d: Sum(rhs),rhsMax =  -4.39750095129427E+01  1.56108994900627E+00
(PID.TID 0000.0001)  ploadbar=  1.01038769416470E+05
 cg2d: Sum(rhs),rhsMax =  -4.39128579169414E+01  1.56373466045556E+00
(PID.TID 0000.0001)  ploadbar=  1.01037635977605E+05
 cg2d: Sum(rhs),rhsMax =  -4.38495775205444E+01  1.56638556834451E+00
(PID.TID 0000.0001)  ploadbar=  1.01036502538740E+05
 cg2d: Sum(rhs),rhsMax =  -4.37957259621381E+01  1.56877621485770E+00
(PID.TID 0000.0001)  ploadbar=  1.01035921159873E+05
 cg2d: Sum(rhs),rhsMax =  -4.37494745872286E+01  1.57096986533416E+00
(PID.TID 0000.0001)  ploadbar=  1.01035339781006E+05
 cg2d: Sum(rhs),rhsMax =  -4.37105635980460E+01  1.57297784710218E+00
(PID.TID 0000.0001)  ploadbar=  1.01034758402139E+05
 cg2d: Sum(rhs),rhsMax =  -4.36797925440795E+01  1.57477417321884E+00
(PID.TID 0000.0001)  ploadbar=  1.01034177023272E+05
 cg2d: Sum(rhs),rhsMax =  -4.36582763312148E+01  1.57631794284421E+00
(PID.TID 0000.0001)  ploadbar=  1.01033595644405E+05
 cg2d: Sum(rhs),rhsMax =  -4.36467279927192E+01  1.57758593668000E+00
(PID.TID 0000.0001)  ploadbar=  1.01033014265538E+05
 cg2d: Sum(rhs),rhsMax =  -4.36516881233194E+01  1.57824806023614E+00
(PID.TID 0000.0001)  ploadbar=  1.01032437648681E+05
 cg2d: Sum(rhs),rhsMax =  -4.36686740223087E+01  1.57846332030990E+00
(PID.TID 0000.0001)  ploadbar=  1.01031861031825E+05
 cg2d: Sum(rhs),rhsMax =  -4.36930741415308E+01  1.57839638327506E+00
(PID.TID 0000.0001)  ploadbar=  1.01031284414968E+05
 cg2d: Sum(rhs),rhsMax =  -4.37257033325829E+01  1.57801545810354E+00
(PID.TID 0000.0001)  ploadbar=  1.01030707798112E+05
 cg2d: Sum(rhs),rhsMax =  -4.37670242608373E+01  1.57729868524677E+00
(PID.TID 0000.0001)  ploadbar=  1.01030131181255E+05
 cg2d: Sum(rhs),rhsMax =  -4.38160697492098E+01  1.57628347082364E+00
(PID.TID 0000.0001)  ploadbar=  1.01029554564398E+05
 cg2d: Sum(rhs),rhsMax =  -4.38692765195439E+01  1.57516676745841E+00
(PID.TID 0000.0001)  ploadbar=  1.01029717728708E+05
 cg2d: Sum(rhs),rhsMax =  -4.39321163759346E+01  1.57375110703708E+00
(PID.TID 0000.0001)  ploadbar=  1.01029880893018E+05
 cg2d: Sum(rhs),rhsMax =  -4.39978120517735E+01  1.57228074880746E+00
(PID.TID 0000.0001)  ploadbar=  1.01030044057328E+05
 cg2d: Sum(rhs),rhsMax =  -4.40659249219862E+01  1.57077673478595E+00
(PID.TID 0000.0001)  ploadbar=  1.01030207221638E+05
 cg2d: Sum(rhs),rhsMax =  -4.41375522654800E+01  1.56920186910133E+00
(PID.TID 0000.0001)  ploadbar=  1.01030370385948E+05
 cg2d: Sum(rhs),rhsMax =  -4.42129560309861E+01  1.56754374000006E+00
(PID.TID 0000.0001)  ploadbar=  1.01030533550257E+05
 cg2d: Sum(rhs),rhsMax =  -4.42821594715784E+01  1.56604484339797E+00
(PID.TID 0000.0001)  ploadbar=  1.01029995454329E+05
 cg2d: Sum(rhs),rhsMax =  -4.43533200459134E+01  1.56440421297228E+00
(PID.TID 0000.0001)  ploadbar=  1.01029457358401E+05
 cg2d: Sum(rhs),rhsMax =  -4.44251905835451E+01  1.56266147148433E+00
(PID.TID 0000.0001)  ploadbar=  1.01028919262472E+05
 cg2d: Sum(rhs),rhsMax =  -4.44971264814641E+01  1.56084014084735E+00
(PID.TID 0000.0001)  ploadbar=  1.01028381166544E+05
 cg2d: Sum(rhs),rhsMax =  -4.45690172314428E+01  1.55894678715554E+00
(PID.TID 0000.0001)  ploadbar=  1.01027843070615E+05
 cg2d: Sum(rhs),rhsMax =  -4.46401642490341E+01  1.55700809036347E+00
(PID.TID 0000.0001)  ploadbar=  1.01027304974687E+05
 cg2d: Sum(rhs),rhsMax =  -4.47083218590052E+01  1.55518295673105E+00
(PID.TID 0000.0001)  ploadbar=  1.01025997723040E+05
 cg2d: Sum(rhs),rhsMax =  -4.47762968882726E+01  1.55337194356484E+00
(PID.TID 0000.0001)  ploadbar=  1.01024690471392E+05
 cg2d: Sum(rhs),rhsMax =  -4.48458373790355E+01  1.55151637405618E+00
(PID.TID 0000.0001)  ploadbar=  1.01023383219745E+05
 cg2d: Sum(rhs),rhsMax =  -4.49167577728968E+01  1.54962325254256E+00
(PID.TID 0000.0001)  ploadbar=  1.01022075968098E+05
 cg2d: Sum(rhs),rhsMax =  -4.49889528065748E+01  1.54769792244642E+00
(PID.TID 0000.0001)  ploadbar=  1.01020768716451E+05
 cg2d: Sum(rhs),rhsMax =  -4.50627490465849E+01  1.54573320346961E+00
(PID.TID 0000.0001)  ploadbar=  1.01019461464804E+05
 cg2d: Sum(rhs),rhsMax =  -4.51317836471381E+01  1.54384666715960E+00
(PID.TID 0000.0001)  ploadbar=  1.01019433592891E+05
 cg2d: Sum(rhs),rhsMax =  -4.51981780472936E+01  1.54196032403426E+00
(PID.TID 0000.0001)  ploadbar=  1.01019405720978E+05
 cg2d: Sum(rhs),rhsMax =  -4.52640011400996E+01  1.53999974441225E+00
(PID.TID 0000.0001)  ploadbar=  1.01019377849066E+05
 cg2d: Sum(rhs),rhsMax =  -4.53293502781621E+01  1.53795693517332E+00
(PID.TID 0000.0001)  ploadbar=  1.01019349977153E+05
 cg2d: Sum(rhs),rhsMax =  -4.53939964211339E+01  1.53583656236912E+00
(PID.TID 0000.0001)  ploadbar=  1.01019322105240E+05
 cg2d: Sum(rhs),rhsMax =  -4.54582941305569E+01  1.53362367971697E+00
(PID.TID 0000.0001)  ploadbar=  1.01019294233327E+05
 cg2d: Sum(rhs),rhsMax =  -4.55316745166768E+01  1.53121038628091E+00
(PID.TID 0000.0001)  ploadbar=  1.01020232934041E+05
 cg2d: Sum(rhs),rhsMax =  -4.56114957934702E+01  1.52868348584367E+00
(PID.TID 0000.0001)  ploadbar=  1.01021171634755E+05
 cg2d: Sum(rhs),rhsMax =  -4.57033438023294E+01  1.52585975596790E+00
(PID.TID 0000.0001)  ploadbar=  1.01022110335469E+05
 cg2d: Sum(rhs),rhsMax =  -4.58079619097291E+01  1.52271837323811E+00
(PID.TID 0000.0001)  ploadbar=  1.01023049036182E+05
 cg2d: Sum(rhs),rhsMax =  -4.59253430374435E+01  1.51926431443107E+00
(PID.TID 0000.0001)  ploadbar=  1.01023987736896E+05
 cg2d: Sum(rhs),rhsMax =  -4.60558673007584E+01  1.51548654173332E+00
(PID.TID 0000.0001)  ploadbar=  1.01024926437610E+05
 cg2d: Sum(rhs),rhsMax =  -4.61976173273309E+01  1.51136617316272E+00
(PID.TID 0000.0001)  ploadbar=  1.01026031060063E+05
 cg2d: Sum(rhs),rhsMax =  -4.63463424967422E+01  1.50703692020148E+00
(PID.TID 0000.0001)  ploadbar=  1.01027135682516E+05
 cg2d: Sum(rhs),rhsMax =  -4.65038065091124E+01  1.50244397875698E+00
(PID.TID 0000.0001)  ploadbar=  1.01028240304969E+05
 cg2d: Sum(rhs),rhsMax =  -4.66693549315618E+01  1.49761119455999E+00
(PID.TID 0000.0001)  ploadbar=  1.01029344927421E+05
 cg2d: Sum(rhs),rhsMax =  -4.68424526918707E+01  1.49255953464832E+00
(PID.TID 0000.0001)  ploadbar=  1.01030449549874E+05
 cg2d: Sum(rhs),rhsMax =  -4.70241826783179E+01  1.48726301958652E+00
(PID.TID 0000.0001)  ploadbar=  1.01031554172327E+05
 cg2d: Sum(rhs),rhsMax =  -4.72255215359782E+01  1.48139616125089E+00
(PID.TID 0000.0001)  ploadbar=  1.01033153068061E+05
 cg2d: Sum(rhs),rhsMax =  -4.74387641894264E+01  1.47520543549898E+00
(PID.TID 0000.0001)  ploadbar=  1.01034751963794E+05
 cg2d: Sum(rhs),rhsMax =  -4.76549687148768E+01  1.46897148054272E+00
(PID.TID 0000.0001)  ploadbar=  1.01036350859527E+05
 cg2d: Sum(rhs),rhsMax =  -4.78728836639361E+01  1.46273149837345E+00
(PID.TID 0000.0001)  ploadbar=  1.01037949755261E+05
 cg2d: Sum(rhs),rhsMax =  -4.80906124294403E+01  1.45654346897841E+00
(PID.TID 0000.0001)  ploadbar=  1.01039548650994E+05
 cg2d: Sum(rhs),rhsMax =  -4.83059227361202E+01  1.45046989256737E+00
(PID.TID 0000.0001)  ploadbar=  1.01041147546727E+05
 cg2d: Sum(rhs),rhsMax =  -4.84970622096175E+01  1.44511168288118E+00
(PID.TID 0000.0001)  ploadbar=  1.01042675117581E+05
 cg2d: Sum(rhs),rhsMax =  -4.86761182245972E+01  1.44008583686417E+00
(PID.TID 0000.0001)  ploadbar=  1.01044202688434E+05
 cg2d: Sum(rhs),rhsMax =  -4.88370909782396E+01  1.43555967074472E+00
(PID.TID 0000.0001)  ploadbar=  1.01045730259287E+05
 cg2d: Sum(rhs),rhsMax =  -4.89790679583131E+01  1.43154147236309E+00
(PID.TID 0000.0001)  ploadbar=  1.01047257830141E+05
 cg2d: Sum(rhs),rhsMax =  -4.91064465418792E+01  1.42788646620420E+00
(PID.TID 0000.0001)  ploadbar=  1.01048785400994E+05
 cg2d: Sum(rhs),rhsMax =  -4.92219124255500E+01  1.42450336163190E+00
(PID.TID 0000.0001)  ploadbar=  1.01050312971847E+05
 cg2d: Sum(rhs),rhsMax =  -4.93467080004738E+01  1.42091366437670E+00
(PID.TID 0000.0001)  ploadbar=  1.01052441550712E+05
 cg2d: Sum(rhs),rhsMax =  -4.94800939329468E+01  1.41713525383801E+00
(PID.TID 0000.0001)  ploadbar=  1.01054570129577E+05
 cg2d: Sum(rhs),rhsMax =  -4.96228304398260E+01  1.41314384617800E+00
(PID.TID 0000.0001)  ploadbar=  1.01056698708442E+05
 cg2d: Sum(rhs),rhsMax =  -4.97724879826232E+01  1.40900476422632E+00
(PID.TID 0000.0001)  ploadbar=  1.01058827287307E+05
 cg2d: Sum(rhs),rhsMax =  -4.99283975553715E+01  1.40473263403134E+00
(PID.TID 0000.0001)  ploadbar=  1.01060955866172E+05
 cg2d: Sum(rhs),rhsMax =  -5.00892906448132E+01  1.40036012874883E+00
(PID.TID 0000.0001)  ploadbar=  1.01063084445037E+05
 cg2d: Sum(rhs),rhsMax =  -5.02438965351848E+01  1.39622399631046E+00
(PID.TID 0000.0001)  ploadbar=  1.01064346764520E+05
 cg2d: Sum(rhs),rhsMax =  -5.03961138431228E+01  1.39220696384615E+00
(PID.TID 0000.0001)  ploadbar=  1.01065609084003E+05
 cg2d: Sum(rhs),rhsMax =  -5.05476351967686E+01  1.38825382024181E+00
(PID.TID 0000.0001)  ploadbar=  1.01066871403486E+05
 cg2d: Sum(rhs),rhsMax =  -5.06993854743360E+01  1.38433323084091E+00
(PID.TID 0000.0001)  ploadbar=  1.01068133722968E+05
 cg2d: Sum(rhs),rhsMax =  -5.08516028083046E+01  1.38043589292537E+00
(PID.TID 0000.0001)  ploadbar=  1.01069396042451E+05
 cg2d: Sum(rhs),rhsMax =  -5.10043852852939E+01  1.37655513164138E+00
(PID.TID 0000.0001)  ploadbar=  1.01070658361934E+05
 cg2d: Sum(rhs),rhsMax =  -5.11742877143986E+01  1.37225820755848E+00
(PID.TID 0000.0001)  ploadbar=  1.01071753268818E+05
 cg2d: Sum(rhs),rhsMax =  -5.13468806809919E+01  1.36792981252539E+00
(PID.TID 0000.0001)  ploadbar=  1.01072848175702E+05
 cg2d: Sum(rhs),rhsMax =  -5.15241642943769E+01  1.36351267858481E+00
(PID.TID 0000.0001)  ploadbar=  1.01073943082586E+05
 cg2d: Sum(rhs),rhsMax =  -5.17043636485618E+01  1.35905055625346E+00
(PID.TID 0000.0001)  ploadbar=  1.01075037989469E+05
 cg2d: Sum(rhs),rhsMax =  -5.18836879884249E+01  1.35463848783464E+00
(PID.TID 0000.0001)  ploadbar=  1.01076132896353E+05
 cg2d: Sum(rhs),rhsMax =  -5.20608853575953E+01  1.35030522236090E+00
(PID.TID 0000.0001)  ploadbar=  1.01077227803237E+05
 cg2d: Sum(rhs),rhsMax =  -5.22396614492532E+01  1.34593952537949E+00
(PID.TID 0000.0001)  ploadbar=  1.01077961329228E+05
 cg2d: Sum(rhs),rhsMax =  -5.24127173678094E+01  1.34172644367727E+00
(PID.TID 0000.0001)  ploadbar=  1.01078694855220E+05
 cg2d: Sum(rhs),rhsMax =  -5.25739688471921E+01  1.33781280363020E+00
(PID.TID 0000.0001)  ploadbar=  1.01079428381211E+05
 cg2d: Sum(rhs),rhsMax =  -5.27199610689145E+01  1.33427404848165E+00
(PID.TID 0000.0001)  ploadbar=  1.01080161907202E+05
 cg2d: Sum(rhs),rhsMax =  -5.28449604440837E+01  1.33124174714203E+00
(PID.TID 0000.0001)  ploadbar=  1.01080895433193E+05
 cg2d: Sum(rhs),rhsMax =  -5.29444503534896E+01  1.32881857585816E+00
(PID.TID 0000.0001)  ploadbar=  1.01081628959184E+05
 cg2d: Sum(rhs),rhsMax =  -5.30244333404932E+01  1.32699098323133E+00
(PID.TID 0000.0001)  ploadbar=  1.01082478472604E+05
 cg2d: Sum(rhs),rhsMax =  -5.31055087977177E+01  1.32523569082059E+00
(PID.TID 0000.0001)  ploadbar=  1.01083327986023E+05
 cg2d: Sum(rhs),rhsMax =  -5.31865237117387E+01  1.32357689879014E+00
(PID.TID 0000.0001)  ploadbar=  1.01084177499442E+05
 cg2d: Sum(rhs),rhsMax =  -5.32702748274129E+01  1.32194117072463E+00
(PID.TID 0000.0001)  ploadbar=  1.01085027012862E+05
 cg2d: Sum(rhs),rhsMax =  -5.33622742628571E+01  1.32018869794729E+00
(PID.TID 0000.0001)  ploadbar=  1.01085876526281E+05
 cg2d: Sum(rhs),rhsMax =  -5.34667963736428E+01  1.31820969430084E+00
(PID.TID 0000.0001)  ploadbar=  1.01086726039700E+05
 cg2d: Sum(rhs),rhsMax =  -5.35757433731669E+01  1.31613715232975E+00
(PID.TID 0000.0001)  ploadbar=  1.01087502067398E+05
 cg2d: Sum(rhs),rhsMax =  -5.37146150692869E+01  1.31333840153126E+00
(PID.TID 0000.0001)      cg2d_init_res =   2.58848660123794E-01
(PID.TID 0000.0001)      cg2d_iters(min,last) =      -1     142
(PID.TID 0000.0001)      cg2d_last_res =   9.79172478395910E-08
(PID.TID 0000.0001) // =======================================================
(PID.TID 0000.0001) // Begin MONITOR dynamic field statistics
(PID.TID 0000.0001) // =======================================================
(PID.TID 0000.0001) %MON time_tsnumber                =                  3504
(PID.TID 0000.0001) %MON time_secondsf                =   1.2614400000000E+07
(PID.TID 0000.0001) %MON dynstat_eta_max              =   1.1087725189625E+00
(PID.TID 0000.0001) %MON dynstat_eta_min              =  -5.5301484132085E+00
(PID.TID 0000.0001) %MON dynstat_eta_mean             =   3.5705254700821E-02
(PID.TID 0000.0001) %MON dynstat_eta_sd               =   7.6150855889450E-01
(PID.TID 0000.0001) %MON dynstat_eta_del2             =   2.0449213908536E-04
(PID.TID 0000.0001) %MON dynstat_uvel_max             =   1.2342759184564E+00
(PID.TID 0000.0001) %MON dynstat_uvel_min             =  -8.9288277763522E-01
(PID.TID 0000.0001) %MON dynstat_uvel_mean            =   1.4082615954370E-03
(PID.TID 0000.0001) %MON dynstat_uvel_sd              =   2.1136654398029E-02
(PID.TID 0000.0001) %MON dynstat_uvel_del2            =   8.2037090460974E-06
(PID.TID 0000.0001) %MON dynstat_vvel_max             =   7.8299476219405E-01
(PID.TID 0000.0001) %MON dynstat_vvel_min             =  -9.8601878455303E-01
(PID.TID 0000.0001) %MON dynstat_vvel_mean            =   8.4698560397530E-04
(PID.TID 0000.0001) %MON dynstat_vvel_sd              =   2.1138269753459E-02
(PID.TID 0000.0001) %MON dynstat_vvel_del2            =   8.4247048569433E-06
(PID.TID 0000.0001) %MON dynstat_wvel_max             =   5.8518730985629E-04
(PID.TID 0000.0001) %MON dynstat_wvel_min             =  -8.3606818214402E-04
(PID.TID 0000.0001) %MON dynstat_wvel_mean            =  -8.4364913328524E-09
(PID.TID 0000.0001) %MON dynstat_wvel_sd              =   2.2190137979167E-05
(PID.TID 0000.0001) %MON dynstat_wvel_del2            =   1.6449448577488E-08
(PID.TID 0000.0001) %MON dynstat_theta_max            =   3.2118782633104E+01
(PID.TID 0000.0001) %MON dynstat_theta_min            =  -2.1140759386605E+00
(PID.TID 0000.0001) %MON dynstat_theta_mean           =   3.5857028882650E+00
(PID.TID 0000.0001) %MON dynstat_theta_sd             =   4.4435510645649E+00
(PID.TID 0000.0001) %MON dynstat_theta_del2           =   8.4036317887004E-05
(PID.TID 0000.0001) %MON dynstat_salt_max             =   4.0641907162396E+01
(PID.TID 0000.0001) %MON dynstat_salt_min             =   2.3213120809007E+01
(PID.TID 0000.0001) %MON dynstat_salt_mean            =   3.4727297819481E+01
(PID.TID 0000.0001) %MON dynstat_salt_sd              =   3.7704566424812E-01
(PID.TID 0000.0001) %MON dynstat_salt_del2            =   1.8724308908505E-05
(PID.TID 0000.0001) %MON dynstat_sst_max              =   3.2100100582305E+01
(PID.TID 0000.0001) %MON dynstat_sst_min              =  -1.9608833860526E+00
(PID.TID 0000.0001) %MON dynstat_sst_mean             =   1.8223434435515E+01
(PID.TID 0000.0001) %MON dynstat_sst_sd               =   1.0421516582602E+01
(PID.TID 0000.0001) %MON dynstat_sst_del2             =   6.4515850611593E-04
(PID.TID 0000.0001) %MON dynstat_sss_max              =   3.9994134519533E+01
(PID.TID 0000.0001) %MON dynstat_sss_min              =   2.3213120809007E+01
(PID.TID 0000.0001) %MON dynstat_sss_mean             =   3.4745988643446E+01
(PID.TID 0000.0001) %MON dynstat_sss_sd               =   1.1732480548601E+00
(PID.TID 0000.0001) %MON dynstat_sss_del2             =   3.0596594945116E-04
(PID.TID 0000.0001) %MON forcing_qnet_max             =   7.2743269192587E+02
(PID.TID 0000.0001) %MON forcing_qnet_min             =  -5.7879601166687E+02
(PID.TID 0000.0001) %MON forcing_qnet_mean            =   3.6387847683075E+01
(PID.TID 0000.0001) %MON forcing_qnet_sd              =   1.6223811808515E+02
(PID.TID 0000.0001) %MON forcing_qnet_del2            =   9.3975849929987E-02
(PID.TID 0000.0001) %MON forcing_qsw_max              =   4.1153482476635E+01
(PID.TID 0000.0001) %MON forcing_qsw_min              =  -7.0969266628829E+02
(PID.TID 0000.0001) %MON forcing_qsw_mean             =  -1.1735141784304E+02
(PID.TID 0000.0001) %MON forcing_qsw_sd               =   1.4746717067895E+02
(PID.TID 0000.0001) %MON forcing_qsw_del2             =   5.5460634157458E-02
(PID.TID 0000.0001) %MON forcing_empmr_max            =   1.8849515338412E-03
(PID.TID 0000.0001) %MON forcing_empmr_min            =  -3.2062395588178E-03
(PID.TID 0000.0001) %MON forcing_empmr_mean           =  -4.6931214076085E-06
(PID.TID 0000.0001) %MON forcing_empmr_sd             =   9.4319070307258E-05
(PID.TID 0000.0001) %MON forcing_empmr_del2           =   2.7186139134868E-07
(PID.TID 0000.0001) %MON forcing_fu_max               =   1.0205816626549E+00
(PID.TID 0000.0001) %MON forcing_fu_min               =  -8.4115760409097E-01
(PID.TID 0000.0001) %MON forcing_fu_mean              =   1.4134457383178E-02
(PID.TID 0000.0001) %MON forcing_fu_sd                =   1.3792572635777E-01
(PID.TID 0000.0001) %MON forcing_fu_del2              =   7.4026540098044E-05
(PID.TID 0000.0001) %MON forcing_fv_max               =   7.0984296436558E-01
(PID.TID 0000.0001) %MON forcing_fv_min               =  -8.9567142269735E-01
(PID.TID 0000.0001) %MON forcing_fv_mean              =   5.5853636431833E-04
(PID.TID 0000.0001) %MON forcing_fv_sd                =   1.0077697839040E-01
(PID.TID 0000.0001) %MON forcing_fv_del2              =   6.2494750462166E-05
(PID.TID 0000.0001) %MON trAdv_CFL_u_max              =   5.3662266554325E-02
(PID.TID 0000.0001) %MON trAdv_CFL_v_max              =   5.8538660767219E-02
(PID.TID 0000.0001) %MON trAdv_CFL_w_max              =   1.2440902620432E-01
(PID.TID 0000.0001) %MON advcfl_uvel_max              =   4.6822520916310E-02
(PID.TID 0000.0001) %MON advcfl_vvel_max              =   6.1740296458641E-02
(PID.TID 0000.0001) %MON advcfl_wvel_max              =   1.2793895943706E-01
(PID.TID 0000.0001) %MON advcfl_W_hf_max              =   1.2901705759751E-01
(PID.TID 0000.0001) %MON pe_b_mean                    =   1.2902093632739E-03
(PID.TID 0000.0001) %MON ke_max                       =   8.0889675236587E-01
(PID.TID 0000.0001) %MON ke_mean                      =   4.3218055128296E-04
(PID.TID 0000.0001) %MON ke_vol                       =   1.3350106540371E+18
(PID.TID 0000.0001) %MON vort_r_min                   =  -1.1407013470669E-05
(PID.TID 0000.0001) %MON vort_r_max                   =   2.2508461830995E-05
(PID.TID 0000.0001) %MON vort_a_mean                  =  -1.9727864647440E-05
(PID.TID 0000.0001) %MON vort_a_sd                    =   7.4543000074936E-05
(PID.TID 0000.0001) %MON vort_p_mean                  =  -2.1760305862740E-05
(PID.TID 0000.0001) %MON vort_p_sd                    =   9.7245069553930E-05
(PID.TID 0000.0001) %MON surfExpan_theta_mean         =  -1.5614133048083E-07
(PID.TID 0000.0001) %MON surfExpan_salt_mean          =   1.2634062320490E-08
(PID.TID 0000.0001) // =======================================================
(PID.TID 0000.0001) // End MONITOR dynamic field statistics
(PID.TID 0000.0001) // =======================================================
(PID.TID 0000.0001)  ploadbar=  1.01088278095097E+05
(PID.TID 0000.0001) %SBO sbo_mass                     =   1.3737549498765E+21
(PID.TID 0000.0001) %SBO sbo_mass_fw                  =   4.2134505995063E+16
(PID.TID 0000.0001) %SBO sbo_zoamc                    =   9.6892729390945E+24
(PID.TID 0000.0001) %SBO sbo_zoamp                    =   2.9276559867330E+30
(PID.TID 0000.0001) // =======================================================
(PID.TID 0000.0001) // Begin MONITOR SEAICE statistics
(PID.TID 0000.0001) // =======================================================
(PID.TID 0000.0001) %MON seaice_tsnumber              =                  3504
(PID.TID 0000.0001) %MON seaice_time_sec              =   1.2614400000000E+07
(PID.TID 0000.0001) %MON seaice_uice_max              =   4.0000000000000E-01
(PID.TID 0000.0001) %MON seaice_uice_min              =  -4.0000000000000E-01
(PID.TID 0000.0001) %MON seaice_uice_mean             =   1.3370136335890E-03
(PID.TID 0000.0001) %MON seaice_uice_sd               =   1.7385538455175E-01
(PID.TID 0000.0001) %MON seaice_uice_del2             =   1.3559546117622E-04
(PID.TID 0000.0001) %MON seaice_vice_max              =   4.0000000000000E-01
(PID.TID 0000.0001) %MON seaice_vice_min              =  -4.0000000000000E-01
(PID.TID 0000.0001) %MON seaice_vice_mean             =  -1.3637118830567E-02
(PID.TID 0000.0001) %MON seaice_vice_sd               =   1.7203293486286E-01
(PID.TID 0000.0001) %MON seaice_vice_del2             =   1.3396955209528E-04
(PID.TID 0000.0001) %MON seaice_area_max              =   9.7000000000000E-01
(PID.TID 0000.0001) %MON seaice_area_min              =   0.0000000000000E+00
(PID.TID 0000.0001) %MON seaice_area_mean             =   6.3454719885132E-02
(PID.TID 0000.0001) %MON seaice_area_sd               =   2.2855700695062E-01
(PID.TID 0000.0001) %MON seaice_area_del2             =   2.2097528425624E-04
(PID.TID 0000.0001) %MON seaice_heff_max              =   5.4785515981540E+00
(PID.TID 0000.0001) %MON seaice_heff_min              =   0.0000000000000E+00
(PID.TID 0000.0001) %MON seaice_heff_mean             =   8.4939592166972E-02
(PID.TID 0000.0001) %MON seaice_heff_sd               =   4.0111359380830E-01
(PID.TID 0000.0001) %MON seaice_heff_del2             =   2.1492695397460E-04
(PID.TID 0000.0001) %MON seaice_hsnow_max             =   1.0179204476908E+00
(PID.TID 0000.0001) %MON seaice_hsnow_min             =  -7.7284497241580E-05
(PID.TID 0000.0001) %MON seaice_hsnow_mean            =   1.1072297347699E-02
(PID.TID 0000.0001) %MON seaice_hsnow_sd              =   5.4340450737349E-02
(PID.TID 0000.0001) %MON seaice_hsnow_del2            =   4.4730895255436E-05
(PID.TID 0000.0001) // =======================================================
(PID.TID 0000.0001) // End MONITOR SEAICE statistics
(PID.TID 0000.0001) // =======================================================
(PID.TID 0000.0001) // =======================================================
(PID.TID 0000.0001) // Begin MONITOR EXF statistics
(PID.TID 0000.0001) // =======================================================
(PID.TID 0000.0001) %MON exf_tsnumber                 =                  3504
(PID.TID 0000.0001) %MON exf_time_sec                 =   1.2614400000000E+07
(PID.TID 0000.0001) %MON exf_ustress_max              =   1.0689419507980E+00
(PID.TID 0000.0001) %MON exf_ustress_min              =  -9.7425293922424E-01
(PID.TID 0000.0001) %MON exf_ustress_mean             =   1.3479582094127E-02
(PID.TID 0000.0001) %MON exf_ustress_sd               =   1.3757625812486E-01
(PID.TID 0000.0001) %MON exf_ustress_del2             =   8.3301926847449E-05
(PID.TID 0000.0001) %MON exf_vstress_max              =   9.1810378432274E-01
(PID.TID 0000.0001) %MON exf_vstress_min              =  -9.6884948015213E-01
(PID.TID 0000.0001) %MON exf_vstress_mean             =   6.4878148788062E-04
(PID.TID 0000.0001) %MON exf_vstress_sd               =   1.0014277228988E-01
(PID.TID 0000.0001) %MON exf_vstress_del2             =   6.8436375280729E-05
(PID.TID 0000.0001) %MON exf_hflux_max                =   1.1233334171782E+03
(PID.TID 0000.0001) %MON exf_hflux_min                =  -5.5456971661204E+02
(PID.TID 0000.0001) %MON exf_hflux_mean               =   3.6990325914197E+01
(PID.TID 0000.0001) %MON exf_hflux_sd                 =   1.8163202588510E+02
(PID.TID 0000.0001) %MON exf_hflux_del2               =   2.9063490672841E-01
(PID.TID 0000.0001) %MON exf_sflux_max                =   1.8753513506782E-07
(PID.TID 0000.0001) %MON exf_sflux_min                =  -3.1903483275570E-06
(PID.TID 0000.0001) %MON exf_sflux_mean               =  -2.8791192293642E-09
(PID.TID 0000.0001) %MON exf_sflux_sd                 =   8.2360403369815E-08
(PID.TID 0000.0001) %MON exf_sflux_del2               =   1.7406245908294E-10
(PID.TID 0000.0001) %MON exf_wspeed_max               =   2.1747757911682E+01
(PID.TID 0000.0001) %MON exf_wspeed_min               =   4.5171645283699E-01
(PID.TID 0000.0001) %MON exf_wspeed_mean              =   6.9145142769840E+00
(PID.TID 0000.0001) %MON exf_wspeed_sd                =   3.3907369120128E+00
(PID.TID 0000.0001) %MON exf_wspeed_del2              =   1.2074329169975E-02
(PID.TID 0000.0001) %MON exf_atemp_max                =   3.1031335487366E+02
(PID.TID 0000.0001) %MON exf_atemp_min                =   2.2812844123840E+02
(PID.TID 0000.0001) %MON exf_atemp_mean               =   2.8969302668465E+02
(PID.TID 0000.0001) %MON exf_atemp_sd                 =   1.1379368631382E+01
(PID.TID 0000.0001) %MON exf_atemp_del2               =   2.4277984332598E-02
(PID.TID 0000.0001) %MON exf_aqh_max                  =   2.2745097987354E-02
(PID.TID 0000.0001) %MON exf_aqh_min                  =   3.8203865187825E-05
(PID.TID 0000.0001) %MON exf_aqh_mean                 =   1.1070233996496E-02
(PID.TID 0000.0001) %MON exf_aqh_sd                   =   5.7188517777648E-03
(PID.TID 0000.0001) %MON exf_aqh_del2                 =   1.5015617243357E-05
(PID.TID 0000.0001) %MON exf_lwflux_max               =   2.0311111414528E+02
(PID.TID 0000.0001) %MON exf_lwflux_min               =  -4.5555049376839E+01
(PID.TID 0000.0001) %MON exf_lwflux_mean              =   4.4201023519068E+01
(PID.TID 0000.0001) %MON exf_lwflux_sd                =   2.3979131755926E+01
(PID.TID 0000.0001) %MON exf_lwflux_del2              =   7.7278903090070E-02
(PID.TID 0000.0001) %MON exf_evap_max                 =   2.1094451828625E-07
(PID.TID 0000.0001) %MON exf_evap_min                 =  -3.6056564017859E-08
(PID.TID 0000.0001) %MON exf_evap_mean                =   4.0535014715591E-08
(PID.TID 0000.0001) %MON exf_evap_sd                  =   2.7392158304915E-08
(PID.TID 0000.0001) %MON exf_evap_del2                =   6.3570840631710E-11
(PID.TID 0000.0001) %MON exf_precip_max               =   1.1666218675543E-06
(PID.TID 0000.0001) %MON exf_precip_min               =  -2.8915873251378E-08
(PID.TID 0000.0001) %MON exf_precip_mean              =   3.8762863071012E-08
(PID.TID 0000.0001) %MON exf_precip_sd                =   6.4522070156089E-08
(PID.TID 0000.0001) %MON exf_precip_del2              =   1.6917367408724E-10
(PID.TID 0000.0001) %MON exf_swflux_max               =   4.6561129760742E+01
(PID.TID 0000.0001) %MON exf_swflux_min               =  -6.1722453062445E+02
(PID.TID 0000.0001) %MON exf_swflux_mean              =  -1.2904225836271E+02
(PID.TID 0000.0001) %MON exf_swflux_sd                =   1.5171333457640E+02
(PID.TID 0000.0001) %MON exf_swflux_del2              =   2.7089344044153E-01
(PID.TID 0000.0001) %MON exf_swdown_max               =   6.7127566528320E+02
(PID.TID 0000.0001) %MON exf_swdown_min               =  -6.6515899658203E+01
(PID.TID 0000.0001) %MON exf_swdown_mean              =   1.4033617899137E+02
(PID.TID 0000.0001) %MON exf_swdown_sd                =   1.6419588575056E+02
(PID.TID 0000.0001) %MON exf_swdown_del2              =   2.9516124365388E-01
(PID.TID 0000.0001) %MON exf_lwdown_max               =   4.6666184997559E+02
(PID.TID 0000.0001) %MON exf_lwdown_min               =   9.7291194915771E+01
(PID.TID 0000.0001) %MON exf_lwdown_mean              =   3.6620146414850E+02
(PID.TID 0000.0001) %MON exf_lwdown_sd                =   5.9842911143372E+01
(PID.TID 0000.0001) %MON exf_lwdown_del2              =   4.9412547518226E-01
(PID.TID 0000.0001) %MON exf_apressure_max            =   1.0380930078125E+05
(PID.TID 0000.0001) %MON exf_apressure_min            =   9.5583203125000E+04
(PID.TID 0000.0001) %MON exf_apressure_mean           =   1.0108905412279E+05
(PID.TID 0000.0001) %MON exf_apressure_sd             =   1.0670048925677E+03
(PID.TID 0000.0001) %MON exf_apressure_del2           =   1.4505703173578E+02
(PID.TID 0000.0001) %MON exf_runoff_max               =   3.1856565641885E-06
(PID.TID 0000.0001) %MON exf_runoff_min               =   0.0000000000000E+00
(PID.TID 0000.0001) %MON exf_runoff_mean              =   4.6512708739432E-09
(PID.TID 0000.0001) %MON exf_runoff_sd                =   4.0722969529259E-08
(PID.TID 0000.0001) %MON exf_runoff_del2              =   4.7846032036813E-11
(PID.TID 0000.0001) // =======================================================
(PID.TID 0000.0001) // End MONITOR EXF statistics
(PID.TID 0000.0001) // =======================================================
 cg2d: Sum(rhs),rhsMax =  -5.38821374181484E+01  1.30984929071185E+00
(PID.TID 0000.0001)  ploadbar=  1.01089054122795E+05
 cg2d: Sum(rhs),rhsMax =  -5.40737047479235E+01  1.30579258943718E+00
(PID.TID 0000.0001)  ploadbar=  1.01089830150493E+05
 cg2d: Sum(rhs),rhsMax =  -5.42794179834174E+01  1.30141693945311E+00
(PID.TID 0000.0001)  ploadbar=  1.01090606178191E+05
 cg2d: Sum(rhs),rhsMax =  -5.44884763069133E+01  1.29699048587458E+00
(PID.TID 0000.0001)  ploadbar=  1.01091382205890E+05
 cg2d: Sum(rhs),rhsMax =  -5.46741082858873E+01  1.29317221939153E+00
(PID.TID 0000.0001)  ploadbar=  1.01091783353874E+05
 cg2d: Sum(rhs),rhsMax =  -5.48489053698249E+01  1.28964440474089E+00
(PID.TID 0000.0001)  ploadbar=  1.01092184501859E+05
 cg2d: Sum(rhs),rhsMax =  -5.50129704797756E+01  1.28639828490811E+00
(PID.TID 0000.0001)  ploadbar=  1.01092585649844E+05
 cg2d: Sum(rhs),rhsMax =  -5.51607392392831E+01  1.28355540748312E+00
(PID.TID 0000.0001)  ploadbar=  1.01092986797828E+05
 cg2d: Sum(rhs),rhsMax =  -5.52892221700083E+01  1.28118012892312E+00
(PID.TID 0000.0001)  ploadbar=  1.01093387945813E+05
 cg2d: Sum(rhs),rhsMax =  -5.53982810752949E+01  1.27927322511676E+00
(PID.TID 0000.0001)  ploadbar=  1.01093789093798E+05
 cg2d: Sum(rhs),rhsMax =  -5.54993654010148E+01  1.27751121695986E+00
(PID.TID 0000.0001)  ploadbar=  1.01093885995982E+05
 cg2d: Sum(rhs),rhsMax =  -5.55717352600916E+01  1.27636013872854E+00
(PID.TID 0000.0001)  ploadbar=  1.01093982898167E+05
 cg2d: Sum(rhs),rhsMax =  -5.56250031936512E+01  1.27559287717145E+00
(PID.TID 0000.0001)  ploadbar=  1.01094079800351E+05
 cg2d: Sum(rhs),rhsMax =  -5.56626089626315E+01  1.27512783071778E+00
(PID.TID 0000.0001)  ploadbar=  1.01094176702536E+05
 cg2d: Sum(rhs),rhsMax =  -5.56875714794748E+01  1.27489029669743E+00
(PID.TID 0000.0001)  ploadbar=  1.01094273604721E+05
 cg2d: Sum(rhs),rhsMax =  -5.57020785906030E+01  1.27482339418631E+00
(PID.TID 0000.0001)  ploadbar=  1.01094370506905E+05
 cg2d: Sum(rhs),rhsMax =  -5.57228962329016E+01  1.27470725634227E+00
(PID.TID 0000.0001)  ploadbar=  1.01093443163608E+05
 cg2d: Sum(rhs),rhsMax =  -5.57341549531962E+01  1.27490350574592E+00
(PID.TID 0000.0001)  ploadbar=  1.01092515820310E+05
 cg2d: Sum(rhs),rhsMax =  -5.57371884375730E+01  1.27538255013897E+00
(PID.TID 0000.0001)  ploadbar=  1.01091588477012E+05
 cg2d: Sum(rhs),rhsMax =  -5.57432328229538E+01  1.27588568398395E+00
(PID.TID 0000.0001)  ploadbar=  1.01090661133714E+05
 cg2d: Sum(rhs),rhsMax =  -5.57484691217041E+01  1.27649740915147E+00
(PID.TID 0000.0001)  ploadbar=  1.01089733790417E+05
 cg2d: Sum(rhs),rhsMax =  -5.57533049029481E+01  1.27720413958105E+00
(PID.TID 0000.0001)  ploadbar=  1.01088806447119E+05
 cg2d: Sum(rhs),rhsMax =  -5.57605912420264E+01  1.27783315199180E+00
(PID.TID 0000.0001)  ploadbar=  1.01088859504385E+05
 cg2d: Sum(rhs),rhsMax =  -5.57774243058302E+01  1.27821670604470E+00
(PID.TID 0000.0001)  ploadbar=  1.01088912561651E+05
 cg2d: Sum(rhs),rhsMax =  -5.58087694936759E+01  1.27824176523553E+00
(PID.TID 0000.0001)  ploadbar=  1.01088965618916E+05
 cg2d: Sum(rhs),rhsMax =  -5.58707479912633E+01  1.27754108317906E+00
(PID.TID 0000.0001)  ploadbar=  1.01089018676182E+05
 cg2d: Sum(rhs),rhsMax =  -5.59570069866502E+01  1.27626459994396E+00
(PID.TID 0000.0001)  ploadbar=  1.01089071733448E+05
 cg2d: Sum(rhs),rhsMax =  -5.60570580342099E+01  1.27465955077540E+00
(PID.TID 0000.0001)  ploadbar=  1.01089124790714E+05
 cg2d: Sum(rhs),rhsMax =  -5.61666842729596E+01  1.27289559287093E+00
(PID.TID 0000.0001)  ploadbar=  1.01089230459680E+05
 cg2d: Sum(rhs),rhsMax =  -5.62890531426229E+01  1.27089546365355E+00
(PID.TID 0000.0001)  ploadbar=  1.01089336128646E+05
 cg2d: Sum(rhs),rhsMax =  -5.64166756003467E+01  1.26882856638766E+00
(PID.TID 0000.0001)  ploadbar=  1.01089441797611E+05
 cg2d: Sum(rhs),rhsMax =  -5.65474480790266E+01  1.26674425968167E+00
(PID.TID 0000.0001)  ploadbar=  1.01089547466577E+05
 cg2d: Sum(rhs),rhsMax =  -5.66808664712048E+01  1.26465436911021E+00
(PID.TID 0000.0001)  ploadbar=  1.01089653135543E+05
 cg2d: Sum(rhs),rhsMax =  -5.68158272868583E+01  1.26258278593962E+00
(PID.TID 0000.0001)  ploadbar=  1.01089758804509E+05
 cg2d: Sum(rhs),rhsMax =  -5.69402773230245E+01  1.26068084273389E+00
(PID.TID 0000.0001)  ploadbar=  1.01090225424117E+05
 cg2d: Sum(rhs),rhsMax =  -5.70576897975762E+01  1.25887105963541E+00
(PID.TID 0000.0001)  ploadbar=  1.01090692043725E+05
 cg2d: Sum(rhs),rhsMax =  -5.71708076606056E+01  1.25709143665366E+00
(PID.TID 0000.0001)  ploadbar=  1.01091158663333E+05
 cg2d: Sum(rhs),rhsMax =  -5.72809482253693E+01  1.25531244359796E+00
(PID.TID 0000.0001)  ploadbar=  1.01091625282940E+05
 cg2d: Sum(rhs),rhsMax =  -5.73902740384741E+01  1.25348239648913E+00
(PID.TID 0000.0001)  ploadbar=  1.01092091902548E+05
 cg2d: Sum(rhs),rhsMax =  -5.75017335378881E+01  1.25153781424904E+00
(PID.TID 0000.0001)  ploadbar=  1.01092558522156E+05
 cg2d: Sum(rhs),rhsMax =  -5.76188289730560E+01  1.24950130346326E+00
(PID.TID 0000.0001)  ploadbar=  1.01093809264398E+05
 cg2d: Sum(rhs),rhsMax =  -5.77435638616629E+01  1.24733234410079E+00
(PID.TID 0000.0001)  ploadbar=  1.01095060006640E+05
 cg2d: Sum(rhs),rhsMax =  -5.78807060305335E+01  1.24493264198684E+00
(PID.TID 0000.0001)  ploadbar=  1.01096310748882E+05
 cg2d: Sum(rhs),rhsMax =  -5.80254241258033E+01  1.24240933542846E+00
(PID.TID 0000.0001)  ploadbar=  1.01097561491124E+05
 cg2d: Sum(rhs),rhsMax =  -5.81747282046702E+01  1.23982683298387E+00
(PID.TID 0000.0001)  ploadbar=  1.01098812233366E+05
 cg2d: Sum(rhs),rhsMax =  -5.83276244397495E+01  1.23720355067867E+00
(PID.TID 0000.0001)  ploadbar=  1.01100062975608E+05
 cg2d: Sum(rhs),rhsMax =  -5.84855816542798E+01  1.23448286271534E+00
(PID.TID 0000.0001)  ploadbar=  1.01099993154060E+05
 cg2d: Sum(rhs),rhsMax =  -5.86481667785221E+01  1.23167294120689E+00
(PID.TID 0000.0001)  ploadbar=  1.01099923332513E+05
 cg2d: Sum(rhs),rhsMax =  -5.88107238854732E+01  1.22887294701888E+00
(PID.TID 0000.0001)  ploadbar=  1.01099853510966E+05
 cg2d: Sum(rhs),rhsMax =  -5.89764588195139E+01  1.22601581525262E+00
(PID.TID 0000.0001)  ploadbar=  1.01099783689419E+05
 cg2d: Sum(rhs),rhsMax =  -5.91481396082476E+01  1.22304682675109E+00
(PID.TID 0000.0001)  ploadbar=  1.01099713867871E+05
 cg2d: Sum(rhs),rhsMax =  -5.93244955441538E+01  1.21999321994761E+00
(PID.TID 0000.0001)  ploadbar=  1.01099644046324E+05
 cg2d: Sum(rhs),rhsMax =  -5.95079398747296E+01  1.21682025874668E+00
(PID.TID 0000.0001)  ploadbar=  1.01099517381915E+05
 cg2d: Sum(rhs),rhsMax =  -5.96948229529826E+01  1.21359576364894E+00
(PID.TID 0000.0001)  ploadbar=  1.01099390717506E+05
 cg2d: Sum(rhs),rhsMax =  -5.98771533872898E+01  1.21047952721646E+00
(PID.TID 0000.0001)  ploadbar=  1.01099264053097E+05
 cg2d: Sum(rhs),rhsMax =  -6.00533466960545E+01  1.20750295762477E+00
(PID.TID 0000.0001)  ploadbar=  1.01099137388688E+05
 cg2d: Sum(rhs),rhsMax =  -6.02196714907309E+01  1.20473513436794E+00
(PID.TID 0000.0001)  ploadbar=  1.01099010724279E+05
 cg2d: Sum(rhs),rhsMax =  -6.03776773061147E+01  1.20214208778150E+00
(PID.TID 0000.0001)  ploadbar=  1.01098884059870E+05
 cg2d: Sum(rhs),rhsMax =  -6.05243094137753E+01  1.19975617406248E+00
(PID.TID 0000.0001)  ploadbar=  1.01099628686003E+05
 cg2d: Sum(rhs),rhsMax =  -6.06615103700371E+01  1.19753354542126E+00
(PID.TID 0000.0001)  ploadbar=  1.01100373312136E+05
 cg2d: Sum(rhs),rhsMax =  -6.07939775934490E+01  1.19537957149086E+00
(PID.TID 0000.0001)  ploadbar=  1.01101117938269E+05
 cg2d: Sum(rhs),rhsMax =  -6.09199828917885E+01  1.19332752612611E+00
(PID.TID 0000.0001)  ploadbar=  1.01101862564402E+05
 cg2d: Sum(rhs),rhsMax =  -6.10387552612776E+01  1.19138801051667E+00
(PID.TID 0000.0001)  ploadbar=  1.01102607190535E+05
 cg2d: Sum(rhs),rhsMax =  -6.10575374786047E+01  1.19136320098002E+00
(PID.TID 0000.0001)  ploadbar=  1.01103351816668E+05
 cg2d: Sum(rhs),rhsMax =  -6.09364760185634E+01  1.19410145598424E+00
(PID.TID 0000.0001)  ploadbar=  1.01103914504107E+05
 cg2d: Sum(rhs),rhsMax =  -6.08306668092323E+01  1.19657713876336E+00
(PID.TID 0000.0001)  ploadbar=  1.01104477191545E+05
 cg2d: Sum(rhs),rhsMax =  -6.07595315279543E+01  1.19840130192434E+00
(PID.TID 0000.0001)  ploadbar=  1.01105039878984E+05
 cg2d: Sum(rhs),rhsMax =  -6.07315082596395E+01  1.19940321356952E+00
(PID.TID 0000.0001)  ploadbar=  1.01105602566422E+05
 cg2d: Sum(rhs),rhsMax =  -6.07286184837530E+01  1.19993266060295E+00
(PID.TID 0000.0001)  ploadbar=  1.01106165253861E+05
 cg2d: Sum(rhs),rhsMax =  -6.07508778992895E+01  1.19998495035112E+00
(PID.TID 0000.0001)  ploadbar=  1.01106727941299E+05
 cg2d: Sum(rhs),rhsMax =  -6.07425881095866E+01  1.20063111323019E+00
(PID.TID 0000.0001)  ploadbar=  1.01106038296415E+05
 cg2d: Sum(rhs),rhsMax =  -6.07235628677022E+01  1.20147925336013E+00
(PID.TID 0000.0001)  ploadbar=  1.01105348651532E+05
 cg2d: Sum(rhs),rhsMax =  -6.07131341714911E+01  1.20214887091085E+00
(PID.TID 0000.0001)  ploadbar=  1.01104659006648E+05
 cg2d: Sum(rhs),rhsMax =  -6.07341773963157E+01  1.20218656932855E+00
(PID.TID 0000.0001)  ploadbar=  1.01103969361764E+05
 cg2d: Sum(rhs),rhsMax =  -6.09143374966805E+01  1.19907491084007E+00
(PID.TID 0000.0001)  ploadbar=  1.01103279716880E+05
 cg2d: Sum(rhs),rhsMax =  -6.12675760907659E+01  1.19259533980073E+00
(PID.TID 0000.0001)  ploadbar=  1.01102590071996E+05
 cg2d: Sum(rhs),rhsMax =  -6.17799535107179E+01  1.18314050904678E+00
(PID.TID 0000.0001)  ploadbar=  1.01103144254783E+05
 cg2d: Sum(rhs),rhsMax =  -6.24341182653385E+01  1.17117378963142E+00
(PID.TID 0000.0001)  ploadbar=  1.01103698437569E+05
 cg2d: Sum(rhs),rhsMax =  -6.27376442494608E+01  1.16593218675157E+00
(PID.TID 0000.0001)  ploadbar=  1.01104252620356E+05
 cg2d: Sum(rhs),rhsMax =  -6.28522798289453E+01  1.16422676324884E+00
(PID.TID 0000.0001)  ploadbar=  1.01104806803142E+05
 cg2d: Sum(rhs),rhsMax =  -6.29665750099095E+01  1.16253012830863E+00
(PID.TID 0000.0001)  ploadbar=  1.01105360985929E+05
 cg2d: Sum(rhs),rhsMax =  -6.30802202600578E+01  1.16084747639348E+00
(PID.TID 0000.0001)  ploadbar=  1.01105915168715E+05
 cg2d: Sum(rhs),rhsMax =  -6.31907069209774E+01  1.15920475584517E+00
(PID.TID 0000.0001)  ploadbar=  1.01106792428384E+05
 cg2d: Sum(rhs),rhsMax =  -6.32999881760495E+01  1.15756134698322E+00
(PID.TID 0000.0001)  ploadbar=  1.01107669688053E+05
 cg2d: Sum(rhs),rhsMax =  -6.34068029607835E+01  1.15594038400826E+00
(PID.TID 0000.0001)  ploadbar=  1.01108546947722E+05
 cg2d: Sum(rhs),rhsMax =  -6.35093970928193E+01  1.15437471804984E+00
(PID.TID 0000.0001)  ploadbar=  1.01109424207391E+05
 cg2d: Sum(rhs),rhsMax =  -6.36074108250316E+01  1.15287038636547E+00
(PID.TID 0000.0001)  ploadbar=  1.01110301467060E+05
 cg2d: Sum(rhs),rhsMax =  -6.36999948041784E+01  1.15143850969457E+00
(PID.TID 0000.0001)  ploadbar=  1.01111178726729E+05
 cg2d: Sum(rhs),rhsMax =  -6.37888503995885E+01  1.15012484729962E+00
(PID.TID 0000.0001)  ploadbar=  1.01112834359122E+05
 cg2d: Sum(rhs),rhsMax =  -6.38793879505566E+01  1.14882507563751E+00
(PID.TID 0000.0001)  ploadbar=  1.01114489991515E+05
 cg2d: Sum(rhs),rhsMax =  -6.39719976471325E+01  1.14753067969431E+00
(PID.TID 0000.0001)  ploadbar=  1.01116145623908E+05
 cg2d: Sum(rhs),rhsMax =  -6.40667601107360E+01  1.14624026890146E+00
(PID.TID 0000.0001)  ploadbar=  1.01117801256301E+05
 cg2d: Sum(rhs),rhsMax =  -6.41652634621390E+01  1.14492599446568E+00
(PID.TID 0000.0001)  ploadbar=  1.01119456888693E+05
 cg2d: Sum(rhs),rhsMax =  -6.41938735286763E+01  1.14489932441219E+00
(PID.TID 0000.0001)  ploadbar=  1.01121112521086E+05
 cg2d: Sum(rhs),rhsMax =  -6.41473112671231E+01  1.14620275097786E+00
(PID.TID 0000.0001)  ploadbar=  1.01122428013007E+05
 cg2d: Sum(rhs),rhsMax =  -6.41400198089227E+01  1.14679641635532E+00
(PID.TID 0000.0001)  ploadbar=  1.01123743504928E+05
 cg2d: Sum(rhs),rhsMax =  -6.41904341754492E+01  1.14635038492456E+00
(PID.TID 0000.0001)  ploadbar=  1.01125058996848E+05
 cg2d: Sum(rhs),rhsMax =  -6.43019875943549E+01  1.14480703961775E+00
(PID.TID 0000.0001)  ploadbar=  1.01126374488769E+05
 cg2d: Sum(rhs),rhsMax =  -6.44800154257647E+01  1.14208344101663E+00
(PID.TID 0000.0001)  ploadbar=  1.01127689980689E+05
 cg2d: Sum(rhs),rhsMax =  -6.47185237511206E+01  1.13830428880018E+00
(PID.TID 0000.0001)  ploadbar=  1.01129005472610E+05
 cg2d: Sum(rhs),rhsMax =  -6.49955470678478E+01  1.13387918572474E+00
(PID.TID 0000.0001)  ploadbar=  1.01129441914724E+05
 cg2d: Sum(rhs),rhsMax =  -6.50904847648427E+01  1.13264460827368E+00
(PID.TID 0000.0001)  ploadbar=  1.01129878356838E+05
 cg2d: Sum(rhs),rhsMax =  -6.51858037251260E+01  1.13139880555341E+00
(PID.TID 0000.0001)  ploadbar=  1.01130314798952E+05
 cg2d: Sum(rhs),rhsMax =  -6.52794622803945E+01  1.13017799802187E+00
(PID.TID 0000.0001)  ploadbar=  1.01130751241066E+05
 cg2d: Sum(rhs),rhsMax =  -6.53685636568341E+01  1.12903193696862E+00
(PID.TID 0000.0001)  ploadbar=  1.01131187683180E+05
 cg2d: Sum(rhs),rhsMax =  -6.54515137120313E+01  1.12798898827317E+00
(PID.TID 0000.0001)  ploadbar=  1.01131624125294E+05
 cg2d: Sum(rhs),rhsMax =  -6.55403551587246E+01  1.12677798860664E+00
(PID.TID 0000.0001)  ploadbar=  1.01132742994063E+05
 cg2d: Sum(rhs),rhsMax =  -6.56168721971785E+01  1.12571092961388E+00
(PID.TID 0000.0001)  ploadbar=  1.01133861862831E+05
 cg2d: Sum(rhs),rhsMax =  -6.56831068458960E+01  1.12475377002028E+00
(PID.TID 0000.0001)  ploadbar=  1.01134980731600E+05
 cg2d: Sum(rhs),rhsMax =  -6.57435370370775E+01  1.12382975565699E+00
(PID.TID 0000.0001)  ploadbar=  1.01136099600369E+05
 cg2d: Sum(rhs),rhsMax =  -6.57975895481067E+01  1.12294696426318E+00
(PID.TID 0000.0001)  ploadbar=  1.01137218469137E+05
 cg2d: Sum(rhs),rhsMax =  -6.58447202017213E+01  1.12210961100978E+00
(PID.TID 0000.0001)  ploadbar=  1.01138337337906E+05
 cg2d: Sum(rhs),rhsMax =  -6.58864456541828E+01  1.12141253199322E+00
(PID.TID 0000.0001)  ploadbar=  1.01138990439520E+05
 cg2d: Sum(rhs),rhsMax =  -6.59234972599362E+01  1.12084182530609E+00
(PID.TID 0000.0001)  ploadbar=  1.01139643541135E+05
 cg2d: Sum(rhs),rhsMax =  -6.59621268944419E+01  1.12029144296280E+00
(PID.TID 0000.0001)  ploadbar=  1.01140296642749E+05
 cg2d: Sum(rhs),rhsMax =  -6.60043201511598E+01  1.11972822822330E+00
(PID.TID 0000.0001)  ploadbar=  1.01140949744364E+05
 cg2d: Sum(rhs),rhsMax =  -6.53740172246998E+01  1.13072525355515E+00
(PID.TID 0000.0001)  ploadbar=  1.01141602845978E+05
 cg2d: Sum(rhs),rhsMax =  -6.44806169729203E+01  1.14664309564593E+00
(PID.TID 0000.0001)  ploadbar=  1.01142255947592E+05
 cg2d: Sum(rhs),rhsMax =  -6.35522569300059E+01  1.16363584928168E+00
(PID.TID 0000.0001)  ploadbar=  1.01142744952462E+05
 cg2d: Sum(rhs),rhsMax =  -6.25978065711659E+01  1.18160949786128E+00
(PID.TID 0000.0001)  ploadbar=  1.01143233957332E+05
 cg2d: Sum(rhs),rhsMax =  -6.16568006266006E+01  1.19986285643061E+00
(PID.TID 0000.0001)  ploadbar=  1.01143722962201E+05
 cg2d: Sum(rhs),rhsMax =  -6.07468351755479E+01  1.21804113900941E+00
(PID.TID 0000.0001)  ploadbar=  1.01144211967071E+05
 cg2d: Sum(rhs),rhsMax =  -5.98656266143733E+01  1.23616027011156E+00
(PID.TID 0000.0001)  ploadbar=  1.01144700971940E+05
 cg2d: Sum(rhs),rhsMax =  -5.90609510869934E+01  1.25317869697960E+00
(PID.TID 0000.0001)  ploadbar=  1.01145189976810E+05
 cg2d: Sum(rhs),rhsMax =  -5.83325919202337E+01  1.26903594609209E+00
(PID.TID 0000.0001)  ploadbar=  1.01146070302159E+05
 cg2d: Sum(rhs),rhsMax =  -5.77076572124686E+01  1.28301159821510E+00
(PID.TID 0000.0001)  ploadbar=  1.01146950627509E+05
 cg2d: Sum(rhs),rhsMax =  -5.72076877278795E+01  1.29447652926860E+00
(PID.TID 0000.0001)  ploadbar=  1.01147830952858E+05
 cg2d: Sum(rhs),rhsMax =  -5.68319357536513E+01  1.30330512497173E+00
(PID.TID 0000.0001)  ploadbar=  1.01148711278207E+05
 cg2d: Sum(rhs),rhsMax =  -5.65818518327258E+01  1.30935177739278E+00
(PID.TID 0000.0001)  ploadbar=  1.01149591603557E+05
 cg2d: Sum(rhs),rhsMax =  -5.64317632895398E+01  1.31313857723697E+00
(PID.TID 0000.0001)  ploadbar=  1.01150471928906E+05
 cg2d: Sum(rhs),rhsMax =  -5.63852028945966E+01  1.31447524197509E+00
(PID.TID 0000.0001)  ploadbar=  1.01150312956801E+05
 cg2d: Sum(rhs),rhsMax =  -5.63797639939025E+01  1.31480044323520E+00
(PID.TID 0000.0001)  ploadbar=  1.01150153984696E+05
 cg2d: Sum(rhs),rhsMax =  -5.64146115927184E+01  1.31413143836442E+00
(PID.TID 0000.0001)  ploadbar=  1.01149995012590E+05
 cg2d: Sum(rhs),rhsMax =  -5.64814287465566E+01  1.31266473668521E+00
(PID.TID 0000.0001)  ploadbar=  1.01149836040485E+05
 cg2d: Sum(rhs),rhsMax =  -5.65755642667830E+01  1.31051287792160E+00
(PID.TID 0000.0001)  ploadbar=  1.01149677068380E+05
 cg2d: Sum(rhs),rhsMax =  -5.66983018486561E+01  1.30764252615797E+00
(PID.TID 0000.0001)  ploadbar=  1.01149518096274E+05
 cg2d: Sum(rhs),rhsMax =  -5.69677618169683E+01  1.30151509887360E+00
(PID.TID 0000.0001)  ploadbar=  1.01148826412879E+05
 cg2d: Sum(rhs),rhsMax =  -5.72316081883789E+01  1.29566076901675E+00
(PID.TID 0000.0001)  ploadbar=  1.01148134729483E+05
 cg2d: Sum(rhs),rhsMax =  -5.75652393613224E+01  1.28838088237279E+00
(PID.TID 0000.0001)  ploadbar=  1.01147443046088E+05
 cg2d: Sum(rhs),rhsMax =  -5.80229238030879E+01  1.27852731572086E+00
(PID.TID 0000.0001)  ploadbar=  1.01146751362692E+05
 cg2d: Sum(rhs),rhsMax =  -5.79772726727271E+01  1.27992436584888E+00
(PID.TID 0000.0001)  ploadbar=  1.01146059679296E+05
 cg2d: Sum(rhs),rhsMax =  -5.73597095734475E+01  1.29417781973638E+00
(PID.TID 0000.0001)  ploadbar=  1.01145367995901E+05
 cg2d: Sum(rhs),rhsMax =  -5.67523623917180E+01  1.30846769404118E+00
(PID.TID 0000.0001)  ploadbar=  1.01145278734782E+05
 cg2d: Sum(rhs),rhsMax =  -5.62436060758685E+01  1.32070539994348E+00
(PID.TID 0000.0001)  ploadbar=  1.01145189473664E+05
 cg2d: Sum(rhs),rhsMax =  -5.57568064065135E+01  1.33260020560270E+00
(PID.TID 0000.0001)  ploadbar=  1.01145100212545E+05
 cg2d: Sum(rhs),rhsMax =  -5.52625392148346E+01  1.34484798177615E+00
(PID.TID 0000.0001)  ploadbar=  1.01145010951427E+05
 cg2d: Sum(rhs),rhsMax =  -5.48726057839766E+01  1.35469685728022E+00
(PID.TID 0000.0001)  ploadbar=  1.01144921690309E+05
 cg2d: Sum(rhs),rhsMax =  -5.46264818315421E+01  1.36105935019116E+00
(PID.TID 0000.0001)  ploadbar=  1.01144832429190E+05
 cg2d: Sum(rhs),rhsMax =  -5.44839272975668E+01  1.36493914364969E+00
(PID.TID 0000.0001)  ploadbar=  1.01144666659087E+05
 cg2d: Sum(rhs),rhsMax =  -5.44041284470684E+01  1.36730379795503E+00
(PID.TID 0000.0001)  ploadbar=  1.01144500888984E+05
 cg2d: Sum(rhs),rhsMax =  -5.43387040272799E+01  1.36935524783883E+00
(PID.TID 0000.0001)  ploadbar=  1.01144335118881E+05
 cg2d: Sum(rhs),rhsMax =  -5.42880710494379E+01  1.37108330848668E+00
(PID.TID 0000.0001)  ploadbar=  1.01144169348778E+05
 cg2d: Sum(rhs),rhsMax =  -5.42428994515196E+01  1.37272245246159E+00
(PID.TID 0000.0001)  ploadbar=  1.01144003578675E+05
 cg2d: Sum(rhs),rhsMax =  -5.41920014738880E+01  1.37455434867694E+00
(PID.TID 0000.0001)  ploadbar=  1.01143837808572E+05
 cg2d: Sum(rhs),rhsMax =  -5.41340896896832E+01  1.37652806425464E+00
(PID.TID 0000.0001)  ploadbar=  1.01142980129413E+05
 cg2d: Sum(rhs),rhsMax =  -5.40842080199083E+01  1.37826092008079E+00
(PID.TID 0000.0001)  ploadbar=  1.01142122450255E+05
 cg2d: Sum(rhs),rhsMax =  -5.40350542613244E+01  1.37993634569125E+00
(PID.TID 0000.0001)  ploadbar=  1.01141264771097E+05
 cg2d: Sum(rhs),rhsMax =  -5.39971086234372E+01  1.38128726633667E+00
(PID.TID 0000.0001)  ploadbar=  1.01140407091938E+05
 cg2d: Sum(rhs),rhsMax =  -5.39835109149931E+01  1.38196996872458E+00
(PID.TID 0000.0001)  ploadbar=  1.01139549412780E+05
 cg2d: Sum(rhs),rhsMax =  -5.40017879292705E+01  1.38178103313080E+00
(PID.TID 0000.0001)  ploadbar=  1.01138691733621E+05
 cg2d: Sum(rhs),rhsMax =  -5.40208485505697E+01  1.38162337792120E+00
(PID.TID 0000.0001)  ploadbar=  1.01139273009373E+05
 cg2d: Sum(rhs),rhsMax =  -5.40643000194271E+01  1.38089133442257E+00
(PID.TID 0000.0001)  ploadbar=  1.01139854285125E+05
 cg2d: Sum(rhs),rhsMax =  -5.41156139858358E+01  1.38000579006167E+00
(PID.TID 0000.0001)  ploadbar=  1.01140435560877E+05
 cg2d: Sum(rhs),rhsMax =  -5.41707344890695E+01  1.37906947387761E+00
(PID.TID 0000.0001)  ploadbar=  1.01141016836629E+05
 cg2d: Sum(rhs),rhsMax =  -5.42284347832821E+01  1.37811478520856E+00
(PID.TID 0000.0001)  ploadbar=  1.01141598112380E+05
 cg2d: Sum(rhs),rhsMax =  -5.38562293949975E+01  1.38819978832220E+00
(PID.TID 0000.0001)  ploadbar=  1.01142179388132E+05
 cg2d: Sum(rhs),rhsMax =  -5.35295230272993E+01  1.39721226012062E+00
(PID.TID 0000.0001)  ploadbar=  1.01141632540320E+05
 cg2d: Sum(rhs),rhsMax =  -5.32411575077552E+01  1.40529708338819E+00
(PID.TID 0000.0001)  ploadbar=  1.01141085692508E+05
 cg2d: Sum(rhs),rhsMax =  -5.29804108306885E+01  1.41270665338509E+00
(PID.TID 0000.0001)  ploadbar=  1.01140538844696E+05
 cg2d: Sum(rhs),rhsMax =  -5.27534882471551E+01  1.41925465157190E+00
(PID.TID 0000.0001)  ploadbar=  1.01139991996884E+05
 cg2d: Sum(rhs),rhsMax =  -5.25666814680159E+01  1.42474717902176E+00
(PID.TID 0000.0001)  ploadbar=  1.01139445149072E+05
 cg2d: Sum(rhs),rhsMax =  -5.24286081011093E+01  1.42892687806154E+00
(PID.TID 0000.0001)  ploadbar=  1.01138898301260E+05
 cg2d: Sum(rhs),rhsMax =  -5.22895588416264E+01  1.43317622127302E+00
(PID.TID 0000.0001)  ploadbar=  1.01137338028573E+05
 cg2d: Sum(rhs),rhsMax =  -5.21960644628844E+01  1.43620994326595E+00
(PID.TID 0000.0001)  ploadbar=  1.01135777755886E+05
 cg2d: Sum(rhs),rhsMax =  -5.21533943153861E+01  1.43786736558451E+00
(PID.TID 0000.0001)  ploadbar=  1.01134217483198E+05
 cg2d: Sum(rhs),rhsMax =  -5.21423818921379E+01  1.43866964141555E+00
(PID.TID 0000.0001)  ploadbar=  1.01132657210511E+05
 cg2d: Sum(rhs),rhsMax =  -5.21719846982877E+01  1.43837119841772E+00
(PID.TID 0000.0001)  ploadbar=  1.01131096937824E+05
 cg2d: Sum(rhs),rhsMax =  -5.22477741904725E+01  1.43682112811056E+00
(PID.TID 0000.0001)  ploadbar=  1.01129536665136E+05
 cg2d: Sum(rhs),rhsMax =  -5.23898266006308E+01  1.43340894453575E+00
(PID.TID 0000.0001)  ploadbar=  1.01128523156498E+05
 cg2d: Sum(rhs),rhsMax =  -5.25449309372317E+01  1.42960461621199E+00
(PID.TID 0000.0001)  ploadbar=  1.01127509647859E+05
 cg2d: Sum(rhs),rhsMax =  -5.27316830342020E+01  1.42491355642674E+00
(PID.TID 0000.0001)  ploadbar=  1.01126496139220E+05
 cg2d: Sum(rhs),rhsMax =  -5.29300466323935E+01  1.41988945808608E+00
(PID.TID 0000.0001)  ploadbar=  1.01125482630582E+05
 cg2d: Sum(rhs),rhsMax =  -5.31435475071431E+01  1.41444021892887E+00
(PID.TID 0000.0001)  ploadbar=  1.01124469121943E+05
 cg2d: Sum(rhs),rhsMax =  -5.33669330960090E+01  1.40870715795180E+00
(PID.TID 0000.0001)  ploadbar=  1.01123455613305E+05
 cg2d: Sum(rhs),rhsMax =  -5.36585403127270E+01  1.40129086582405E+00
(PID.TID 0000.0001)  ploadbar=  1.01123031552206E+05
 cg2d: Sum(rhs),rhsMax =  -5.39608285695550E+01  1.39372987594810E+00
(PID.TID 0000.0001)  ploadbar=  1.01122607491107E+05
 cg2d: Sum(rhs),rhsMax =  -5.42634208736726E+01  1.38629680014156E+00
(PID.TID 0000.0001)  ploadbar=  1.01122183430009E+05
 cg2d: Sum(rhs),rhsMax =  -5.45443002786356E+01  1.37954740672670E+00
(PID.TID 0000.0001)  ploadbar=  1.01121759368910E+05
 cg2d: Sum(rhs),rhsMax =  -5.45973121048875E+01  1.37864937574135E+00
(PID.TID 0000.0001)  ploadbar=  1.01121335307812E+05
 cg2d: Sum(rhs),rhsMax =  -5.46748825304019E+01  1.37718423202661E+00
(PID.TID 0000.0001)  ploadbar=  1.01120911246713E+05
 cg2d: Sum(rhs),rhsMax =  -5.47616631357584E+01  1.37550532826556E+00
(PID.TID 0000.0001)  ploadbar=  1.01120006456304E+05
 cg2d: Sum(rhs),rhsMax =  -5.48412883435154E+01  1.37401978403231E+00
(PID.TID 0000.0001)  ploadbar=  1.01119101665894E+05
 cg2d: Sum(rhs),rhsMax =  -5.49203399017528E+01  1.37256039321664E+00
(PID.TID 0000.0001)  ploadbar=  1.01118196875485E+05
 cg2d: Sum(rhs),rhsMax =  -5.49950406378582E+01  1.37122060861540E+00
(PID.TID 0000.0001)  ploadbar=  1.01117292085075E+05
 cg2d: Sum(rhs),rhsMax =  -5.50604239041604E+01  1.37012351992949E+00
(PID.TID 0000.0001)  ploadbar=  1.01116387294666E+05
 cg2d: Sum(rhs),rhsMax =  -5.51168991360641E+01  1.36926197847649E+00
(PID.TID 0000.0001)  ploadbar=  1.01115482504256E+05
 cg2d: Sum(rhs),rhsMax =  -5.51081731639426E+01  1.37003359499148E+00
(PID.TID 0000.0001)  ploadbar=  1.01115349068450E+05
 cg2d: Sum(rhs),rhsMax =  -5.50946263880050E+01  1.37093363726104E+00
(PID.TID 0000.0001)  ploadbar=  1.01115215632643E+05
 cg2d: Sum(rhs),rhsMax =  -5.50449538849736E+01  1.37274123588413E+00
(PID.TID 0000.0001)  ploadbar=  1.01115082196837E+05
 cg2d: Sum(rhs),rhsMax =  -5.50023889711924E+01  1.37438072974570E+00
(PID.TID 0000.0001)  ploadbar=  1.01114948761030E+05
 cg2d: Sum(rhs),rhsMax =  -5.49620487089471E+01  1.37596977424787E+00
(PID.TID 0000.0001)  ploadbar=  1.01114815325224E+05
 cg2d: Sum(rhs),rhsMax =  -5.49236823949552E+01  1.37751630364153E+00
(PID.TID 0000.0001)  ploadbar=  1.01114681889417E+05
 cg2d: Sum(rhs),rhsMax =  -5.49234645175513E+01  1.37804156391538E+00
(PID.TID 0000.0001)  ploadbar=  1.01115414858209E+05
 cg2d: Sum(rhs),rhsMax =  -5.49201800339924E+01  1.37857248472902E+00
(PID.TID 0000.0001)  ploadbar=  1.01116147827001E+05
 cg2d: Sum(rhs),rhsMax =  -5.49113217344223E+01  1.37917097389401E+00
(PID.TID 0000.0001)  ploadbar=  1.01116880795793E+05
 cg2d: Sum(rhs),rhsMax =  -5.49020204592910E+01  1.37970865593065E+00
(PID.TID 0000.0001)  ploadbar=  1.01117613764585E+05
 cg2d: Sum(rhs),rhsMax =  -5.48873378858036E+01  1.38030636916291E+00
(PID.TID 0000.0001)  ploadbar=  1.01118346733377E+05
 cg2d: Sum(rhs),rhsMax =  -5.48671778877981E+01  1.38095874989618E+00
(PID.TID 0000.0001)  ploadbar=  1.01119079702169E+05
 cg2d: Sum(rhs),rhsMax =  -5.48664220838283E+01  1.38120816255647E+00
(PID.TID 0000.0001)  ploadbar=  1.01121456037074E+05
 cg2d: Sum(rhs),rhsMax =  -5.48732533212578E+01  1.38134913555219E+00
(PID.TID 0000.0001)  ploadbar=  1.01123832371979E+05
 cg2d: Sum(rhs),rhsMax =  -5.48888266707611E+01  1.38135220144902E+00
(PID.TID 0000.0001)  ploadbar=  1.01126208706885E+05
 cg2d: Sum(rhs),rhsMax =  -5.49131449906849E+01  1.38121589359730E+00
(PID.TID 0000.0001)  ploadbar=  1.01128585041790E+05
 cg2d: Sum(rhs),rhsMax =  -5.49428227421593E+01  1.38102556234604E+00
(PID.TID 0000.0001)  ploadbar=  1.01130961376695E+05
 cg2d: Sum(rhs),rhsMax =  -5.49752557539110E+01  1.38084588880800E+00
(PID.TID 0000.0001)  ploadbar=  1.01133337711600E+05
 cg2d: Sum(rhs),rhsMax =  -5.50205572666264E+01  1.38033773893450E+00
(PID.TID 0000.0001)  ploadbar=  1.01136020827045E+05
 cg2d: Sum(rhs),rhsMax =  -5.50604638358816E+01  1.37995311751694E+00
(PID.TID 0000.0001)  ploadbar=  1.01138703942489E+05
 cg2d: Sum(rhs),rhsMax =  -5.50921404774002E+01  1.37976162242830E+00
(PID.TID 0000.0001)  ploadbar=  1.01141387057933E+05
 cg2d: Sum(rhs),rhsMax =  -5.51240736498871E+01  1.37955190389552E+00
(PID.TID 0000.0001)  ploadbar=  1.01144070173378E+05
 cg2d: Sum(rhs),rhsMax =  -5.51644530849519E+01  1.37912634857175E+00
(PID.TID 0000.0001)  ploadbar=  1.01146753288822E+05
 cg2d: Sum(rhs),rhsMax =  -5.52165371790179E+01  1.37841593642504E+00
(PID.TID 0000.0001)  ploadbar=  1.01149436404266E+05
 cg2d: Sum(rhs),rhsMax =  -5.52738134271347E+01  1.37758520403072E+00
(PID.TID 0000.0001)  ploadbar=  1.01151700027060E+05
 cg2d: Sum(rhs),rhsMax =  -5.53378065738114E+01  1.37658483825388E+00
(PID.TID 0000.0001)  ploadbar=  1.01153963649853E+05
 cg2d: Sum(rhs),rhsMax =  -5.54070429094634E+01  1.37544994584532E+00
(PID.TID 0000.0001)  ploadbar=  1.01156227272646E+05
 cg2d: Sum(rhs),rhsMax =  -5.54848150816855E+01  1.37409987969391E+00
(PID.TID 0000.0001)  ploadbar=  1.01158490895440E+05
 cg2d: Sum(rhs),rhsMax =  -5.55696738707014E+01  1.37257137179680E+00
(PID.TID 0000.0001)  ploadbar=  1.01160754518233E+05
 cg2d: Sum(rhs),rhsMax =  -5.56586547624822E+01  1.37093972466470E+00
(PID.TID 0000.0001)  ploadbar=  1.01163018141026E+05
 cg2d: Sum(rhs),rhsMax =  -5.57724486673687E+01  1.36864411632124E+00
(PID.TID 0000.0001)  ploadbar=  1.01164271766714E+05
 cg2d: Sum(rhs),rhsMax =  -5.58939952457994E+01  1.36610575828170E+00
(PID.TID 0000.0001)  ploadbar=  1.01165525392401E+05
 cg2d: Sum(rhs),rhsMax =  -5.60027126340439E+01  1.36382926503503E+00
(PID.TID 0000.0001)  ploadbar=  1.01166779018089E+05
 cg2d: Sum(rhs),rhsMax =  -5.60926630310424E+01  1.36195552025350E+00
(PID.TID 0000.0001)  ploadbar=  1.01168032643776E+05
 cg2d: Sum(rhs),rhsMax =  -5.61638116065356E+01  1.36047594159172E+00
(PID.TID 0000.0001)  ploadbar=  1.01169286269464E+05
 cg2d: Sum(rhs),rhsMax =  -5.62134062606162E+01  1.35944827559351E+00
(PID.TID 0000.0001)  ploadbar=  1.01170539895151E+05
 cg2d: Sum(rhs),rhsMax =  -5.63512994708859E+01  1.35634406781781E+00
(PID.TID 0000.0001)  ploadbar=  1.01170886560771E+05
 cg2d: Sum(rhs),rhsMax =  -5.65171091696217E+01  1.35263582537040E+00
(PID.TID 0000.0001)  ploadbar=  1.01171233226391E+05
 cg2d: Sum(rhs),rhsMax =  -5.66987919814873E+01  1.34862015830292E+00
(PID.TID 0000.0001)  ploadbar=  1.01171579892010E+05
 cg2d: Sum(rhs),rhsMax =  -5.68855940391950E+01  1.34455563708862E+00
(PID.TID 0000.0001)  ploadbar=  1.01171926557630E+05
 cg2d: Sum(rhs),rhsMax =  -5.70756032743345E+01  1.34048726298877E+00
(PID.TID 0000.0001)  ploadbar=  1.01172273223250E+05
 cg2d: Sum(rhs),rhsMax =  -5.72835740467550E+01  1.33606901989364E+00
(PID.TID 0000.0001)  ploadbar=  1.01172619888869E+05
 cg2d: Sum(rhs),rhsMax =  -5.75352912385541E+01  1.33064361101686E+00
(PID.TID 0000.0001)  ploadbar=  1.01172951574043E+05
 cg2d: Sum(rhs),rhsMax =  -5.78667601457285E+01  1.32340843131561E+00
(PID.TID 0000.0001)  ploadbar=  1.01173283259217E+05
 cg2d: Sum(rhs),rhsMax =  -5.82508261565835E+01  1.31503703261175E+00
(PID.TID 0000.0001)  ploadbar=  1.01173614944391E+05
 cg2d: Sum(rhs),rhsMax =  -5.86837266964238E+01  1.30565954494635E+00
(PID.TID 0000.0001)  ploadbar=  1.01173946629564E+05
 cg2d: Sum(rhs),rhsMax =  -5.91861799487349E+01  1.29486932205092E+00
(PID.TID 0000.0001)  ploadbar=  1.01174278314738E+05
 cg2d: Sum(rhs),rhsMax =  -5.97898094781942E+01  1.28206275825571E+00
(PID.TID 0000.0001)  ploadbar=  1.01174609999912E+05
 cg2d: Sum(rhs),rhsMax =  -6.04232105942773E+01  1.26894308582246E+00
(PID.TID 0000.0001)  ploadbar=  1.01173873106345E+05
 cg2d: Sum(rhs),rhsMax =  -6.20282197671104E+01  1.23646710067958E+00
(PID.TID 0000.0001)  ploadbar=  1.01173136212778E+05
 cg2d: Sum(rhs),rhsMax =  -6.38728880819549E+01  1.20115060853088E+00
(PID.TID 0000.0001)  ploadbar=  1.01172399319211E+05
 cg2d: Sum(rhs),rhsMax =  -6.40795617781990E+01  1.19771524797688E+00
(PID.TID 0000.0001)  ploadbar=  1.01171662425644E+05
 cg2d: Sum(rhs),rhsMax =  -6.39533318776241E+01  1.20056453955096E+00
(PID.TID 0000.0001)  ploadbar=  1.01170925532077E+05
 cg2d: Sum(rhs),rhsMax =  -6.38371263169979E+01  1.20328295594527E+00
(PID.TID 0000.0001)  ploadbar=  1.01170188638510E+05
 cg2d: Sum(rhs),rhsMax =  -6.37201909669648E+01  1.20595803402440E+00
(PID.TID 0000.0001)  ploadbar=  1.01169965996292E+05
 cg2d: Sum(rhs),rhsMax =  -6.36481270633961E+01  1.20771671827027E+00
(PID.TID 0000.0001)  ploadbar=  1.01169743354074E+05
 cg2d: Sum(rhs),rhsMax =  -6.36055852865442E+01  1.20884334295120E+00
(PID.TID 0000.0001)  ploadbar=  1.01169520711856E+05
 cg2d: Sum(rhs),rhsMax =  -6.35902224651339E+01  1.20938254373211E+00
(PID.TID 0000.0001)  ploadbar=  1.01169298069639E+05
 cg2d: Sum(rhs),rhsMax =  -6.35856301914224E+01  1.20963917753119E+00
(PID.TID 0000.0001)  ploadbar=  1.01169075427421E+05
 cg2d: Sum(rhs),rhsMax =  -6.35629730980598E+01  1.21015725707476E+00
(PID.TID 0000.0001)  ploadbar=  1.01168852785203E+05
 cg2d: Sum(rhs),rhsMax =  -6.34808777388502E+01  1.21184575389859E+00
(PID.TID 0000.0001)  ploadbar=  1.01169387030025E+05
 cg2d: Sum(rhs),rhsMax =  -6.32909839456520E+01  1.21564104086959E+00
(PID.TID 0000.0001)  ploadbar=  1.01169921274847E+05
 cg2d: Sum(rhs),rhsMax =  -6.29939296154509E+01  1.22156912167988E+00
(PID.TID 0000.0001)  ploadbar=  1.01170455519669E+05
 cg2d: Sum(rhs),rhsMax =  -6.26276981522935E+01  1.22894419368547E+00
(PID.TID 0000.0001)  ploadbar=  1.01170989764491E+05
 cg2d: Sum(rhs),rhsMax =  -6.22719905006020E+01  1.23623077264476E+00
(PID.TID 0000.0001)  ploadbar=  1.01171524009313E+05
 cg2d: Sum(rhs),rhsMax =  -6.19822459050431E+01  1.24231309822172E+00
(PID.TID 0000.0001)  ploadbar=  1.01172058254135E+05
 cg2d: Sum(rhs),rhsMax =  -6.18162252589551E+01  1.24593789532165E+00
(PID.TID 0000.0001)  ploadbar=  1.01171796891589E+05
 cg2d: Sum(rhs),rhsMax =  -6.17183274231134E+01  1.24818539946327E+00
(PID.TID 0000.0001)  ploadbar=  1.01171535529044E+05
 cg2d: Sum(rhs),rhsMax =  -6.17035189376071E+01  1.24874132257860E+00
(PID.TID 0000.0001)  ploadbar=  1.01171274166498E+05
 cg2d: Sum(rhs),rhsMax =  -6.17767167816907E+01  1.24750474936124E+00
(PID.TID 0000.0001)  ploadbar=  1.01171012803952E+05
 cg2d: Sum(rhs),rhsMax =  -6.19368475815432E+01  1.24451108237439E+00
(PID.TID 0000.0001)  ploadbar=  1.01170751441406E+05
 cg2d: Sum(rhs),rhsMax =  -6.21853238094534E+01  1.23976691105492E+00
(PID.TID 0000.0001)  ploadbar=  1.01170490078860E+05
 cg2d: Sum(rhs),rhsMax =  -6.25491295306081E+01  1.23282610756101E+00
(PID.TID 0000.0001)  ploadbar=  1.01170199969620E+05
 cg2d: Sum(rhs),rhsMax =  -6.29635483354478E+01  1.22501530297725E+00
(PID.TID 0000.0001)  ploadbar=  1.01169909860381E+05
 cg2d: Sum(rhs),rhsMax =  -6.34320299177833E+01  1.21630448853557E+00
(PID.TID 0000.0001)  ploadbar=  1.01169619751141E+05
 cg2d: Sum(rhs),rhsMax =  -6.39389172516605E+01  1.20703445195485E+00
(PID.TID 0000.0001)  ploadbar=  1.01169329641902E+05
 cg2d: Sum(rhs),rhsMax =  -6.44829335061100E+01  1.19726022666970E+00
(PID.TID 0000.0001)  ploadbar=  1.01169039532662E+05
 cg2d: Sum(rhs),rhsMax =  -6.50518505847895E+01  1.18723581425827E+00
(PID.TID 0000.0001)  ploadbar=  1.01168749423423E+05
 cg2d: Sum(rhs),rhsMax =  -6.57255923738288E+01  1.17547032612070E+00
(PID.TID 0000.0001)  ploadbar=  1.01168403221914E+05
 cg2d: Sum(rhs),rhsMax =  -6.63879370980419E+01  1.16410264767261E+00
(PID.TID 0000.0001)  ploadbar=  1.01168057020405E+05
 cg2d: Sum(rhs),rhsMax =  -6.70128326950638E+01  1.15356551248358E+00
(PID.TID 0000.0001)  ploadbar=  1.01167710818896E+05
 cg2d: Sum(rhs),rhsMax =  -6.75650230667134E+01  1.14441999989733E+00
(PID.TID 0000.0001)  ploadbar=  1.01167364617387E+05
 cg2d: Sum(rhs),rhsMax =  -6.80046473530297E+01  1.13726959784241E+00
(PID.TID 0000.0001)  ploadbar=  1.01167018415879E+05
 cg2d: Sum(rhs),rhsMax =  -6.82930140553672E+01  1.13267853368789E+00
(PID.TID 0000.0001)  ploadbar=  1.01166672214370E+05
 cg2d: Sum(rhs),rhsMax =  -6.83807450012999E+01  1.13148786802504E+00
(PID.TID 0000.0001)  ploadbar=  1.01166412029815E+05
 cg2d: Sum(rhs),rhsMax =  -6.83905086317924E+01  1.13163812813697E+00
(PID.TID 0000.0001)  ploadbar=  1.01166151845261E+05
 cg2d: Sum(rhs),rhsMax =  -6.84355968459372E+01  1.13125515459593E+00
(PID.TID 0000.0001)  ploadbar=  1.01165891660706E+05
 cg2d: Sum(rhs),rhsMax =  -6.87252762268495E+01  1.12689784681700E+00
(PID.TID 0000.0001)  ploadbar=  1.01165631476152E+05
 cg2d: Sum(rhs),rhsMax =  -6.93015753539142E+01  1.11798376799722E+00
(PID.TID 0000.0001)  ploadbar=  1.01165371291597E+05
 cg2d: Sum(rhs),rhsMax =  -6.99036835146619E+01  1.10885594226646E+00
(PID.TID 0000.0001)  ploadbar=  1.01165111107043E+05
 cg2d: Sum(rhs),rhsMax =  -7.02025735426780E+01  1.10463980707927E+00
(PID.TID 0000.0001)  ploadbar=  1.01165252991953E+05
 cg2d: Sum(rhs),rhsMax =  -7.00344231739224E+01  1.10780047128455E+00
(PID.TID 0000.0001)  ploadbar=  1.01165394876864E+05
 cg2d: Sum(rhs),rhsMax =  -6.92188788796078E+01  1.12137087476660E+00
(PID.TID 0000.0001)  ploadbar=  1.01165536761774E+05
 cg2d: Sum(rhs),rhsMax =  -6.78952134055299E+01  1.14376797245507E+00
(PID.TID 0000.0001)  ploadbar=  1.01165678646685E+05
 cg2d: Sum(rhs),rhsMax =  -6.62663831772320E+01  1.17244038693459E+00
(PID.TID 0000.0001)  ploadbar=  1.01165820531595E+05
 cg2d: Sum(rhs),rhsMax =  -6.45041491813544E+01  1.20505703603463E+00
(PID.TID 0000.0001)  ploadbar=  1.01165962416505E+05
 cg2d: Sum(rhs),rhsMax =  -6.27030814861654E+01  1.24029076384762E+00
(PID.TID 0000.0001)  ploadbar=  1.01165139519651E+05
 cg2d: Sum(rhs),rhsMax =  -6.10963484646309E+01  1.27355644210460E+00
(PID.TID 0000.0001)  ploadbar=  1.01164316622796E+05
 cg2d: Sum(rhs),rhsMax =  -5.97244274956063E+01  1.30348591372801E+00
(PID.TID 0000.0001)  ploadbar=  1.01163493725942E+05
 cg2d: Sum(rhs),rhsMax =  -5.86301756918679E+01  1.32851414924036E+00
(PID.TID 0000.0001)  ploadbar=  1.01162670829087E+05
 cg2d: Sum(rhs),rhsMax =  -5.78843338253120E+01  1.34635426196540E+00
(PID.TID 0000.0001)  ploadbar=  1.01161847932233E+05
 cg2d: Sum(rhs),rhsMax =  -5.75293832310113E+01  1.35540436200212E+00
(PID.TID 0000.0001)  ploadbar=  1.01161025035379E+05
 cg2d: Sum(rhs),rhsMax =  -5.72858628993940E+01  1.36181756624477E+00
(PID.TID 0000.0001)  ploadbar=  1.01159815421633E+05
 cg2d: Sum(rhs),rhsMax =  -5.73797777909816E+01  1.36014255440500E+00
(PID.TID 0000.0001)  ploadbar=  1.01158605807888E+05
 cg2d: Sum(rhs),rhsMax =  -5.78372258452979E+01  1.34984145442984E+00
(PID.TID 0000.0001)  ploadbar=  1.01157396194143E+05
 cg2d: Sum(rhs),rhsMax =  -5.85744804834911E+01  1.33321464463567E+00
(PID.TID 0000.0001)  ploadbar=  1.01156186580398E+05
 cg2d: Sum(rhs),rhsMax =  -5.95688481881380E+01  1.31123335620703E+00
(PID.TID 0000.0001)  ploadbar=  1.01154976966653E+05
 cg2d: Sum(rhs),rhsMax =  -6.07961724977419E+01  1.28494547685918E+00
(PID.TID 0000.0001)  ploadbar=  1.01153767352907E+05
 cg2d: Sum(rhs),rhsMax =  -6.20696241054809E+01  1.25884394564391E+00
(PID.TID 0000.0001)  ploadbar=  1.01152669937715E+05
 cg2d: Sum(rhs),rhsMax =  -6.30108952705825E+01  1.24037399200862E+00
(PID.TID 0000.0001)  ploadbar=  1.01151572522522E+05
 cg2d: Sum(rhs),rhsMax =  -6.35905154121495E+01  1.22947676352594E+00
(PID.TID 0000.0001)  ploadbar=  1.01150475107329E+05
 cg2d: Sum(rhs),rhsMax =  -6.38977693716584E+01  1.22405056531851E+00
(PID.TID 0000.0001)  ploadbar=  1.01149377692136E+05
 cg2d: Sum(rhs),rhsMax =  -6.40860790003418E+01  1.22101939161910E+00
(PID.TID 0000.0001)  ploadbar=  1.01148280276944E+05
 cg2d: Sum(rhs),rhsMax =  -6.42736102807762E+01  1.21810077731752E+00
(PID.TID 0000.0001)  ploadbar=  1.01147182861751E+05
 cg2d: Sum(rhs),rhsMax =  -6.46853860172803E+01  1.21097849621382E+00
(PID.TID 0000.0001)  ploadbar=  1.01146502013109E+05
 cg2d: Sum(rhs),rhsMax =  -6.51626135291829E+01  1.20272865404517E+00
(PID.TID 0000.0001)  ploadbar=  1.01145821164466E+05
 cg2d: Sum(rhs),rhsMax =  -6.56536258462308E+01  1.19434068390380E+00
(PID.TID 0000.0001)  ploadbar=  1.01145140315824E+05
 cg2d: Sum(rhs),rhsMax =  -6.57706936947017E+01  1.19281593485641E+00
(PID.TID 0000.0001)  ploadbar=  1.01144459467182E+05
 cg2d: Sum(rhs),rhsMax =  -6.56154651360867E+01  1.19624353595007E+00
(PID.TID 0000.0001)  ploadbar=  1.01143778618539E+05
 cg2d: Sum(rhs),rhsMax =  -6.54819748288694E+01  1.19929678875451E+00
(PID.TID 0000.0001)  ploadbar=  1.01143097769897E+05
 cg2d: Sum(rhs),rhsMax =  -6.54118885845506E+01  1.20119724477075E+00
(PID.TID 0000.0001)  ploadbar=  1.01142112627958E+05
 cg2d: Sum(rhs),rhsMax =  -6.54002769949509E+01  1.20201604667408E+00
(PID.TID 0000.0001)  ploadbar=  1.01141127486018E+05
 cg2d: Sum(rhs),rhsMax =  -6.54515392293805E+01  1.20166913819058E+00
(PID.TID 0000.0001)  ploadbar=  1.01140142344079E+05
 cg2d: Sum(rhs),rhsMax =  -6.55580958905370E+01  1.20030039334088E+00
(PID.TID 0000.0001)  ploadbar=  1.01139157202140E+05
 cg2d: Sum(rhs),rhsMax =  -6.57164078558920E+01  1.19798447953818E+00
(PID.TID 0000.0001)  ploadbar=  1.01138172060200E+05
 cg2d: Sum(rhs),rhsMax =  -6.59198715346561E+01  1.19485437478876E+00
(PID.TID 0000.0001)  ploadbar=  1.01137186918261E+05
 cg2d: Sum(rhs),rhsMax =  -6.61246479801601E+01  1.19164719199941E+00
(PID.TID 0000.0001)  ploadbar=  1.01135858037308E+05
 cg2d: Sum(rhs),rhsMax =  -6.60926103188330E+01  1.19264157597790E+00
(PID.TID 0000.0001)  ploadbar=  1.01134529156354E+05
 cg2d: Sum(rhs),rhsMax =  -6.60380713788630E+01  1.19396831617620E+00
(PID.TID 0000.0001)  ploadbar=  1.01133200275401E+05
 cg2d: Sum(rhs),rhsMax =  -6.59689662679883E+01  1.19548985190414E+00
(PID.TID 0000.0001)  ploadbar=  1.01131871394447E+05
 cg2d: Sum(rhs),rhsMax =  -6.58745501509137E+01  1.19740655369052E+00
(PID.TID 0000.0001)  ploadbar=  1.01130542513494E+05
 cg2d: Sum(rhs),rhsMax =  -6.57592392146209E+01  1.19963870074291E+00
(PID.TID 0000.0001)  ploadbar=  1.01129213632540E+05
 cg2d: Sum(rhs),rhsMax =  -6.55787911565518E+01  1.20312040989327E+00
(PID.TID 0000.0001)  ploadbar=  1.01129978402546E+05
 cg2d: Sum(rhs),rhsMax =  -6.53862454848814E+01  1.20689290940468E+00
(PID.TID 0000.0001)  ploadbar=  1.01130743172552E+05
 cg2d: Sum(rhs),rhsMax =  -6.51877148202984E+01  1.21084802683368E+00
(PID.TID 0000.0001)  ploadbar=  1.01131507942558E+05
 cg2d: Sum(rhs),rhsMax =  -6.49947281101227E+01  1.21477379427687E+00
(PID.TID 0000.0001)  ploadbar=  1.01132272712565E+05
 cg2d: Sum(rhs),rhsMax =  -6.48157034120317E+01  1.21851065745321E+00
(PID.TID 0000.0001)  ploadbar=  1.01133037482571E+05
 cg2d: Sum(rhs),rhsMax =  -6.45940497374318E+01  1.22312398015055E+00
(PID.TID 0000.0001)  ploadbar=  1.01133802252577E+05
 cg2d: Sum(rhs),rhsMax =  -6.44037416880169E+01  1.22715838192814E+00
(PID.TID 0000.0001)  ploadbar=  1.01132484449642E+05
 cg2d: Sum(rhs),rhsMax =  -6.42611705236168E+01  1.23028851576313E+00
(PID.TID 0000.0001)  ploadbar=  1.01131166646707E+05
 cg2d: Sum(rhs),rhsMax =  -6.41583716354668E+01  1.23266025867070E+00
(PID.TID 0000.0001)  ploadbar=  1.01129848843772E+05
 cg2d: Sum(rhs),rhsMax =  -6.40881835105337E+01  1.23440603964390E+00
(PID.TID 0000.0001)  ploadbar=  1.01128531040837E+05
 cg2d: Sum(rhs),rhsMax =  -6.40079221561570E+01  1.23635125927230E+00
(PID.TID 0000.0001)  ploadbar=  1.01127213237903E+05
 cg2d: Sum(rhs),rhsMax =  -6.39613125588969E+01  1.23765680215196E+00
(PID.TID 0000.0001)  ploadbar=  1.01125895434968E+05
 cg2d: Sum(rhs),rhsMax =  -6.38348259001826E+01  1.24051435417793E+00
(PID.TID 0000.0001)  ploadbar=  1.01124829209726E+05
 cg2d: Sum(rhs),rhsMax =  -6.37100376413589E+01  1.24334100958511E+00
(PID.TID 0000.0001)  ploadbar=  1.01123762984485E+05
 cg2d: Sum(rhs),rhsMax =  -6.35894982871052E+01  1.24608405039561E+00
(PID.TID 0000.0001)  ploadbar=  1.01122696759244E+05
 cg2d: Sum(rhs),rhsMax =  -6.34745990530795E+01  1.24871247007393E+00
(PID.TID 0000.0001)  ploadbar=  1.01121630534003E+05
 cg2d: Sum(rhs),rhsMax =  -6.33673417741520E+01  1.25118448601107E+00
(PID.TID 0000.0001)  ploadbar=  1.01120564308762E+05
 cg2d: Sum(rhs),rhsMax =  -6.32674016333329E+01  1.25350358187256E+00
(PID.TID 0000.0001)  ploadbar=  1.01119498083521E+05
 cg2d: Sum(rhs),rhsMax =  -6.31753112956522E+01  1.25563405868088E+00
(PID.TID 0000.0001)  ploadbar=  1.01118239131688E+05
 cg2d: Sum(rhs),rhsMax =  -6.30691001558135E+01  1.25801133983391E+00
(PID.TID 0000.0001)  ploadbar=  1.01116980179855E+05
 cg2d: Sum(rhs),rhsMax =  -6.29489288814742E+01  1.26063793525989E+00
(PID.TID 0000.0001)  ploadbar=  1.01115721228022E+05
 cg2d: Sum(rhs),rhsMax =  -6.28269947971182E+01  1.26327430876143E+00
(PID.TID 0000.0001)  ploadbar=  1.01114462276189E+05
 cg2d: Sum(rhs),rhsMax =  -6.26994006608895E+01  1.26600117542876E+00
(PID.TID 0000.0001)  ploadbar=  1.01113203324357E+05
 cg2d: Sum(rhs),rhsMax =  -6.25629007564028E+01  1.26888046761942E+00
(PID.TID 0000.0001)  ploadbar=  1.01111944372524E+05
 cg2d: Sum(rhs),rhsMax =  -6.24033230321382E+01  1.27229658145214E+00
(PID.TID 0000.0001)  ploadbar=  1.01111167582509E+05
 cg2d: Sum(rhs),rhsMax =  -6.22446178736750E+01  1.27576328677803E+00
(PID.TID 0000.0001)  ploadbar=  1.01110390792494E+05
 cg2d: Sum(rhs),rhsMax =  -6.20937756165619E+01  1.27913494492811E+00
(PID.TID 0000.0001)  ploadbar=  1.01109614002479E+05
 cg2d: Sum(rhs),rhsMax =  -6.19535962448230E+01  1.28235196288707E+00
(PID.TID 0000.0001)  ploadbar=  1.01108837212465E+05
 cg2d: Sum(rhs),rhsMax =  -6.18252827444840E+01  1.28538601892888E+00
(PID.TID 0000.0001)  ploadbar=  1.01108060422450E+05
 cg2d: Sum(rhs),rhsMax =  -6.17081401073872E+01  1.28824919460595E+00
(PID.TID 0000.0001)  ploadbar=  1.01107283632435E+05
 cg2d: Sum(rhs),rhsMax =  -6.16388117080129E+01  1.29010515557829E+00
(PID.TID 0000.0001)  ploadbar=  1.01106215628180E+05
 cg2d: Sum(rhs),rhsMax =  -6.15758610882443E+01  1.29181501170942E+00
(PID.TID 0000.0001)  ploadbar=  1.01105147623925E+05
 cg2d: Sum(rhs),rhsMax =  -6.15171644197981E+01  1.29342426355252E+00
(PID.TID 0000.0001)  ploadbar=  1.01104079619670E+05
 cg2d: Sum(rhs),rhsMax =  -6.14631313440239E+01  1.29492773798633E+00
(PID.TID 0000.0001)  ploadbar=  1.01103011615415E+05
 cg2d: Sum(rhs),rhsMax =  -6.14131287351848E+01  1.29634330957109E+00
(PID.TID 0000.0001)  ploadbar=  1.01101943611160E+05
 cg2d: Sum(rhs),rhsMax =  -6.13667507821956E+01  1.29767931869864E+00
(PID.TID 0000.0001)  ploadbar=  1.01100875606905E+05
 cg2d: Sum(rhs),rhsMax =  -6.13058195441771E+01  1.29934836863723E+00
(PID.TID 0000.0001)  ploadbar=  1.01101916688943E+05
 cg2d: Sum(rhs),rhsMax =  -6.12391858811325E+01  1.30115811523848E+00
(PID.TID 0000.0001)  ploadbar=  1.01102957770981E+05
 cg2d: Sum(rhs),rhsMax =  -6.11626052770507E+01  1.30320299753448E+00
(PID.TID 0000.0001)  ploadbar=  1.01103998853019E+05
 cg2d: Sum(rhs),rhsMax =  -6.10685162643732E+01  1.30564743974547E+00
(PID.TID 0000.0001)  ploadbar=  1.01105039935057E+05
 cg2d: Sum(rhs),rhsMax =  -6.09503684836204E+01  1.30863591775920E+00
(PID.TID 0000.0001)  ploadbar=  1.01106081017095E+05
 cg2d: Sum(rhs),rhsMax =  -6.08021374001953E+01  1.31230494017111E+00
(PID.TID 0000.0001)  ploadbar=  1.01107122099133E+05
 cg2d: Sum(rhs),rhsMax =  -6.06261912674039E+01  1.31652871982824E+00
(PID.TID 0000.0001)  ploadbar=  1.01107155440714E+05
 cg2d: Sum(rhs),rhsMax =  -6.04260857762982E+01  1.32123553559328E+00
(PID.TID 0000.0001)  ploadbar=  1.01107188782296E+05
 cg2d: Sum(rhs),rhsMax =  -6.02050687448271E+01  1.32636536433213E+00
(PID.TID 0000.0001)  ploadbar=  1.01107222123877E+05
 cg2d: Sum(rhs),rhsMax =  -5.99770813073229E+01  1.33162184630742E+00
(PID.TID 0000.0001)  ploadbar=  1.01107255465458E+05
 cg2d: Sum(rhs),rhsMax =  -5.97605157216692E+01  1.33660123853622E+00
(PID.TID 0000.0001)  ploadbar=  1.01107288807040E+05
 cg2d: Sum(rhs),rhsMax =  -5.95677931823681E+01  1.34101436855645E+00
(PID.TID 0000.0001)  ploadbar=  1.01107322148621E+05
 cg2d: Sum(rhs),rhsMax =  -5.93445822006684E+01  1.34620009477650E+00
(PID.TID 0000.0001)  ploadbar=  1.01106796604661E+05
 cg2d: Sum(rhs),rhsMax =  -5.91319830815561E+01  1.35123325750892E+00
(PID.TID 0000.0001)  ploadbar=  1.01106271060700E+05
 cg2d: Sum(rhs),rhsMax =  -5.89325579641664E+01  1.35604913304119E+00
(PID.TID 0000.0001)  ploadbar=  1.01105745516740E+05
 cg2d: Sum(rhs),rhsMax =  -5.87489696814489E+01  1.36058212652975E+00
(PID.TID 0000.0001)  ploadbar=  1.01105219972780E+05
 cg2d: Sum(rhs),rhsMax =  -5.90911761395975E+01  1.35305098289152E+00
(PID.TID 0000.0001)  ploadbar=  1.01104694428819E+05
 cg2d: Sum(rhs),rhsMax =  -5.96448559125907E+01  1.34089254934974E+00
(PID.TID 0000.0001)  ploadbar=  1.01104168884859E+05
 cg2d: Sum(rhs),rhsMax =  -6.02796632743664E+01  1.32716221125203E+00
(PID.TID 0000.0001)  ploadbar=  1.01104900793006E+05
 cg2d: Sum(rhs),rhsMax =  -6.09756069102489E+01  1.31239623696117E+00
(PID.TID 0000.0001)  ploadbar=  1.01105632701153E+05
 cg2d: Sum(rhs),rhsMax =  -6.17354277136864E+01  1.29661980636985E+00
(PID.TID 0000.0001)  ploadbar=  1.01106364609300E+05
 cg2d: Sum(rhs),rhsMax =  -6.25621642881528E+01  1.27986125830683E+00
(PID.TID 0000.0001)  ploadbar=  1.01107096517447E+05
 cg2d: Sum(rhs),rhsMax =  -6.34530936249389E+01  1.26227179335983E+00
(PID.TID 0000.0001)  ploadbar=  1.01107828425594E+05
 cg2d: Sum(rhs),rhsMax =  -6.44138929772285E+01  1.24383079321224E+00
(PID.TID 0000.0001)  ploadbar=  1.01108560333741E+05
 cg2d: Sum(rhs),rhsMax =  -6.54165780073136E+01  1.22517523108296E+00
(PID.TID 0000.0001)  ploadbar=  1.01109126972413E+05
 cg2d: Sum(rhs),rhsMax =  -6.64190555975564E+01  1.20711010096837E+00
(PID.TID 0000.0001)  ploadbar=  1.01109693611086E+05
 cg2d: Sum(rhs),rhsMax =  -6.74069173844275E+01  1.18986579079591E+00
(PID.TID 0000.0001)  ploadbar=  1.01110260249758E+05
 cg2d: Sum(rhs),rhsMax =  -6.83744815491128E+01  1.17349605002392E+00
(PID.TID 0000.0001)  ploadbar=  1.01110826888430E+05
 cg2d: Sum(rhs),rhsMax =  -6.93204719320548E+01  1.15797239381082E+00
(PID.TID 0000.0001)  ploadbar=  1.01111393527102E+05
 cg2d: Sum(rhs),rhsMax =  -7.02471850495638E+01  1.14321120885163E+00
(PID.TID 0000.0001)  ploadbar=  1.01111960165775E+05
 cg2d: Sum(rhs),rhsMax =  -7.05104963800485E+01  1.13941038779119E+00
(PID.TID 0000.0001)  ploadbar=  1.01113234911292E+05
 cg2d: Sum(rhs),rhsMax =  -7.01753425972897E+01  1.14527266879778E+00
(PID.TID 0000.0001)  ploadbar=  1.01114509656809E+05
 cg2d: Sum(rhs),rhsMax =  -6.98708335185806E+01  1.15063833865639E+00
(PID.TID 0000.0001)  ploadbar=  1.01115784402326E+05
 cg2d: Sum(rhs),rhsMax =  -6.95800035283756E+01  1.15577722700675E+00
(PID.TID 0000.0001)  ploadbar=  1.01117059147843E+05
 cg2d: Sum(rhs),rhsMax =  -6.92923093536028E+01  1.16085975988718E+00
(PID.TID 0000.0001)  ploadbar=  1.01118333893360E+05
 cg2d: Sum(rhs),rhsMax =  -6.89995762068364E+01  1.16601899065978E+00
(PID.TID 0000.0001)  ploadbar=  1.01119608638877E+05
 cg2d: Sum(rhs),rhsMax =  -6.87324082078934E+01  1.17081843640562E+00
(PID.TID 0000.0001)  ploadbar=  1.01120220236145E+05
 cg2d: Sum(rhs),rhsMax =  -6.84748268999175E+01  1.17552028390533E+00
(PID.TID 0000.0001)  ploadbar=  1.01120831833413E+05
 cg2d: Sum(rhs),rhsMax =  -6.82178001426750E+01  1.18027817228684E+00
(PID.TID 0000.0001)  ploadbar=  1.01121443430680E+05
 cg2d: Sum(rhs),rhsMax =  -6.79638006759637E+01  1.18505098397307E+00
(PID.TID 0000.0001)  ploadbar=  1.01122055027948E+05
 cg2d: Sum(rhs),rhsMax =  -6.77139803358579E+01  1.18981838961324E+00
(PID.TID 0000.0001)  ploadbar=  1.01122666625215E+05
 cg2d: Sum(rhs),rhsMax =  -6.74673714261967E+01  1.19459943064387E+00
(PID.TID 0000.0001)  ploadbar=  1.01123278222483E+05
 cg2d: Sum(rhs),rhsMax =  -6.72035215563197E+01  1.19970902891069E+00
(PID.TID 0000.0001)  ploadbar=  1.01124307438285E+05
 cg2d: Sum(rhs),rhsMax =  -6.69512847200003E+01  1.20463596626657E+00
(PID.TID 0000.0001)  ploadbar=  1.01125336654088E+05
 cg2d: Sum(rhs),rhsMax =  -6.67397019054341E+01  1.20885298937362E+00
(PID.TID 0000.0001)  ploadbar=  1.01126365869891E+05
 cg2d: Sum(rhs),rhsMax =  -6.65718698784413E+01  1.21228730281955E+00
(PID.TID 0000.0001)  ploadbar=  1.01127395085693E+05
 cg2d: Sum(rhs),rhsMax =  -6.64500183256993E+01  1.21489106381128E+00
(PID.TID 0000.0001)  ploadbar=  1.01128424301496E+05
 cg2d: Sum(rhs),rhsMax =  -6.63730717227497E+01  1.21667069211449E+00
(PID.TID 0000.0001)  ploadbar=  1.01129453517298E+05
 cg2d: Sum(rhs),rhsMax =  -6.64630411960364E+01  1.21541472838881E+00
(PID.TID 0000.0001)  ploadbar=  1.01129701330261E+05
 cg2d: Sum(rhs),rhsMax =  -6.64966352224380E+01  1.21520858127964E+00
(PID.TID 0000.0001)  ploadbar=  1.01129949143223E+05
 cg2d: Sum(rhs),rhsMax =  -6.64886668284619E+01  1.21578007537202E+00
(PID.TID 0000.0001)  ploadbar=  1.01130196956185E+05
 cg2d: Sum(rhs),rhsMax =  -6.64533157825585E+01  1.21687129578745E+00
(PID.TID 0000.0001)  ploadbar=  1.01130444769147E+05
 cg2d: Sum(rhs),rhsMax =  -6.64058246574922E+01  1.21820977402228E+00
(PID.TID 0000.0001)  ploadbar=  1.01130692582110E+05
 cg2d: Sum(rhs),rhsMax =  -6.63532105407311E+01  1.21966978788970E+00
(PID.TID 0000.0001)  ploadbar=  1.01130940395072E+05
 cg2d: Sum(rhs),rhsMax =  -6.64017201072297E+01  1.21919897156538E+00
(PID.TID 0000.0001)  ploadbar=  1.01131295781730E+05
 cg2d: Sum(rhs),rhsMax =  -6.64922976753146E+01  1.21787975308821E+00
(PID.TID 0000.0001)  ploadbar=  1.01131651168389E+05
 cg2d: Sum(rhs),rhsMax =  -6.66258475615527E+01  1.21570485096601E+00
(PID.TID 0000.0001)  ploadbar=  1.01132006555047E+05
 cg2d: Sum(rhs),rhsMax =  -6.68305899157412E+01  1.21217379929878E+00
(PID.TID 0000.0001)  ploadbar=  1.01132361941706E+05
 cg2d: Sum(rhs),rhsMax =  -6.70843732911788E+01  1.20770753340400E+00
(PID.TID 0000.0001)  ploadbar=  1.01132717328364E+05
 cg2d: Sum(rhs),rhsMax =  -6.73781119351821E+01  1.20248783133239E+00
(PID.TID 0000.0001)  ploadbar=  1.01133072715022E+05
 cg2d: Sum(rhs),rhsMax =  -6.75701521261736E+01  1.19918054129713E+00
(PID.TID 0000.0001)  ploadbar=  1.01132503151574E+05
 cg2d: Sum(rhs),rhsMax =  -6.77631714789190E+01  1.19593530955670E+00
(PID.TID 0000.0001)  ploadbar=  1.01131933588125E+05
 cg2d: Sum(rhs),rhsMax =  -6.79251491373938E+01  1.19331171313368E+00
(PID.TID 0000.0001)  ploadbar=  1.01131364024676E+05
 cg2d: Sum(rhs),rhsMax =  -6.80534437753554E+01  1.19135014768224E+00
(PID.TID 0000.0001)  ploadbar=  1.01130794461228E+05
 cg2d: Sum(rhs),rhsMax =  -6.81464675952073E+01  1.19007430628704E+00
(PID.TID 0000.0001)  ploadbar=  1.01130224897779E+05
 cg2d: Sum(rhs),rhsMax =  -6.82047654245129E+01  1.18946997714688E+00
(PID.TID 0000.0001)  ploadbar=  1.01129655334330E+05
 cg2d: Sum(rhs),rhsMax =  -6.81917535393931E+01  1.19009315757825E+00
(PID.TID 0000.0001)  ploadbar=  1.01130308624749E+05
 cg2d: Sum(rhs),rhsMax =  -6.81647292152168E+01  1.19094458128874E+00
(PID.TID 0000.0001)  ploadbar=  1.01130961915168E+05
 cg2d: Sum(rhs),rhsMax =  -6.81255414582730E+01  1.19199291863457E+00
(PID.TID 0000.0001)  ploadbar=  1.01131615205587E+05
 cg2d: Sum(rhs),rhsMax =  -6.80821977943587E+01  1.19309877807503E+00
(PID.TID 0000.0001)  ploadbar=  1.01132268496006E+05
 cg2d: Sum(rhs),rhsMax =  -6.80562316482610E+01  1.19388420610863E+00
(PID.TID 0000.0001)  ploadbar=  1.01132921786425E+05
 cg2d: Sum(rhs),rhsMax =  -6.80556806637741E+01  1.19420792649139E+00
(PID.TID 0000.0001)  ploadbar=  1.01133575076843E+05
 cg2d: Sum(rhs),rhsMax =  -6.79942010062958E+01  1.19560427283712E+00
(PID.TID 0000.0001)  ploadbar=  1.01133789471669E+05
 cg2d: Sum(rhs),rhsMax =  -6.79600174896173E+01  1.19651864218212E+00
(PID.TID 0000.0001)  ploadbar=  1.01134003866494E+05
 cg2d: Sum(rhs),rhsMax =  -6.79298648833160E+01  1.19735835988510E+00
(PID.TID 0000.0001)  ploadbar=  1.01134218261320E+05
 cg2d: Sum(rhs),rhsMax =  -6.79045734879099E+01  1.19810972461086E+00
(PID.TID 0000.0001)  ploadbar=  1.01134432656146E+05
 cg2d: Sum(rhs),rhsMax =  -6.78897310994177E+01  1.19867608775791E+00
(PID.TID 0000.0001)  ploadbar=  1.01134647050971E+05
 cg2d: Sum(rhs),rhsMax =  -6.78693186182453E+01  1.19934347432624E+00
(PID.TID 0000.0001)  ploadbar=  1.01134861445797E+05
 cg2d: Sum(rhs),rhsMax =  -6.78352950642984E+01  1.20019111890639E+00
(PID.TID 0000.0001)  ploadbar=  1.01133812565457E+05
 cg2d: Sum(rhs),rhsMax =  -6.77713977254769E+01  1.20150531766118E+00
(PID.TID 0000.0001)  ploadbar=  1.01132763685117E+05
 cg2d: Sum(rhs),rhsMax =  -6.76855639006062E+01  1.20315118944532E+00
(PID.TID 0000.0001)  ploadbar=  1.01131714804777E+05
 cg2d: Sum(rhs),rhsMax =  -6.75678543027998E+01  1.20531303516936E+00
(PID.TID 0000.0001)  ploadbar=  1.01130665924437E+05
 cg2d: Sum(rhs),rhsMax =  -6.74334001921138E+01  1.20772879041591E+00
(PID.TID 0000.0001)  ploadbar=  1.01129617044097E+05
 cg2d: Sum(rhs),rhsMax =  -6.73108033074892E+01  1.20988694579757E+00
(PID.TID 0000.0001)  ploadbar=  1.01128568163757E+05
 cg2d: Sum(rhs),rhsMax =  -6.73024435892472E+01  1.21006290576487E+00
(PID.TID 0000.0001)  ploadbar=  1.01127572200042E+05
 cg2d: Sum(rhs),rhsMax =  -6.72849772746639E+01  1.21045893470457E+00
(PID.TID 0000.0001)  ploadbar=  1.01126576236327E+05
 cg2d: Sum(rhs),rhsMax =  -6.72725382637207E+01  1.21082203858164E+00
(PID.TID 0000.0001)  ploadbar=  1.01125580272611E+05
 cg2d: Sum(rhs),rhsMax =  -6.72890830609823E+01  1.21072214680120E+00
(PID.TID 0000.0001)  ploadbar=  1.01124584308896E+05
 cg2d: Sum(rhs),rhsMax =  -6.73356001285268E+01  1.21014114392463E+00
(PID.TID 0000.0001)  ploadbar=  1.01123588345180E+05
 cg2d: Sum(rhs),rhsMax =  -6.73761338342013E+01  1.20972980889175E+00
(PID.TID 0000.0001)  ploadbar=  1.01122592381465E+05
 cg2d: Sum(rhs),rhsMax =  -6.72380507366370E+01  1.21252340721836E+00
(PID.TID 0000.0001)  ploadbar=  1.01121363376317E+05
 cg2d: Sum(rhs),rhsMax =  -6.71466813265032E+01  1.21447602410061E+00
(PID.TID 0000.0001)  ploadbar=  1.01120134371170E+05
 cg2d: Sum(rhs),rhsMax =  -6.70975127422933E+01  1.21566470520025E+00
(PID.TID 0000.0001)  ploadbar=  1.01118905366022E+05
 cg2d: Sum(rhs),rhsMax =  -6.70754251736099E+01  1.21636128835952E+00
(PID.TID 0000.0001)  ploadbar=  1.01117676360875E+05
 cg2d: Sum(rhs),rhsMax =  -6.70683226026852E+01  1.21679149561295E+00
(PID.TID 0000.0001)  ploadbar=  1.01116447355727E+05
 cg2d: Sum(rhs),rhsMax =  -6.70666801826591E+01  1.21713163741907E+00
(PID.TID 0000.0001)  ploadbar=  1.01115218350580E+05
 cg2d: Sum(rhs),rhsMax =  -6.70389231798871E+01  1.21798589607423E+00
(PID.TID 0000.0001)  ploadbar=  1.01114595599669E+05
 cg2d: Sum(rhs),rhsMax =  -6.69649054976984E+01  1.21971579286035E+00
(PID.TID 0000.0001)  ploadbar=  1.01113972848757E+05
 cg2d: Sum(rhs),rhsMax =  -6.68424975751242E+01  1.22236991533185E+00
(PID.TID 0000.0001)  ploadbar=  1.01113350097846E+05
 cg2d: Sum(rhs),rhsMax =  -6.66808337174015E+01  1.22579455811176E+00
(PID.TID 0000.0001)  ploadbar=  1.01112727346934E+05
 cg2d: Sum(rhs),rhsMax =  -6.65061213066672E+01  1.22952119189770E+00
(PID.TID 0000.0001)  ploadbar=  1.01112104596023E+05
 cg2d: Sum(rhs),rhsMax =  -6.63471140795926E+01  1.23302400230339E+00
(PID.TID 0000.0001)  ploadbar=  1.01111481845111E+05
 cg2d: Sum(rhs),rhsMax =  -6.61184743874695E+01  1.23779388273182E+00
(PID.TID 0000.0001)  ploadbar=  1.01110582923777E+05
 cg2d: Sum(rhs),rhsMax =  -6.59744785725174E+01  1.24094843171836E+00
(PID.TID 0000.0001)  ploadbar=  1.01109684002443E+05
 cg2d: Sum(rhs),rhsMax =  -6.64136333969590E+01  1.23313979812254E+00
(PID.TID 0000.0001)  ploadbar=  1.01108785081108E+05
 cg2d: Sum(rhs),rhsMax =  -6.73361224542646E+01  1.21659158992087E+00
(PID.TID 0000.0001)  ploadbar=  1.01107886159774E+05
 cg2d: Sum(rhs),rhsMax =  -6.76693068856290E+01  1.21090440728391E+00
(PID.TID 0000.0001)  ploadbar=  1.01106987238440E+05
 cg2d: Sum(rhs),rhsMax =  -6.76693485927431E+01  1.21116848945498E+00
(PID.TID 0000.0001)  ploadbar=  1.01106088317106E+05
 cg2d: Sum(rhs),rhsMax =  -6.76739156755827E+01  1.21140765024873E+00
(PID.TID 0000.0001)  ploadbar=  1.01107364155545E+05
 cg2d: Sum(rhs),rhsMax =  -6.76373732539807E+01  1.21243848136427E+00
(PID.TID 0000.0001)  ploadbar=  1.01108639993984E+05
 cg2d: Sum(rhs),rhsMax =  -6.76797956089203E+01  1.21210820161288E+00
(PID.TID 0000.0001)  ploadbar=  1.01109915832423E+05
 cg2d: Sum(rhs),rhsMax =  -6.77987659036019E+01  1.21046723576318E+00
(PID.TID 0000.0001)  ploadbar=  1.01111191670862E+05
 cg2d: Sum(rhs),rhsMax =  -6.79691074247671E+01  1.20798177324289E+00
(PID.TID 0000.0001)  ploadbar=  1.01112467509301E+05
 cg2d: Sum(rhs),rhsMax =  -6.81562879920230E+01  1.20527598377844E+00
(PID.TID 0000.0001)  ploadbar=  1.01113743347740E+05
 cg2d: Sum(rhs),rhsMax =  -6.81446095599174E+01  1.20606673849593E+00
(PID.TID 0000.0001)  ploadbar=  1.01113584410854E+05
 cg2d: Sum(rhs),rhsMax =  -6.81238183236973E+01  1.20699204609284E+00
(PID.TID 0000.0001)  ploadbar=  1.01113425473969E+05
 cg2d: Sum(rhs),rhsMax =  -6.81004203676018E+01  1.20794382937950E+00
(PID.TID 0000.0001)  ploadbar=  1.01113266537083E+05
 cg2d: Sum(rhs),rhsMax =  -6.80781095660748E+01  1.20885942005526E+00
(PID.TID 0000.0001)  ploadbar=  1.01113107600197E+05
 cg2d: Sum(rhs),rhsMax =  -6.80592566630533E+01  1.20970070334900E+00
(PID.TID 0000.0001)  ploadbar=  1.01112948663312E+05
 cg2d: Sum(rhs),rhsMax =  -6.80489249400925E+01  1.21037932393359E+00
(PID.TID 0000.0001)  ploadbar=  1.01112789726426E+05
 cg2d: Sum(rhs),rhsMax =  -6.79781599120069E+01  1.21217791269121E+00
(PID.TID 0000.0001)  ploadbar=  1.01112199177453E+05
 cg2d: Sum(rhs),rhsMax =  -6.79033405206878E+01  1.21409505199321E+00
(PID.TID 0000.0001)  ploadbar=  1.01111608628480E+05
 cg2d: Sum(rhs),rhsMax =  -6.77702281465121E+01  1.21710550346911E+00
(PID.TID 0000.0001)  ploadbar=  1.01111018079507E+05
 cg2d: Sum(rhs),rhsMax =  -6.75955302087575E+01  1.22092404217882E+00
(PID.TID 0000.0001)  ploadbar=  1.01110427530534E+05
 cg2d: Sum(rhs),rhsMax =  -6.73925374148912E+01  1.22532457766631E+00
(PID.TID 0000.0001)  ploadbar=  1.01109836981562E+05
 cg2d: Sum(rhs),rhsMax =  -6.71761170676183E+01  1.23004950758777E+00
(PID.TID 0000.0001)  ploadbar=  1.01109246432589E+05
 cg2d: Sum(rhs),rhsMax =  -6.70230139991783E+01  1.23357445480349E+00
(PID.TID 0000.0001)  ploadbar=  1.01109096272372E+05
 cg2d: Sum(rhs),rhsMax =  -6.69111646172960E+01  1.23628420052814E+00
(PID.TID 0000.0001)  ploadbar=  1.01108946112155E+05
 cg2d: Sum(rhs),rhsMax =  -6.67531626735191E+01  1.23979336443016E+00
(PID.TID 0000.0001)  ploadbar=  1.01108795951938E+05
 cg2d: Sum(rhs),rhsMax =  -6.66159044033203E+01  1.24286856132313E+00
(PID.TID 0000.0001)  ploadbar=  1.01108645791721E+05
 cg2d: Sum(rhs),rhsMax =  -6.65346596801582E+01  1.24484336791632E+00
(PID.TID 0000.0001)  ploadbar=  1.01108495631504E+05
 cg2d: Sum(rhs),rhsMax =  -6.64117284910909E+01  1.24753882439972E+00
(PID.TID 0000.0001)  ploadbar=  1.01108345471287E+05
 cg2d: Sum(rhs),rhsMax =  -6.63219665810883E+01  1.24966204215694E+00
(PID.TID 0000.0001)  ploadbar=  1.01107045492021E+05
 cg2d: Sum(rhs),rhsMax =  -6.63155068663965E+01  1.25026101527011E+00
(PID.TID 0000.0001)  ploadbar=  1.01105745512755E+05
 cg2d: Sum(rhs),rhsMax =  -6.64130737979095E+01  1.24894548053384E+00
(PID.TID 0000.0001)  ploadbar=  1.01104445533489E+05
 cg2d: Sum(rhs),rhsMax =  -6.66053876273349E+01  1.24590633704590E+00
(PID.TID 0000.0001)  ploadbar=  1.01103145554223E+05
 cg2d: Sum(rhs),rhsMax =  -6.68867996652414E+01  1.24127874830418E+00
(PID.TID 0000.0001)  ploadbar=  1.01101845574957E+05
 cg2d: Sum(rhs),rhsMax =  -6.71926953649105E+01  1.23629349324028E+00
(PID.TID 0000.0001)  ploadbar=  1.01100545595691E+05
 cg2d: Sum(rhs),rhsMax =  -6.73731706430381E+01  1.23366197949370E+00
(PID.TID 0000.0001)  ploadbar=  1.01099411674153E+05
 cg2d: Sum(rhs),rhsMax =  -6.75280139689417E+01  1.23152849523977E+00
(PID.TID 0000.0001)  ploadbar=  1.01098277752615E+05
 cg2d: Sum(rhs),rhsMax =  -6.76855775408219E+01  1.22937341372969E+00
(PID.TID 0000.0001)  ploadbar=  1.01097143831078E+05
 cg2d: Sum(rhs),rhsMax =  -6.78487790927713E+01  1.22714687919553E+00
(PID.TID 0000.0001)  ploadbar=  1.01096009909541E+05
 cg2d: Sum(rhs),rhsMax =  -6.80406496273365E+01  1.22444004906674E+00
(PID.TID 0000.0001)  ploadbar=  1.01094875988003E+05
 cg2d: Sum(rhs),rhsMax =  -6.82775919852878E+01  1.22096782329491E+00
(PID.TID 0000.0001)  ploadbar=  1.01093742066465E+05
 cg2d: Sum(rhs),rhsMax =  -6.85030568865229E+01  1.21775136644654E+00
(PID.TID 0000.0001)  ploadbar=  1.01092701111389E+05
 cg2d: Sum(rhs),rhsMax =  -6.87143500976639E+01  1.21483567118451E+00
(PID.TID 0000.0001)  ploadbar=  1.01091660156312E+05
 cg2d: Sum(rhs),rhsMax =  -6.89064650117597E+01  1.21230835479480E+00
(PID.TID 0000.0001)  ploadbar=  1.01090619201235E+05
 cg2d: Sum(rhs),rhsMax =  -6.90485214638942E+01  1.21071002273701E+00
(PID.TID 0000.0001)  ploadbar=  1.01089578246158E+05
 cg2d: Sum(rhs),rhsMax =  -6.91314061258993E+01  1.21019322914830E+00
(PID.TID 0000.0001)  ploadbar=  1.01088537291081E+05
 cg2d: Sum(rhs),rhsMax =  -6.91534662663476E+01  1.21078387505477E+00
(PID.TID 0000.0001)  ploadbar=  1.01087496336004E+05
 cg2d: Sum(rhs),rhsMax =  -6.90261677741870E+01  1.21392559367273E+00
(PID.TID 0000.0001)  ploadbar=  1.01086826328499E+05
 cg2d: Sum(rhs),rhsMax =  -6.88291952560330E+01  1.21823906266946E+00
(PID.TID 0000.0001)  ploadbar=  1.01086156320993E+05
 cg2d: Sum(rhs),rhsMax =  -6.85870675173612E+01  1.22331221105542E+00
(PID.TID 0000.0001)  ploadbar=  1.01085486313487E+05
 cg2d: Sum(rhs),rhsMax =  -6.83078667877266E+01  1.22902027593435E+00
(PID.TID 0000.0001)  ploadbar=  1.01084816305982E+05
 cg2d: Sum(rhs),rhsMax =  -6.79553755438450E+01  1.23603484680721E+00
(PID.TID 0000.0001)  ploadbar=  1.01084146298476E+05
 cg2d: Sum(rhs),rhsMax =  -6.75094167558196E+01  1.24476824190459E+00
(PID.TID 0000.0001)  ploadbar=  1.01083476290971E+05
 cg2d: Sum(rhs),rhsMax =  -6.70983796960816E+01  1.25300450189770E+00
(PID.TID 0000.0001)  ploadbar=  1.01083304002315E+05
 cg2d: Sum(rhs),rhsMax =  -6.67372421301323E+01  1.26043796367760E+00
(PID.TID 0000.0001)  ploadbar=  1.01083131713659E+05
 cg2d: Sum(rhs),rhsMax =  -6.64160067803306E+01  1.26723028448288E+00
(PID.TID 0000.0001)  ploadbar=  1.01082959425003E+05
 cg2d: Sum(rhs),rhsMax =  -6.61366835771984E+01  1.27332206809381E+00
(PID.TID 0000.0001)  ploadbar=  1.01082787136347E+05
 cg2d: Sum(rhs),rhsMax =  -6.58938078427710E+01  1.27880010197791E+00
(PID.TID 0000.0001)  ploadbar=  1.01082614847691E+05
 cg2d: Sum(rhs),rhsMax =  -6.56941989860726E+01  1.28351883717479E+00
(PID.TID 0000.0001)  ploadbar=  1.01082442559036E+05
 cg2d: Sum(rhs),rhsMax =  -6.55955964012096E+01  1.28627584013199E+00
(PID.TID 0000.0001)  ploadbar=  1.01083286208359E+05
 cg2d: Sum(rhs),rhsMax =  -6.55206651831131E+01  1.28856665491883E+00
(PID.TID 0000.0001)  ploadbar=  1.01084129857683E+05
 cg2d: Sum(rhs),rhsMax =  -6.54658123236995E+01  1.29045930982723E+00
(PID.TID 0000.0001)  ploadbar=  1.01084973507007E+05
 cg2d: Sum(rhs),rhsMax =  -6.54480302500954E+01  1.29161826436022E+00
(PID.TID 0000.0001)  ploadbar=  1.01085817156330E+05
 cg2d: Sum(rhs),rhsMax =  -6.54634136422622E+01  1.29212098559580E+00
(PID.TID 0000.0001)  ploadbar=  1.01086660805654E+05
 cg2d: Sum(rhs),rhsMax =  -6.55081855112871E+01  1.29204498649587E+00
(PID.TID 0000.0001)  ploadbar=  1.01087504454978E+05
 cg2d: Sum(rhs),rhsMax =  -6.55981270205089E+01  1.29113030863348E+00
(PID.TID 0000.0001)  ploadbar=  1.01086759892293E+05
 cg2d: Sum(rhs),rhsMax =  -6.57019110938961E+01  1.28999306406248E+00
(PID.TID 0000.0001)  ploadbar=  1.01086015329608E+05
 cg2d: Sum(rhs),rhsMax =  -6.58107056200545E+01  1.28881097893004E+00
(PID.TID 0000.0001)  ploadbar=  1.01085270766922E+05
 cg2d: Sum(rhs),rhsMax =  -6.59363809320596E+01  1.28735374802120E+00
(PID.TID 0000.0001)  ploadbar=  1.01084526204237E+05
 cg2d: Sum(rhs),rhsMax =  -6.60752540440553E+01  1.28569554645695E+00
(PID.TID 0000.0001)  ploadbar=  1.01083781641552E+05
 cg2d: Sum(rhs),rhsMax =  -6.62149352789134E+01  1.28408088952115E+00
(PID.TID 0000.0001)  ploadbar=  1.01083037078867E+05
 cg2d: Sum(rhs),rhsMax =  -6.63608789058877E+01  1.28224965791366E+00
(PID.TID 0000.0001)  ploadbar=  1.01082852806172E+05
 cg2d: Sum(rhs),rhsMax =  -6.65039001630245E+01  1.28037628564460E+00
(PID.TID 0000.0001)  ploadbar=  1.01082668533477E+05
 cg2d: Sum(rhs),rhsMax =  -6.66288998079140E+01  1.27875130725120E+00
(PID.TID 0000.0001)  ploadbar=  1.01082484260782E+05
 cg2d: Sum(rhs),rhsMax =  -6.67347011536286E+01  1.27739936985542E+00
(PID.TID 0000.0001)  ploadbar=  1.01082299988087E+05
 cg2d: Sum(rhs),rhsMax =  -6.68275620268377E+01  1.27619758593078E+00
(PID.TID 0000.0001)  ploadbar=  1.01082115715392E+05
 cg2d: Sum(rhs),rhsMax =  -6.69102118566635E+01  1.27508862428290E+00
(PID.TID 0000.0001)  ploadbar=  1.01081931442697E+05
 cg2d: Sum(rhs),rhsMax =  -6.70286988736842E+01  1.27334078240762E+00
(PID.TID 0000.0001)  ploadbar=  1.01081581899087E+05
 cg2d: Sum(rhs),rhsMax =  -6.71235370168834E+01  1.27208455780225E+00
(PID.TID 0000.0001)  ploadbar=  1.01081232355477E+05
 cg2d: Sum(rhs),rhsMax =  -6.71996693219105E+01  1.27122410984278E+00
(PID.TID 0000.0001)  ploadbar=  1.01080882811867E+05
 cg2d: Sum(rhs),rhsMax =  -6.72515172207372E+01  1.27086083238239E+00
(PID.TID 0000.0001)  ploadbar=  1.01080533268257E+05
 cg2d: Sum(rhs),rhsMax =  -6.72704646887280E+01  1.27115759844749E+00
(PID.TID 0000.0001)  ploadbar=  1.01080183724647E+05
 cg2d: Sum(rhs),rhsMax =  -6.72697583111732E+01  1.27186554868017E+00
(PID.TID 0000.0001)  ploadbar=  1.01079834181037E+05
 cg2d: Sum(rhs),rhsMax =  -6.74520972093370E+01  1.26907538670619E+00
(PID.TID 0000.0001)  ploadbar=  1.01078923877792E+05
 cg2d: Sum(rhs),rhsMax =  -6.78250810990601E+01  1.26269494847189E+00
(PID.TID 0000.0001)  ploadbar=  1.01078013574547E+05
 cg2d: Sum(rhs),rhsMax =  -6.82897585300099E+01  1.25465328313306E+00
(PID.TID 0000.0001)  ploadbar=  1.01077103271302E+05
 cg2d: Sum(rhs),rhsMax =  -6.88302725711001E+01  1.24530590860603E+00
(PID.TID 0000.0001)  ploadbar=  1.01076192968057E+05
 cg2d: Sum(rhs),rhsMax =  -6.94291104236472E+01  1.23503320127643E+00
(PID.TID 0000.0001)  ploadbar=  1.01075282664813E+05
 cg2d: Sum(rhs),rhsMax =  -7.00760636129001E+01  1.22407143935037E+00
(PID.TID 0000.0001)  ploadbar=  1.01074372361568E+05
 cg2d: Sum(rhs),rhsMax =  -7.07862688933125E+01  1.21227130347143E+00
(PID.TID 0000.0001)  ploadbar=  1.01073358278788E+05
 cg2d: Sum(rhs),rhsMax =  -7.14923106422026E+01  1.20081278915549E+00
(PID.TID 0000.0001)  ploadbar=  1.01072344196008E+05
 cg2d: Sum(rhs),rhsMax =  -7.21521225304057E+01  1.19038173263576E+00
(PID.TID 0000.0001)  ploadbar=  1.01071330113228E+05
 cg2d: Sum(rhs),rhsMax =  -7.27829827412028E+01  1.18065104153534E+00
(PID.TID 0000.0001)  ploadbar=  1.01070316030448E+05
 cg2d: Sum(rhs),rhsMax =  -7.33885798849458E+01  1.17153371302549E+00
(PID.TID 0000.0001)  ploadbar=  1.01069301947668E+05
 cg2d: Sum(rhs),rhsMax =  -7.39698826522690E+01  1.16299219821290E+00
(PID.TID 0000.0001)  ploadbar=  1.01068287864888E+05
 cg2d: Sum(rhs),rhsMax =  -7.42967445537532E+01  1.15846104344898E+00
(PID.TID 0000.0001)  ploadbar=  1.01067765693047E+05
 cg2d: Sum(rhs),rhsMax =  -7.46725156230604E+01  1.15313534411823E+00
(PID.TID 0000.0001)  ploadbar=  1.01067243521206E+05
 cg2d: Sum(rhs),rhsMax =  -7.50845355784806E+01  1.14723491086792E+00
(PID.TID 0000.0001)  ploadbar=  1.01066721349365E+05
 cg2d: Sum(rhs),rhsMax =  -7.55803461143466E+01  1.14006596955834E+00
(PID.TID 0000.0001)  ploadbar=  1.01066199177524E+05
 cg2d: Sum(rhs),rhsMax =  -7.61941706949450E+01  1.13117066322670E+00
(PID.TID 0000.0001)  ploadbar=  1.01065677005682E+05
 cg2d: Sum(rhs),rhsMax =  -7.68675914488024E+01  1.12147791730917E+00
(PID.TID 0000.0001)  ploadbar=  1.01065154833841E+05
 cg2d: Sum(rhs),rhsMax =  -7.78718755966307E+01  1.10725291973811E+00
(PID.TID 0000.0001)  ploadbar=  1.01063994978433E+05
 cg2d: Sum(rhs),rhsMax =  -7.93111934130362E+01  1.08741240780053E+00
(PID.TID 0000.0001)  ploadbar=  1.01062835123024E+05
 cg2d: Sum(rhs),rhsMax =  -8.08413984331092E+01  1.06709662948331E+00
(PID.TID 0000.0001)  ploadbar=  1.01061675267616E+05
 cg2d: Sum(rhs),rhsMax =  -8.23151773988551E+01  1.04827254835930E+00
(PID.TID 0000.0001)  ploadbar=  1.01060515412207E+05
 cg2d: Sum(rhs),rhsMax =  -8.36213494593001E+01  1.03219403254596E+00
(PID.TID 0000.0001)  ploadbar=  1.01059355556799E+05
 cg2d: Sum(rhs),rhsMax =  -8.30659118838855E+01  1.03941416925347E+00
(PID.TID 0000.0001)  ploadbar=  1.01058195701390E+05
 cg2d: Sum(rhs),rhsMax =  -8.22074712132990E+01  1.05058230351639E+00
(PID.TID 0000.0001)  ploadbar=  1.01056807551891E+05
 cg2d: Sum(rhs),rhsMax =  -8.13943691439472E+01  1.06138661426581E+00
(PID.TID 0000.0001)  ploadbar=  1.01055419402391E+05
 cg2d: Sum(rhs),rhsMax =  -8.06343272707129E+01  1.07169824656734E+00
(PID.TID 0000.0001)  ploadbar=  1.01054031252892E+05
 cg2d: Sum(rhs),rhsMax =  -7.99230264109769E+01  1.08154644459260E+00
(PID.TID 0000.0001)  ploadbar=  1.01052643103392E+05
 cg2d: Sum(rhs),rhsMax =  -7.92649352692142E+01  1.09084640089133E+00
(PID.TID 0000.0001)  ploadbar=  1.01051254953893E+05
 cg2d: Sum(rhs),rhsMax =  -7.86498538437763E+01  1.09972210925074E+00
(PID.TID 0000.0001)  ploadbar=  1.01049866804393E+05
 cg2d: Sum(rhs),rhsMax =  -7.82031372246439E+01  1.10640037339274E+00
(PID.TID 0000.0001)  ploadbar=  1.01048264543047E+05
 cg2d: Sum(rhs),rhsMax =  -7.78633944896258E+01  1.11166904638476E+00
(PID.TID 0000.0001)  ploadbar=  1.01046662281700E+05
 cg2d: Sum(rhs),rhsMax =  -7.76731025358836E+01  1.11487949776537E+00
(PID.TID 0000.0001)  ploadbar=  1.01045060020353E+05
 cg2d: Sum(rhs),rhsMax =  -7.76161565585798E+01  1.11623021637181E+00
(PID.TID 0000.0001)  ploadbar=  1.01043457759006E+05
 cg2d: Sum(rhs),rhsMax =  -7.65050637101917E+01  1.13302722449035E+00
(PID.TID 0000.0001)  ploadbar=  1.01041855497659E+05
 cg2d: Sum(rhs),rhsMax =  -7.54028111910351E+01  1.15022959141287E+00
(PID.TID 0000.0001)  ploadbar=  1.01040253236312E+05
 cg2d: Sum(rhs),rhsMax =  -7.43229410157806E+01  1.16751411102948E+00
(PID.TID 0000.0001)  ploadbar=  1.01040131450435E+05
 cg2d: Sum(rhs),rhsMax =  -7.33006319394995E+01  1.18430209146483E+00
(PID.TID 0000.0001)  ploadbar=  1.01040009664557E+05
 cg2d: Sum(rhs),rhsMax =  -7.24526932520406E+01  1.19860007311633E+00
(PID.TID 0000.0001)  ploadbar=  1.01039887878680E+05
 cg2d: Sum(rhs),rhsMax =  -7.18597616594065E+01  1.20886088144195E+00
(PID.TID 0000.0001)  ploadbar=  1.01039766092802E+05
 cg2d: Sum(rhs),rhsMax =  -7.15491724228294E+01  1.21441075834732E+00
(PID.TID 0000.0001)  ploadbar=  1.01039644306925E+05
 cg2d: Sum(rhs),rhsMax =  -7.15281025210171E+01  1.21499533447244E+00
(PID.TID 0000.0001)  ploadbar=  1.01039522521047E+05
 cg2d: Sum(rhs),rhsMax =  -7.17520336293018E+01  1.21145467696874E+00
(PID.TID 0000.0001)  ploadbar=  1.01041165243619E+05
 cg2d: Sum(rhs),rhsMax =  -7.21438634480407E+01  1.20514617157588E+00
(PID.TID 0000.0001)  ploadbar=  1.01042807966191E+05
 cg2d: Sum(rhs),rhsMax =  -7.26356559067151E+01  1.19727670270771E+00
(PID.TID 0000.0001)  ploadbar=  1.01044450688763E+05
 cg2d: Sum(rhs),rhsMax =  -7.24622592590953E+01  1.20045357735516E+00
(PID.TID 0000.0001)  ploadbar=  1.01046093411335E+05
 cg2d: Sum(rhs),rhsMax =  -7.18457645256827E+01  1.21109269304641E+00
(PID.TID 0000.0001)  ploadbar=  1.01047736133907E+05
 cg2d: Sum(rhs),rhsMax =  -7.12045705283838E+01  1.22236666796055E+00
(PID.TID 0000.0001)  ploadbar=  1.01049378856479E+05
 cg2d: Sum(rhs),rhsMax =  -7.01735688899034E+01  1.24068669129359E+00
(PID.TID 0000.0001)  ploadbar=  1.01050774038857E+05
 cg2d: Sum(rhs),rhsMax =  -6.84012846286629E+01  1.27319048390445E+00
(PID.TID 0000.0001)  ploadbar=  1.01052169221235E+05
 cg2d: Sum(rhs),rhsMax =  -6.66876154541268E+01  1.30626586938875E+00
(PID.TID 0000.0001)  ploadbar=  1.01053564403613E+05
 cg2d: Sum(rhs),rhsMax =  -6.58041256412603E+01  1.32416105629671E+00
(PID.TID 0000.0001)  ploadbar=  1.01054959585992E+05
 cg2d: Sum(rhs),rhsMax =  -6.52588622224635E+01  1.33558842652157E+00
(PID.TID 0000.0001)  ploadbar=  1.01056354768370E+05
 cg2d: Sum(rhs),rhsMax =  -6.47635262606209E+01  1.34618329192642E+00
(PID.TID 0000.0001)  ploadbar=  1.01057749950748E+05
 cg2d: Sum(rhs),rhsMax =  -6.43652864232760E+01  1.35495030734791E+00
(PID.TID 0000.0001)  ploadbar=  1.01059536933936E+05
 cg2d: Sum(rhs),rhsMax =  -6.39671714799904E+01  1.36387252549934E+00
(PID.TID 0000.0001)  ploadbar=  1.01061323917123E+05
 cg2d: Sum(rhs),rhsMax =  -6.35282282870372E+01  1.37383717478329E+00
(PID.TID 0000.0001)  ploadbar=  1.01063110900311E+05
 cg2d: Sum(rhs),rhsMax =  -6.28824098646777E+01  1.38854564020760E+00
(PID.TID 0000.0001)  ploadbar=  1.01064897883498E+05
 cg2d: Sum(rhs),rhsMax =  -6.20399993425886E+01  1.40806283700747E+00
(PID.TID 0000.0001)  ploadbar=  1.01066684866686E+05
 cg2d: Sum(rhs),rhsMax =  -6.10743057622213E+01  1.43105763166153E+00
(PID.TID 0000.0001)  ploadbar=  1.01068471849874E+05
 cg2d: Sum(rhs),rhsMax =  -6.00242030903586E+01  1.45677926282957E+00
(PID.TID 0000.0001)  ploadbar=  1.01070593432281E+05
 cg2d: Sum(rhs),rhsMax =  -5.88720399023245E+01  1.48592853459996E+00
(PID.TID 0000.0001)  ploadbar=  1.01072715014688E+05
 cg2d: Sum(rhs),rhsMax =  -5.76151151345954E+01  1.51893956088354E+00
(PID.TID 0000.0001)  ploadbar=  1.01074836597095E+05
 cg2d: Sum(rhs),rhsMax =  -5.63567284601509E+01  1.55340567027459E+00
(PID.TID 0000.0001)  ploadbar=  1.01076958179502E+05
 cg2d: Sum(rhs),rhsMax =  -5.51484516503668E+01  1.58794469524374E+00
(PID.TID 0000.0001)  ploadbar=  1.01079079761909E+05
 cg2d: Sum(rhs),rhsMax =  -5.39336509925083E+01  1.62416634884976E+00
(PID.TID 0000.0001)  ploadbar=  1.01081201344317E+05
 cg2d: Sum(rhs),rhsMax =  -5.30758266646474E+01  1.65094566617640E+00
(PID.TID 0000.0001)  ploadbar=  1.01083886422666E+05
 cg2d: Sum(rhs),rhsMax =  -5.27217858298263E+01  1.66262588701187E+00
(PID.TID 0000.0001)  ploadbar=  1.01086571501015E+05
 cg2d: Sum(rhs),rhsMax =  -5.29645977794723E+01  1.65565518919103E+00
(PID.TID 0000.0001)  ploadbar=  1.01089256579364E+05
 cg2d: Sum(rhs),rhsMax =  -5.37969177385757E+01  1.63073951718384E+00
(PID.TID 0000.0001)  ploadbar=  1.01091941657713E+05
 cg2d: Sum(rhs),rhsMax =  -5.46887245650106E+01  1.60489872200680E+00
(PID.TID 0000.0001)  ploadbar=  1.01094626736062E+05
 cg2d: Sum(rhs),rhsMax =  -5.56030220381958E+01  1.57931317023433E+00
(PID.TID 0000.0001)  ploadbar=  1.01097311814411E+05
 cg2d: Sum(rhs),rhsMax =  -5.64790776165519E+01  1.55557073891634E+00
(PID.TID 0000.0001)  ploadbar=  1.01098268134537E+05
 cg2d: Sum(rhs),rhsMax =  -5.73463554516433E+01  1.53275168130279E+00
(PID.TID 0000.0001)  ploadbar=  1.01099224454664E+05
 cg2d: Sum(rhs),rhsMax =  -5.82007655093717E+01  1.51091276309236E+00
(PID.TID 0000.0001)  ploadbar=  1.01100180774790E+05
 cg2d: Sum(rhs),rhsMax =  -5.90481414584245E+01  1.48985897105048E+00
(PID.TID 0000.0001)  ploadbar=  1.01101137094916E+05
 cg2d: Sum(rhs),rhsMax =  -5.98947534385825E+01  1.46940212047995E+00
(PID.TID 0000.0001)  ploadbar=  1.01102093415043E+05
 cg2d: Sum(rhs),rhsMax =  -6.07468654542693E+01  1.44938128530860E+00
(PID.TID 0000.0001)  ploadbar=  1.01103049735169E+05
 cg2d: Sum(rhs),rhsMax =  -6.15771376363702E+01  1.43046414747200E+00
(PID.TID 0000.0001)  ploadbar=  1.01104090568709E+05
 cg2d: Sum(rhs),rhsMax =  -6.17318901600189E+01  1.42753485532476E+00
(PID.TID 0000.0001)  ploadbar=  1.01105131402249E+05
 cg2d: Sum(rhs),rhsMax =  -6.14169503011915E+01  1.43554932473517E+00
(PID.TID 0000.0001)  ploadbar=  1.01106172235789E+05
 cg2d: Sum(rhs),rhsMax =  -6.11070992721476E+01  1.44356244993219E+00
(PID.TID 0000.0001)  ploadbar=  1.01107213069329E+05
 cg2d: Sum(rhs),rhsMax =  -6.07959656593619E+01  1.45172578455847E+00
(PID.TID 0000.0001)  ploadbar=  1.01108253902869E+05
 cg2d: Sum(rhs),rhsMax =  -6.04789127967700E+01  1.46015365527766E+00
(PID.TID 0000.0001)  ploadbar=  1.01109294736409E+05
 cg2d: Sum(rhs),rhsMax =  -6.01385601683523E+01  1.46916803937351E+00
(PID.TID 0000.0001)  ploadbar=  1.01110392765525E+05
 cg2d: Sum(rhs),rhsMax =  -5.97829604966126E+01  1.47858850400711E+00
(PID.TID 0000.0001)  ploadbar=  1.01111490794641E+05
 cg2d: Sum(rhs),rhsMax =  -5.94031567335707E+01  1.48865630157373E+00
(PID.TID 0000.0001)  ploadbar=  1.01112588823757E+05
 cg2d: Sum(rhs),rhsMax =  -5.90012043205524E+01  1.49934699318692E+00
(PID.TID 0000.0001)  ploadbar=  1.01113686852874E+05
 cg2d: Sum(rhs),rhsMax =  -5.85783616843687E+01  1.51065546531149E+00
(PID.TID 0000.0001)  ploadbar=  1.01114784881990E+05
 cg2d: Sum(rhs),rhsMax =  -5.81340065596801E+01  1.52262271328094E+00
(PID.TID 0000.0001)  ploadbar=  1.01115882911106E+05
 cg2d: Sum(rhs),rhsMax =  -5.77070206627037E+01  1.53438420253993E+00
(PID.TID 0000.0001)  ploadbar=  1.01116780141050E+05
 cg2d: Sum(rhs),rhsMax =  -5.72995869000093E+01  1.54586033418486E+00
(PID.TID 0000.0001)  ploadbar=  1.01117677370994E+05
 cg2d: Sum(rhs),rhsMax =  -5.69339487339296E+01  1.55642595426037E+00
(PID.TID 0000.0001)  ploadbar=  1.01118574600937E+05
 cg2d: Sum(rhs),rhsMax =  -5.66271548629499E+01  1.56556950182638E+00
(PID.TID 0000.0001)  ploadbar=  1.01119471830881E+05
 cg2d: Sum(rhs),rhsMax =  -5.63767265937460E+01  1.57330825666001E+00
(PID.TID 0000.0001)  ploadbar=  1.01120369060825E+05
 cg2d: Sum(rhs),rhsMax =  -5.61769726151913E+01  1.57976136363507E+00
(PID.TID 0000.0001)  ploadbar=  1.01121266290768E+05
 cg2d: Sum(rhs),rhsMax =  -5.60426799951655E+01  1.58438398989366E+00
(PID.TID 0000.0001)  ploadbar=  1.01121948811194E+05
 cg2d: Sum(rhs),rhsMax =  -5.59373248999482E+01  1.58818251423633E+00
(PID.TID 0000.0001)  ploadbar=  1.01122631331619E+05
 cg2d: Sum(rhs),rhsMax =  -5.58547383706205E+01  1.59132573541625E+00
(PID.TID 0000.0001)  ploadbar=  1.01123313852044E+05
 cg2d: Sum(rhs),rhsMax =  -5.57901036164901E+01  1.59395431521102E+00
(PID.TID 0000.0001)  ploadbar=  1.01123996372470E+05
 cg2d: Sum(rhs),rhsMax =  -5.57428570674621E+01  1.59608919668509E+00
(PID.TID 0000.0001)  ploadbar=  1.01124678892895E+05
 cg2d: Sum(rhs),rhsMax =  -5.57133746802295E+01  1.59772724331742E+00
(PID.TID 0000.0001)  ploadbar=  1.01125361413320E+05
 cg2d: Sum(rhs),rhsMax =  -5.56530909735070E+01  1.60031873872273E+00
(PID.TID 0000.0001)  ploadbar=  1.01126843386675E+05
 cg2d: Sum(rhs),rhsMax =  -5.56048373951752E+01  1.60263132146879E+00
(PID.TID 0000.0001)  ploadbar=  1.01128325360030E+05
 cg2d: Sum(rhs),rhsMax =  -5.55732428454870E+01  1.60453223125060E+00
(PID.TID 0000.0001)  ploadbar=  1.01129807333384E+05
 cg2d: Sum(rhs),rhsMax =  -5.55533656538067E+01  1.60616187375651E+00
(PID.TID 0000.0001)  ploadbar=  1.01131289306739E+05
 cg2d: Sum(rhs),rhsMax =  -5.55445765803728E+01  1.60753616266349E+00
(PID.TID 0000.0001)  ploadbar=  1.01132771280093E+05
 cg2d: Sum(rhs),rhsMax =  -5.55450889824777E+01  1.60870382790636E+00
(PID.TID 0000.0001)  ploadbar=  1.01134253253448E+05
 cg2d: Sum(rhs),rhsMax =  -5.55436346910683E+01  1.60981756896762E+00
(PID.TID 0000.0001)  ploadbar=  1.01134838336961E+05
 cg2d: Sum(rhs),rhsMax =  -5.55418666360039E+01  1.61082710184537E+00
(PID.TID 0000.0001)  ploadbar=  1.01135423420475E+05
 cg2d: Sum(rhs),rhsMax =  -5.55306372312843E+01  1.61200221537397E+00
(PID.TID 0000.0001)  ploadbar=  1.01136008503988E+05
 cg2d: Sum(rhs),rhsMax =  -5.55069902783927E+01  1.61343547061537E+00
(PID.TID 0000.0001)  ploadbar=  1.01136593587502E+05
 cg2d: Sum(rhs),rhsMax =  -5.54683261358760E+01  1.61520785751275E+00
(PID.TID 0000.0001)  ploadbar=  1.01137178671015E+05
 cg2d: Sum(rhs),rhsMax =  -5.54137982623489E+01  1.61734876177712E+00
(PID.TID 0000.0001)  ploadbar=  1.01137763754529E+05
 cg2d: Sum(rhs),rhsMax =  -5.53783427697217E+01  1.61899400441115E+00
(PID.TID 0000.0001)  ploadbar=  1.01139707825406E+05
 cg2d: Sum(rhs),rhsMax =  -5.53481142540005E+01  1.62054644015171E+00
(PID.TID 0000.0001)  ploadbar=  1.01141651896282E+05
 cg2d: Sum(rhs),rhsMax =  -5.53271089170761E+01  1.62189385423558E+00
(PID.TID 0000.0001)  ploadbar=  1.01143595967159E+05
 cg2d: Sum(rhs),rhsMax =  -5.53216038777855E+01  1.62285738888379E+00
(PID.TID 0000.0001)  ploadbar=  1.01145540038035E+05
 cg2d: Sum(rhs),rhsMax =  -5.53307260743125E+01  1.62345865958738E+00
(PID.TID 0000.0001)  ploadbar=  1.01147484108912E+05
 cg2d: Sum(rhs),rhsMax =  -5.53517758091490E+01  1.62377699671788E+00
(PID.TID 0000.0001)  ploadbar=  1.01149428179789E+05
 cg2d: Sum(rhs),rhsMax =  -5.53769945673639E+01  1.62392819191351E+00
(PID.TID 0000.0001)  ploadbar=  1.01150408580517E+05
 cg2d: Sum(rhs),rhsMax =  -5.54068372647973E+01  1.62390247846872E+00
(PID.TID 0000.0001)  ploadbar=  1.01151388981245E+05
 cg2d: Sum(rhs),rhsMax =  -5.54466925723407E+01  1.62354636224342E+00
(PID.TID 0000.0001)  ploadbar=  1.01152369381974E+05
 cg2d: Sum(rhs),rhsMax =  -5.54946483716231E+01  1.62292412640628E+00
(PID.TID 0000.0001)  ploadbar=  1.01153349782702E+05
 cg2d: Sum(rhs),rhsMax =  -5.55520460896113E+01  1.62200231545677E+00
(PID.TID 0000.0001)  ploadbar=  1.01154330183430E+05
 cg2d: Sum(rhs),rhsMax =  -5.56198517283008E+01  1.62075770655312E+00
(PID.TID 0000.0001)  ploadbar=  1.01155310584159E+05
 cg2d: Sum(rhs),rhsMax =  -5.56898188619990E+01  1.61954143117343E+00
(PID.TID 0000.0001)  ploadbar=  1.01155631357877E+05
 cg2d: Sum(rhs),rhsMax =  -5.57665520384020E+01  1.61821804813860E+00
(PID.TID 0000.0001)  ploadbar=  1.01155952131595E+05
 cg2d: Sum(rhs),rhsMax =  -5.58537431573215E+01  1.61668206617440E+00
(PID.TID 0000.0001)  ploadbar=  1.01156272905314E+05
 cg2d: Sum(rhs),rhsMax =  -5.59515985259300E+01  1.61492992488181E+00
(PID.TID 0000.0001)  ploadbar=  1.01156593679032E+05
 cg2d: Sum(rhs),rhsMax =  -5.60599745399962E+01  1.61296694864109E+00
(PID.TID 0000.0001)  ploadbar=  1.01156914452751E+05
 cg2d: Sum(rhs),rhsMax =  -5.61784509737831E+01  1.61080785021749E+00
(PID.TID 0000.0001)  ploadbar=  1.01157235226469E+05
 cg2d: Sum(rhs),rhsMax =  -5.62960514077962E+01  1.60860466259977E+00
(PID.TID 0000.0001)  ploadbar=  1.01157461144988E+05
 cg2d: Sum(rhs),rhsMax =  -5.64160250719065E+01  1.60626653408014E+00
(PID.TID 0000.0001)  ploadbar=  1.01157687063508E+05
 cg2d: Sum(rhs),rhsMax =  -5.65365026544117E+01  1.60384997472587E+00
(PID.TID 0000.0001)  ploadbar=  1.01157912982027E+05
 cg2d: Sum(rhs),rhsMax =  -5.66539830112510E+01  1.60145731458708E+00
(PID.TID 0000.0001)  ploadbar=  1.01158138900546E+05
 cg2d: Sum(rhs),rhsMax =  -5.67649062401494E+01  1.59919263708125E+00
(PID.TID 0000.0001)  ploadbar=  1.01158364819065E+05
 cg2d: Sum(rhs),rhsMax =  -5.68660630373235E+01  1.59715048044506E+00
(PID.TID 0000.0001)  ploadbar=  1.01158590737585E+05
 cg2d: Sum(rhs),rhsMax =  -5.69647080577859E+01  1.59523716783963E+00
(PID.TID 0000.0001)  ploadbar=  1.01158598601625E+05
 cg2d: Sum(rhs),rhsMax =  -5.70532525943903E+01  1.59366281212427E+00
(PID.TID 0000.0001)  ploadbar=  1.01158606465666E+05
 cg2d: Sum(rhs),rhsMax =  -5.71288937427018E+01  1.59250411036995E+00
(PID.TID 0000.0001)  ploadbar=  1.01158614329707E+05
 cg2d: Sum(rhs),rhsMax =  -5.71930081351734E+01  1.59172287886947E+00
(PID.TID 0000.0001)  ploadbar=  1.01158622193748E+05
 cg2d: Sum(rhs),rhsMax =  -5.72462345715792E+01  1.59129937453899E+00
(PID.TID 0000.0001)  ploadbar=  1.01158630057789E+05
 cg2d: Sum(rhs),rhsMax =  -5.72884171239588E+01  1.59123783067927E+00
(PID.TID 0000.0001)  ploadbar=  1.01158637921830E+05
 cg2d: Sum(rhs),rhsMax =  -5.73165146380401E+01  1.59153939855724E+00
(PID.TID 0000.0001)  ploadbar=  1.01157854220366E+05
 cg2d: Sum(rhs),rhsMax =  -5.73338256983831E+01  1.59211564430291E+00
(PID.TID 0000.0001)  ploadbar=  1.01157070518902E+05
 cg2d: Sum(rhs),rhsMax =  -5.73386633726393E+01  1.59302283324220E+00
(PID.TID 0000.0001)  ploadbar=  1.01156286817438E+05
 cg2d: Sum(rhs),rhsMax =  -5.73332307077887E+01  1.59421176370075E+00
(PID.TID 0000.0001)  ploadbar=  1.01155503115974E+05
 cg2d: Sum(rhs),rhsMax =  -5.73193567662953E+01  1.59563398357982E+00
(PID.TID 0000.0001)  ploadbar=  1.01154719414510E+05
 cg2d: Sum(rhs),rhsMax =  -5.72985035962196E+01  1.59724828579804E+00
(PID.TID 0000.0001)  ploadbar=  1.01153935713046E+05
 cg2d: Sum(rhs),rhsMax =  -5.72809186699929E+01  1.59880882520762E+00
(PID.TID 0000.0001)  ploadbar=  1.01153124097338E+05
 cg2d: Sum(rhs),rhsMax =  -5.72625193572206E+01  1.60042704290136E+00
(PID.TID 0000.0001)  ploadbar=  1.01152312481630E+05
 cg2d: Sum(rhs),rhsMax =  -5.72426591699129E+01  1.60212250950082E+00
(PID.TID 0000.0001)  ploadbar=  1.01151500865921E+05
 cg2d: Sum(rhs),rhsMax =  -5.72230694321479E+01  1.60384860188783E+00
(PID.TID 0000.0001)  ploadbar=  1.01150689250213E+05
 cg2d: Sum(rhs),rhsMax =  -5.72041059676994E+01  1.60559430138173E+00
(PID.TID 0000.0001)  ploadbar=  1.01149877634505E+05
 cg2d: Sum(rhs),rhsMax =  -5.71961951957745E+01  1.60706687362063E+00
(PID.TID 0000.0001)  ploadbar=  1.01149066018796E+05
 cg2d: Sum(rhs),rhsMax =  -5.71889237574468E+01  1.60841635540224E+00
(PID.TID 0000.0001)  ploadbar=  1.01148741382566E+05
 cg2d: Sum(rhs),rhsMax =  -5.71831667905200E+01  1.60961991295468E+00
(PID.TID 0000.0001)  ploadbar=  1.01148416746335E+05
 cg2d: Sum(rhs),rhsMax =  -5.71817184791517E+01  1.61060409077568E+00
(PID.TID 0000.0001)  ploadbar=  1.01148092110105E+05
 cg2d: Sum(rhs),rhsMax =  -5.71858583168804E+01  1.61133524512688E+00
(PID.TID 0000.0001)  ploadbar=  1.01147767473874E+05
 cg2d: Sum(rhs),rhsMax =  -5.71961663212759E+01  1.61180020583531E+00
(PID.TID 0000.0001)  ploadbar=  1.01147442837644E+05
 cg2d: Sum(rhs),rhsMax =  -5.72134942705735E+01  1.61197491244486E+00
(PID.TID 0000.0001)  ploadbar=  1.01147118201413E+05
 cg2d: Sum(rhs),rhsMax =  -5.72389424936357E+01  1.61196385162340E+00
(PID.TID 0000.0001)  ploadbar=  1.01146220524335E+05
 cg2d: Sum(rhs),rhsMax =  -5.72683360519208E+01  1.61188311922487E+00
(PID.TID 0000.0001)  ploadbar=  1.01145322847257E+05
 cg2d: Sum(rhs),rhsMax =  -5.73002291404825E+01  1.61177487534218E+00
(PID.TID 0000.0001)  ploadbar=  1.01144425170179E+05
 cg2d: Sum(rhs),rhsMax =  -5.73328046768775E+01  1.61169097583256E+00
(PID.TID 0000.0001)  ploadbar=  1.01143527493101E+05
 cg2d: Sum(rhs),rhsMax =  -5.73643692926859E+01  1.61167858063305E+00
(PID.TID 0000.0001)  ploadbar=  1.01142629816022E+05
 cg2d: Sum(rhs),rhsMax =  -5.73939233864945E+01  1.61176587588910E+00
(PID.TID 0000.0001)  ploadbar=  1.01141732138944E+05
 cg2d: Sum(rhs),rhsMax =  -5.74115544814986E+01  1.61214694073972E+00
(PID.TID 0000.0001)  ploadbar=  1.01141047470121E+05
 cg2d: Sum(rhs),rhsMax =  -5.74211267732631E+01  1.61271770864991E+00
(PID.TID 0000.0001)  ploadbar=  1.01140362801297E+05
 cg2d: Sum(rhs),rhsMax =  -5.74247348856850E+01  1.61342584536952E+00
(PID.TID 0000.0001)  ploadbar=  1.01139678132474E+05
 cg2d: Sum(rhs),rhsMax =  -5.74222167088629E+01  1.61427736958001E+00
(PID.TID 0000.0001)  ploadbar=  1.01138993463651E+05
 cg2d: Sum(rhs),rhsMax =  -5.74143433267541E+01  1.61525264902435E+00
(PID.TID 0000.0001)  ploadbar=  1.01138308794827E+05
 cg2d: Sum(rhs),rhsMax =  -5.74024807994180E+01  1.61631394656730E+00
(PID.TID 0000.0001)  ploadbar=  1.01137624126004E+05
 cg2d: Sum(rhs),rhsMax =  -5.73943188646753E+01  1.61732182273916E+00
(PID.TID 0000.0001)  ploadbar=  1.01136898945751E+05
 cg2d: Sum(rhs),rhsMax =  -5.73860970856924E+01  1.61838137111101E+00
(PID.TID 0000.0001)  ploadbar=  1.01136173765498E+05
 cg2d: Sum(rhs),rhsMax =  -5.73801088801294E+01  1.61942910468753E+00
(PID.TID 0000.0001)  ploadbar=  1.01135448585245E+05
 cg2d: Sum(rhs),rhsMax =  -5.73761070246063E+01  1.62047041272372E+00
(PID.TID 0000.0001)  ploadbar=  1.01134723404992E+05
 cg2d: Sum(rhs),rhsMax =  -5.73736760860572E+01  1.62151517151799E+00
(PID.TID 0000.0001)  ploadbar=  1.01133998224739E+05
 cg2d: Sum(rhs),rhsMax =  -5.73730090314398E+01  1.62255641848177E+00
(PID.TID 0000.0001)  ploadbar=  1.01133273044486E+05
 cg2d: Sum(rhs),rhsMax =  -5.73662139375730E+01  1.62368545210618E+00
(PID.TID 0000.0001)  ploadbar=  1.01132354929650E+05
 cg2d: Sum(rhs),rhsMax =  -5.73577210733425E+01  1.62477555674054E+00
(PID.TID 0000.0001)  ploadbar=  1.01131436814815E+05
 cg2d: Sum(rhs),rhsMax =  -5.73472215111773E+01  1.62583834982619E+00
(PID.TID 0000.0001)  ploadbar=  1.01130518699979E+05
 cg2d: Sum(rhs),rhsMax =  -5.73336260951288E+01  1.62690463542144E+00
(PID.TID 0000.0001)  ploadbar=  1.01129600585144E+05
 cg2d: Sum(rhs),rhsMax =  -5.73183185179794E+01  1.62793705989224E+00
(PID.TID 0000.0001)  ploadbar=  1.01128682470308E+05
 cg2d: Sum(rhs),rhsMax =  -5.73018443820334E+01  1.62891853803217E+00
(PID.TID 0000.0001)  ploadbar=  1.01127764355472E+05
 cg2d: Sum(rhs),rhsMax =  -5.72910284570225E+01  1.62981733050563E+00
(PID.TID 0000.0001)  ploadbar=  1.01126020878325E+05
 cg2d: Sum(rhs),rhsMax =  -5.72887070717149E+01  1.63055173462371E+00
(PID.TID 0000.0001)  ploadbar=  1.01124277401178E+05
 cg2d: Sum(rhs),rhsMax =  -5.72949944250781E+01  1.63111761962523E+00
(PID.TID 0000.0001)  ploadbar=  1.01122533924031E+05
 cg2d: Sum(rhs),rhsMax =  -5.73108652595195E+01  1.63148525740204E+00
(PID.TID 0000.0001)  ploadbar=  1.01120790446884E+05
 cg2d: Sum(rhs),rhsMax =  -5.73380857515923E+01  1.63160202440802E+00
(PID.TID 0000.0001)  ploadbar=  1.01119046969737E+05
 cg2d: Sum(rhs),rhsMax =  -5.73777925419454E+01  1.63143425606893E+00
(PID.TID 0000.0001)  ploadbar=  1.01117303492590E+05
 cg2d: Sum(rhs),rhsMax =  -5.74207694758568E+01  1.63112923622456E+00
(PID.TID 0000.0001)  ploadbar=  1.01116071988899E+05
 cg2d: Sum(rhs),rhsMax =  -5.74750796416991E+01  1.63046058094185E+00
(PID.TID 0000.0001)  ploadbar=  1.01114840485209E+05
 cg2d: Sum(rhs),rhsMax =  -5.75402552767568E+01  1.62944313672235E+00
(PID.TID 0000.0001)  ploadbar=  1.01113608981518E+05
 cg2d: Sum(rhs),rhsMax =  -5.76154677945059E+01  1.62809930580715E+00
(PID.TID 0000.0001)  ploadbar=  1.01112377477827E+05
 cg2d: Sum(rhs),rhsMax =  -5.77002891117117E+01  1.62644218134504E+00
(PID.TID 0000.0001)  ploadbar=  1.01111145974137E+05
 cg2d: Sum(rhs),rhsMax =  -5.77932013729621E+01  1.62451740877215E+00
(PID.TID 0000.0001)  ploadbar=  1.01109914470446E+05
 cg2d: Sum(rhs),rhsMax =  -5.78975012029175E+01  1.62233792718794E+00
(PID.TID 0000.0001)  ploadbar=  1.01106933136417E+05
 cg2d: Sum(rhs),rhsMax =  -5.80137023002421E+01  1.61989298489037E+00
(PID.TID 0000.0001)  ploadbar=  1.01103951802388E+05
 cg2d: Sum(rhs),rhsMax =  -5.81384594032391E+01  1.61727669616976E+00
(PID.TID 0000.0001)  ploadbar=  1.01100970468358E+05
 cg2d: Sum(rhs),rhsMax =  -5.82692093039659E+01  1.61456031549698E+00
(PID.TID 0000.0001)  ploadbar=  1.01097989134329E+05
 cg2d: Sum(rhs),rhsMax =  -5.84039967353491E+01  1.61179442050530E+00
(PID.TID 0000.0001)  ploadbar=  1.01095007800300E+05
 cg2d: Sum(rhs),rhsMax =  -5.85408554857797E+01  1.60903191578003E+00
(PID.TID 0000.0001)  ploadbar=  1.01092026466271E+05
 cg2d: Sum(rhs),rhsMax =  -5.86715777614200E+01  1.60635734912469E+00
(PID.TID 0000.0001)  ploadbar=  1.01090978275003E+05
 cg2d: Sum(rhs),rhsMax =  -5.87958028703413E+01  1.60377919858282E+00
(PID.TID 0000.0001)  ploadbar=  1.01089930083735E+05
 cg2d: Sum(rhs),rhsMax =  -5.89132750251887E+01  1.60130256915145E+00
(PID.TID 0000.0001)  ploadbar=  1.01088881892467E+05
 cg2d: Sum(rhs),rhsMax =  -5.90240802356704E+01  1.59892465588725E+00
(PID.TID 0000.0001)  ploadbar=  1.01087833701200E+05
 cg2d: Sum(rhs),rhsMax =  -5.91287248117955E+01  1.59663199060237E+00
(PID.TID 0000.0001)  ploadbar=  1.01086785509932E+05
 cg2d: Sum(rhs),rhsMax =  -5.92274320015389E+01  1.59441915504574E+00
(PID.TID 0000.0001)  ploadbar=  1.01085737318664E+05
 cg2d: Sum(rhs),rhsMax =  -5.93220773864716E+01  1.59240304701948E+00
(PID.TID 0000.0001)  ploadbar=  1.01085895827018E+05
 cg2d: Sum(rhs),rhsMax =  -5.94204709405443E+01  1.59037205102988E+00
(PID.TID 0000.0001)  ploadbar=  1.01086054335372E+05
 cg2d: Sum(rhs),rhsMax =  -5.95215105442411E+01  1.58835494820537E+00
(PID.TID 0000.0001)  ploadbar=  1.01086212843726E+05
 cg2d: Sum(rhs),rhsMax =  -5.96251166321759E+01  1.58635387378988E+00
(PID.TID 0000.0001)  ploadbar=  1.01086371352080E+05
 cg2d: Sum(rhs),rhsMax =  -5.97314855874410E+01  1.58436532348669E+00
(PID.TID 0000.0001)  ploadbar=  1.01086529860433E+05
 cg2d: Sum(rhs),rhsMax =  -5.98402568163093E+01  1.58240029510600E+00
(PID.TID 0000.0001)  ploadbar=  1.01086688368787E+05
 cg2d: Sum(rhs),rhsMax =  -5.99496421520099E+01  1.58041555815779E+00
(PID.TID 0000.0001)  ploadbar=  1.01085783940595E+05
 cg2d: Sum(rhs),rhsMax =  -6.00551565950281E+01  1.57853161341761E+00
(PID.TID 0000.0001)  ploadbar=  1.01084879512403E+05
 cg2d: Sum(rhs),rhsMax =  -6.01555158601048E+01  1.57678641188885E+00
(PID.TID 0000.0001)  ploadbar=  1.01083975084211E+05
 cg2d: Sum(rhs),rhsMax =  -6.02509687543581E+01  1.57517535923349E+00
(PID.TID 0000.0001)  ploadbar=  1.01083070656019E+05
 cg2d: Sum(rhs),rhsMax =  -6.03402658679188E+01  1.57373588997730E+00
(PID.TID 0000.0001)  ploadbar=  1.01082166227827E+05
 cg2d: Sum(rhs),rhsMax =  -6.04224134857109E+01  1.57249363418819E+00
(PID.TID 0000.0001)  ploadbar=  1.01081261799634E+05
 cg2d: Sum(rhs),rhsMax =  -6.05071892069612E+01  1.57122303171148E+00
(PID.TID 0000.0001)  ploadbar=  1.01079810517372E+05
 cg2d: Sum(rhs),rhsMax =  -6.05904936326126E+01  1.57003204009833E+00
(PID.TID 0000.0001)  ploadbar=  1.01078359235110E+05
 cg2d: Sum(rhs),rhsMax =  -6.06726875726259E+01  1.56890975813581E+00
(PID.TID 0000.0001)  ploadbar=  1.01076907952848E+05
 cg2d: Sum(rhs),rhsMax =  -6.07561948670910E+01  1.56779366848868E+00
(PID.TID 0000.0001)  ploadbar=  1.01075456670586E+05
 cg2d: Sum(rhs),rhsMax =  -6.08412386154333E+01  1.56667905680150E+00
(PID.TID 0000.0001)  ploadbar=  1.01074005388324E+05
 cg2d: Sum(rhs),rhsMax =  -6.09281943845265E+01  1.56555675165592E+00
(PID.TID 0000.0001)  ploadbar=  1.01072554106062E+05
 cg2d: Sum(rhs),rhsMax =  -6.10200279670970E+01  1.56420952355116E+00
(PID.TID 0000.0001)  ploadbar=  1.01071922237422E+05
 cg2d: Sum(rhs),rhsMax =  -6.11063587857235E+01  1.56290483224810E+00
(PID.TID 0000.0001)  ploadbar=  1.01071290368782E+05
 cg2d: Sum(rhs),rhsMax =  -6.11871485349103E+01  1.56164450887439E+00
(PID.TID 0000.0001)  ploadbar=  1.01070658500141E+05
 cg2d: Sum(rhs),rhsMax =  -6.12635252746383E+01  1.56040085483114E+00
(PID.TID 0000.0001)  ploadbar=  1.01070026631501E+05
 cg2d: Sum(rhs),rhsMax =  -6.13352496301232E+01  1.55918313259080E+00
(PID.TID 0000.0001)  ploadbar=  1.01069394762861E+05
 cg2d: Sum(rhs),rhsMax =  -6.14026612023346E+01  1.55798264180866E+00
(PID.TID 0000.0001)  ploadbar=  1.01068762894220E+05
 cg2d: Sum(rhs),rhsMax =  -6.14695532399442E+01  1.55687179996374E+00
(PID.TID 0000.0001)  ploadbar=  1.01068452414673E+05
 cg2d: Sum(rhs),rhsMax =  -6.13277811903307E+01  1.56112923258721E+00
(PID.TID 0000.0001)  ploadbar=  1.01068141935125E+05
 cg2d: Sum(rhs),rhsMax =  -6.04747517811973E+01  1.58389144119223E+00
(PID.TID 0000.0001)  ploadbar=  1.01067831455578E+05
 cg2d: Sum(rhs),rhsMax =  -5.96450119848908E+01  1.60675184378218E+00
(PID.TID 0000.0001)  ploadbar=  1.01067520976030E+05
 cg2d: Sum(rhs),rhsMax =  -5.88393813404052E+01  1.62966348807815E+00
(PID.TID 0000.0001)  ploadbar=  1.01067210496483E+05
 cg2d: Sum(rhs),rhsMax =  -5.80585051233464E+01  1.65258232139927E+00
(PID.TID 0000.0001)  ploadbar=  1.01066900016935E+05
 cg2d: Sum(rhs),rhsMax =  -5.73148347848688E+01  1.67502065994310E+00
(PID.TID 0000.0001)  ploadbar=  1.01067159477641E+05
 cg2d: Sum(rhs),rhsMax =  -5.66004537124744E+01  1.69715488398099E+00
(PID.TID 0000.0001)  ploadbar=  1.01067418938346E+05
 cg2d: Sum(rhs),rhsMax =  -5.59087163668307E+01  1.71914919743447E+00
(PID.TID 0000.0001)  ploadbar=  1.01067678399051E+05
 cg2d: Sum(rhs),rhsMax =  -5.52376547220846E+01  1.74103813692368E+00
(PID.TID 0000.0001)  ploadbar=  1.01067937859756E+05
 cg2d: Sum(rhs),rhsMax =  -5.45819440837006E+01  1.76296741303382E+00
(PID.TID 0000.0001)  ploadbar=  1.01068197320462E+05
 cg2d: Sum(rhs),rhsMax =  -5.39383761157530E+01  1.78502259456642E+00
(PID.TID 0000.0001)  ploadbar=  1.01068456781167E+05
 cg2d: Sum(rhs),rhsMax =  -5.33380847105181E+01  1.80623522009420E+00
(PID.TID 0000.0001)  ploadbar=  1.01068522016617E+05
 cg2d: Sum(rhs),rhsMax =  -5.27595254888356E+01  1.82726784778095E+00
(PID.TID 0000.0001)  ploadbar=  1.01068587252067E+05
 cg2d: Sum(rhs),rhsMax =  -5.22308363417358E+01  1.84709585332588E+00
(PID.TID 0000.0001)  ploadbar=  1.01068652487518E+05
 cg2d: Sum(rhs),rhsMax =  -5.17652310118521E+01  1.86515001559042E+00
(PID.TID 0000.0001)  ploadbar=  1.01068717722968E+05
 cg2d: Sum(rhs),rhsMax =  -5.13643618713047E+01  1.88125612655224E+00
(PID.TID 0000.0001)  ploadbar=  1.01068782958418E+05
 cg2d: Sum(rhs),rhsMax =  -5.10295291032115E+01  1.89525840307261E+00
(PID.TID 0000.0001)  ploadbar=  1.01068848193868E+05
 cg2d: Sum(rhs),rhsMax =  -5.07740857780244E+01  1.90631736247269E+00
(PID.TID 0000.0001)  ploadbar=  1.01069903721491E+05
 cg2d: Sum(rhs),rhsMax =  -5.05912559999265E+01  1.91459382712972E+00
(PID.TID 0000.0001)  ploadbar=  1.01070959249113E+05
 cg2d: Sum(rhs),rhsMax =  -5.04843349070923E+01  1.91989823109727E+00
(PID.TID 0000.0001)  ploadbar=  1.01072014776735E+05
 cg2d: Sum(rhs),rhsMax =  -5.04494352752428E+01  1.92233854403158E+00
(PID.TID 0000.0001)  ploadbar=  1.01073070304357E+05
 cg2d: Sum(rhs),rhsMax =  -5.04834559952267E+01  1.92201919489268E+00
(PID.TID 0000.0001)  ploadbar=  1.01074125831979E+05
 cg2d: Sum(rhs),rhsMax =  -5.05421740912162E+01  1.92062753223237E+00
(PID.TID 0000.0001)  ploadbar=  1.01075181359601E+05
 cg2d: Sum(rhs),rhsMax =  -5.06380222066271E+01  1.91787961025339E+00
(PID.TID 0000.0001)  ploadbar=  1.01077198514796E+05
 cg2d: Sum(rhs),rhsMax =  -5.09241139073302E+01  1.90803215291062E+00
(PID.TID 0000.0001)  ploadbar=  1.01079215669990E+05
 cg2d: Sum(rhs),rhsMax =  -5.13418259924046E+01  1.89347177068222E+00
(PID.TID 0000.0001)  ploadbar=  1.01081232825185E+05
 cg2d: Sum(rhs),rhsMax =  -5.18647590485506E+01  1.87537924173448E+00
(PID.TID 0000.0001)  ploadbar=  1.01083249980379E+05
 cg2d: Sum(rhs),rhsMax =  -5.24775189212697E+01  1.85451326369581E+00
(PID.TID 0000.0001)  ploadbar=  1.01085267135574E+05
 cg2d: Sum(rhs),rhsMax =  -5.31746822789032E+01  1.83126153351662E+00
(PID.TID 0000.0001)  ploadbar=  1.01087284290768E+05
 cg2d: Sum(rhs),rhsMax =  -5.38528390617377E+01  1.80919321468482E+00
(PID.TID 0000.0001)  ploadbar=  1.01088210007314E+05
 cg2d: Sum(rhs),rhsMax =  -5.44955182701336E+01  1.78878554635345E+00
(PID.TID 0000.0001)  ploadbar=  1.01089135723860E+05
 cg2d: Sum(rhs),rhsMax =  -5.51047155788996E+01  1.76988282446003E+00
(PID.TID 0000.0001)  ploadbar=  1.01090061440407E+05
 cg2d: Sum(rhs),rhsMax =  -5.56804287037955E+01  1.75240942598214E+00
(PID.TID 0000.0001)  ploadbar=  1.01090987156953E+05
 cg2d: Sum(rhs),rhsMax =  -5.62263208380071E+01  1.73617683688036E+00
(PID.TID 0000.0001)  ploadbar=  1.01091912873499E+05
 cg2d: Sum(rhs),rhsMax =  -5.67335731495653E+01  1.72138870878345E+00
(PID.TID 0000.0001)  ploadbar=  1.01092838590045E+05
 cg2d: Sum(rhs),rhsMax =  -5.71845771701068E+01  1.70861129044034E+00
(PID.TID 0000.0001)  ploadbar=  1.01093372586079E+05
 cg2d: Sum(rhs),rhsMax =  -5.75866721939150E+01  1.69754300225507E+00
(PID.TID 0000.0001)  ploadbar=  1.01093906582113E+05
 cg2d: Sum(rhs),rhsMax =  -5.80134327281860E+01  1.68597942578512E+00
(PID.TID 0000.0001)  ploadbar=  1.01094440578147E+05
 cg2d: Sum(rhs),rhsMax =  -5.84331671825622E+01  1.67485370860777E+00
(PID.TID 0000.0001)  ploadbar=  1.01094974574181E+05
 cg2d: Sum(rhs),rhsMax =  -5.88286213019883E+01  1.66463994841027E+00
(PID.TID 0000.0001)  ploadbar=  1.01095508570215E+05
 cg2d: Sum(rhs),rhsMax =  -5.91972969709096E+01  1.65537598127915E+00
(PID.TID 0000.0001)  ploadbar=  1.01096042566249E+05
 cg2d: Sum(rhs),rhsMax =  -5.95411873596354E+01  1.64684342202909E+00
(PID.TID 0000.0001)  ploadbar=  1.01096870673215E+05
 cg2d: Sum(rhs),rhsMax =  -5.98615629421805E+01  1.63898440931626E+00
(PID.TID 0000.0001)  ploadbar=  1.01097698780181E+05
 cg2d: Sum(rhs),rhsMax =  -6.01558462533243E+01  1.63185360445494E+00
(PID.TID 0000.0001)  ploadbar=  1.01098526887147E+05
 cg2d: Sum(rhs),rhsMax =  -6.04262470487806E+01  1.62537604530285E+00
(PID.TID 0000.0001)  ploadbar=  1.01099354994113E+05
 cg2d: Sum(rhs),rhsMax =  -6.06743714050682E+01  1.61949594140196E+00
(PID.TID 0000.0001)  ploadbar=  1.01100183101079E+05
 cg2d: Sum(rhs),rhsMax =  -6.09011006675414E+01  1.61417999340876E+00
(PID.TID 0000.0001)  ploadbar=  1.01101011208045E+05
 cg2d: Sum(rhs),rhsMax =  -6.10745522591680E+01  1.61035217849819E+00
(PID.TID 0000.0001)  ploadbar=  1.01102741562178E+05
 cg2d: Sum(rhs),rhsMax =  -6.12162980579512E+01  1.60742289043230E+00
(PID.TID 0000.0001)  ploadbar=  1.01104471916311E+05
 cg2d: Sum(rhs),rhsMax =  -6.13716239550543E+01  1.60419689302083E+00
(PID.TID 0000.0001)  ploadbar=  1.01106202270444E+05
 cg2d: Sum(rhs),rhsMax =  -6.15341955776549E+01  1.60084413603828E+00
(PID.TID 0000.0001)  ploadbar=  1.01107932624577E+05
 cg2d: Sum(rhs),rhsMax =  -6.16992762850481E+01  1.59749049238706E+00
(PID.TID 0000.0001)  ploadbar=  1.01109662978710E+05
 cg2d: Sum(rhs),rhsMax =  -6.18665876103586E+01  1.59414563954681E+00
(PID.TID 0000.0001)  ploadbar=  1.01111393332843E+05
 cg2d: Sum(rhs),rhsMax =  -6.20349846342286E+01  1.59077944206927E+00
(PID.TID 0000.0001)  ploadbar=  1.01111949743183E+05
 cg2d: Sum(rhs),rhsMax =  -6.22111557604927E+01  1.58722800159931E+00
(PID.TID 0000.0001)  ploadbar=  1.01112506153524E+05
 cg2d: Sum(rhs),rhsMax =  -6.23935151221391E+01  1.58354141592771E+00
(PID.TID 0000.0001)  ploadbar=  1.01113062563864E+05
 cg2d: Sum(rhs),rhsMax =  -6.25840758694565E+01  1.57967351911680E+00
(PID.TID 0000.0001)  ploadbar=  1.01113618974204E+05
 cg2d: Sum(rhs),rhsMax =  -6.27779893823229E+01  1.57575019095373E+00
(PID.TID 0000.0001)  ploadbar=  1.01114175384545E+05
 cg2d: Sum(rhs),rhsMax =  -6.29688263739028E+01  1.57193395414742E+00
(PID.TID 0000.0001)  ploadbar=  1.01114731794885E+05
 cg2d: Sum(rhs),rhsMax =  -6.31319044515333E+01  1.56887560185759E+00
(PID.TID 0000.0001)  ploadbar=  1.01114458854136E+05
 cg2d: Sum(rhs),rhsMax =  -6.32886507703057E+01  1.56603604421454E+00
(PID.TID 0000.0001)  ploadbar=  1.01114185913386E+05
 cg2d: Sum(rhs),rhsMax =  -6.34375323885564E+01  1.56345095670062E+00
(PID.TID 0000.0001)  ploadbar=  1.01113912972637E+05
 cg2d: Sum(rhs),rhsMax =  -6.35760490649509E+01  1.56117930350498E+00
(PID.TID 0000.0001)  ploadbar=  1.01113640031888E+05
 cg2d: Sum(rhs),rhsMax =  -6.37034240282540E+01  1.55923691607775E+00
(PID.TID 0000.0001)  ploadbar=  1.01113367091138E+05
 cg2d: Sum(rhs),rhsMax =  -6.38206363572495E+01  1.55759572932481E+00
(PID.TID 0000.0001)  ploadbar=  1.01113094150389E+05
 cg2d: Sum(rhs),rhsMax =  -6.39243111808727E+01  1.55622387605433E+00
(PID.TID 0000.0001)  ploadbar=  1.01112241067451E+05
 cg2d: Sum(rhs),rhsMax =  -6.40250715477679E+01  1.55486160650411E+00
(PID.TID 0000.0001)  ploadbar=  1.01111387984513E+05
 cg2d: Sum(rhs),rhsMax =  -6.41321949646132E+01  1.55328472879108E+00
(PID.TID 0000.0001)  ploadbar=  1.01110534901575E+05
 cg2d: Sum(rhs),rhsMax =  -6.42456694469613E+01  1.55149557537810E+00
(PID.TID 0000.0001)  ploadbar=  1.01109681818637E+05
 cg2d: Sum(rhs),rhsMax =  -6.43613829334511E+01  1.54959667244203E+00
(PID.TID 0000.0001)  ploadbar=  1.01108828735699E+05
 cg2d: Sum(rhs),rhsMax =  -6.44755787268554E+01  1.54767828978479E+00
(PID.TID 0000.0001)  ploadbar=  1.01107975652762E+05
 cg2d: Sum(rhs),rhsMax =  -6.45643126217509E+01  1.54644225652034E+00
(PID.TID 0000.0001)  ploadbar=  1.01107176299239E+05
 cg2d: Sum(rhs),rhsMax =  -6.46368583980283E+01  1.54566254807065E+00
(PID.TID 0000.0001)  ploadbar=  1.01106376945716E+05
 cg2d: Sum(rhs),rhsMax =  -6.46860480638669E+01  1.54550977934446E+00
(PID.TID 0000.0001)  ploadbar=  1.01105577592193E+05
 cg2d: Sum(rhs),rhsMax =  -6.47030034940691E+01  1.54619721264477E+00
(PID.TID 0000.0001)  ploadbar=  1.01104778238671E+05
 cg2d: Sum(rhs),rhsMax =  -6.46796791918607E+01  1.54791876414874E+00
(PID.TID 0000.0001)  ploadbar=  1.01103978885148E+05
 cg2d: Sum(rhs),rhsMax =  -6.46075376998129E+01  1.55088399553861E+00
(PID.TID 0000.0001)  ploadbar=  1.01103179531625E+05
 cg2d: Sum(rhs),rhsMax =  -6.44707192389201E+01  1.55536072727341E+00
(PID.TID 0000.0001)  ploadbar=  1.01102663006294E+05
 cg2d: Sum(rhs),rhsMax =  -6.43089935322278E+01  1.56041224144585E+00
(PID.TID 0000.0001)  ploadbar=  1.01102146480964E+05
 cg2d: Sum(rhs),rhsMax =  -6.41521106493508E+01  1.56532805383557E+00
(PID.TID 0000.0001)  ploadbar=  1.01101629955633E+05
 cg2d: Sum(rhs),rhsMax =  -6.40317565234960E+01  1.56933075586754E+00
(PID.TID 0000.0001)  ploadbar=  1.01101113430302E+05
 cg2d: Sum(rhs),rhsMax =  -6.37110767438756E+01  1.57825787678168E+00
(PID.TID 0000.0001)  ploadbar=  1.01100596904971E+05
 cg2d: Sum(rhs),rhsMax =  -6.33746940954035E+01  1.58762976258218E+00
(PID.TID 0000.0001)  ploadbar=  1.01100080379640E+05
 cg2d: Sum(rhs),rhsMax =  -6.30030972469578E+01  1.59804797629694E+00
(PID.TID 0000.0001)  ploadbar=  1.01099658312403E+05
 cg2d: Sum(rhs),rhsMax =  -6.25714671490176E+01  1.61018668327825E+00
(PID.TID 0000.0001)  ploadbar=  1.01099236245166E+05
 cg2d: Sum(rhs),rhsMax =  -6.09443392035825E+01  1.65437678948602E+00
(PID.TID 0000.0001)  ploadbar=  1.01098814177928E+05
 cg2d: Sum(rhs),rhsMax =  -5.90019269590301E+01  1.71013923420508E+00
(PID.TID 0000.0001)  ploadbar=  1.01098392110691E+05
 cg2d: Sum(rhs),rhsMax =  -5.72618084988802E+01  1.76350812606761E+00
(PID.TID 0000.0001)  ploadbar=  1.01097970043454E+05
 cg2d: Sum(rhs),rhsMax =  -5.57094746470980E+01  1.81415239557825E+00
(PID.TID 0000.0001)  ploadbar=  1.01097547976217E+05
 cg2d: Sum(rhs),rhsMax =  -5.44079678026944E+01  1.85903454881341E+00
(PID.TID 0000.0001)  ploadbar=  1.01096505994592E+05
 cg2d: Sum(rhs),rhsMax =  -5.32063351429753E+01  1.90248526567954E+00
(PID.TID 0000.0001)  ploadbar=  1.01095464012967E+05
 cg2d: Sum(rhs),rhsMax =  -5.20762808303252E+01  1.94521282292862E+00
(PID.TID 0000.0001)  ploadbar=  1.01094422031342E+05
 cg2d: Sum(rhs),rhsMax =  -5.09843776341487E+01  1.98829390411468E+00
(PID.TID 0000.0001)  ploadbar=  1.01093380049717E+05
 cg2d: Sum(rhs),rhsMax =  -4.99007258505625E+01  2.03287315157262E+00
(PID.TID 0000.0001)  ploadbar=  1.01092338068093E+05
 cg2d: Sum(rhs),rhsMax =  -4.89115869935020E+01  2.07535970401383E+00
(PID.TID 0000.0001)  ploadbar=  1.01091296086468E+05
 cg2d: Sum(rhs),rhsMax =  -4.82052526729044E+01  2.10721438312880E+00
(PID.TID 0000.0001)  ploadbar=  1.01091188720048E+05
 cg2d: Sum(rhs),rhsMax =  -4.78036932583449E+01  2.12642108410182E+00
(PID.TID 0000.0001)  ploadbar=  1.01091081353628E+05
 cg2d: Sum(rhs),rhsMax =  -4.76438558944320E+01  2.13511467031617E+00
(PID.TID 0000.0001)  ploadbar=  1.01090973987208E+05
 cg2d: Sum(rhs),rhsMax =  -4.80703666139425E+01  2.11776694743942E+00
(PID.TID 0000.0001)  ploadbar=  1.01090866620788E+05
 cg2d: Sum(rhs),rhsMax =  -4.92873259439939E+01  2.06707933013395E+00
(PID.TID 0000.0001)  ploadbar=  1.01090759254369E+05
 cg2d: Sum(rhs),rhsMax =  -5.04007978313873E+01  2.02302358731384E+00
(PID.TID 0000.0001)  ploadbar=  1.01090651887949E+05
 cg2d: Sum(rhs),rhsMax =  -5.13399560345946E+01  1.98754747909951E+00
(PID.TID 0000.0001)  ploadbar=  1.01091005796785E+05
 cg2d: Sum(rhs),rhsMax =  -5.22240231509067E+01  1.95536203196342E+00
(PID.TID 0000.0001)  ploadbar=  1.01091359705621E+05
 cg2d: Sum(rhs),rhsMax =  -5.30712068641231E+01  1.92554359786452E+00
(PID.TID 0000.0001)  ploadbar=  1.01091713614457E+05
 cg2d: Sum(rhs),rhsMax =  -5.38835443306978E+01  1.89784986593053E+00
(PID.TID 0000.0001)  ploadbar=  1.01092067523293E+05
 cg2d: Sum(rhs),rhsMax =  -5.21905365018555E+01  1.96075266470436E+00
(PID.TID 0000.0001)  ploadbar=  1.01092421432129E+05
 cg2d: Sum(rhs),rhsMax =  -5.08120564839965E+01  2.01528060827226E+00
(PID.TID 0000.0001)  ploadbar=  1.01092775340965E+05
 cg2d: Sum(rhs),rhsMax =  -5.02496662816744E+01  2.03922004361519E+00
(PID.TID 0000.0001)  ploadbar=  1.01093195952812E+05
 cg2d: Sum(rhs),rhsMax =  -5.03621734333108E+01  2.03608083344932E+00
(PID.TID 0000.0001)  ploadbar=  1.01093616564659E+05
 cg2d: Sum(rhs),rhsMax =  -5.10570449687184E+01  2.00980016044101E+00
(PID.TID 0000.0001)  ploadbar=  1.01094037176505E+05
 cg2d: Sum(rhs),rhsMax =  -5.18626628280502E+01  1.98002192249514E+00
(PID.TID 0000.0001)  ploadbar=  1.01094457788352E+05
 cg2d: Sum(rhs),rhsMax =  -5.26666047349803E+01  1.95125021593204E+00
(PID.TID 0000.0001)  ploadbar=  1.01094878400199E+05
 cg2d: Sum(rhs),rhsMax =  -5.34119422116085E+01  1.92548587530831E+00
(PID.TID 0000.0001)  ploadbar=  1.01095299012046E+05
 cg2d: Sum(rhs),rhsMax =  -5.40064347915916E+01  1.90566551663170E+00
(PID.TID 0000.0001)  ploadbar=  1.01094961351838E+05
 cg2d: Sum(rhs),rhsMax =  -5.45202645064938E+01  1.88899531321354E+00
(PID.TID 0000.0001)  ploadbar=  1.01094623691631E+05
 cg2d: Sum(rhs),rhsMax =  -5.49719236113876E+01  1.87468428920664E+00
(PID.TID 0000.0001)  ploadbar=  1.01094286031424E+05
 cg2d: Sum(rhs),rhsMax =  -5.53995338436720E+01  1.86134660140177E+00
(PID.TID 0000.0001)  ploadbar=  1.01093948371216E+05
 cg2d: Sum(rhs),rhsMax =  -5.58898943846532E+01  1.84607059439301E+00
(PID.TID 0000.0001)  ploadbar=  1.01093610711009E+05
 cg2d: Sum(rhs),rhsMax =  -5.64779703200671E+01  1.82782317199961E+00
(PID.TID 0000.0001)  ploadbar=  1.01093273050802E+05
 cg2d: Sum(rhs),rhsMax =  -5.71330070793179E+01  1.80788082943808E+00
(PID.TID 0000.0001)  ploadbar=  1.01094350026331E+05
 cg2d: Sum(rhs),rhsMax =  -5.75355964820529E+01  1.79628672333056E+00
(PID.TID 0000.0001)  ploadbar=  1.01095427001860E+05
 cg2d: Sum(rhs),rhsMax =  -5.70422388046431E+01  1.81293466970126E+00
(PID.TID 0000.0001)  ploadbar=  1.01096503977390E+05
 cg2d: Sum(rhs),rhsMax =  -5.66352735645541E+01  1.82712776668212E+00
(PID.TID 0000.0001)  ploadbar=  1.01097580952919E+05
 cg2d: Sum(rhs),rhsMax =  -5.63186802298963E+01  1.83861736883595E+00
(PID.TID 0000.0001)  ploadbar=  1.01098657928449E+05
 cg2d: Sum(rhs),rhsMax =  -5.60892443020316E+01  1.84740563464998E+00
(PID.TID 0000.0001)  ploadbar=  1.01099734903978E+05
 cg2d: Sum(rhs),rhsMax =  -5.58593299509035E+01  1.85625570766407E+00
(PID.TID 0000.0001)  ploadbar=  1.01099760582590E+05
 cg2d: Sum(rhs),rhsMax =  -5.56517939499498E+01  1.86440608996208E+00
(PID.TID 0000.0001)  ploadbar=  1.01099786261202E+05
 cg2d: Sum(rhs),rhsMax =  -5.54665408699752E+01  1.87184771830311E+00
(PID.TID 0000.0001)  ploadbar=  1.01099811939814E+05
 cg2d: Sum(rhs),rhsMax =  -5.52760765311661E+01  1.87949757706718E+00
(PID.TID 0000.0001)  ploadbar=  1.01099837618426E+05
 cg2d: Sum(rhs),rhsMax =  -5.50666604065852E+01  1.88783025991529E+00
(PID.TID 0000.0001)  ploadbar=  1.01099863297038E+05
 cg2d: Sum(rhs),rhsMax =  -5.48298769191024E+01  1.89715417333262E+00
(PID.TID 0000.0001)  ploadbar=  1.01099888975651E+05
 cg2d: Sum(rhs),rhsMax =  -5.45361213817891E+01  1.90858627904939E+00
(PID.TID 0000.0001)  ploadbar=  1.01099702918318E+05
 cg2d: Sum(rhs),rhsMax =  -5.41834004394651E+01  1.92227140957141E+00
(PID.TID 0000.0001)  ploadbar=  1.01099516860985E+05
 cg2d: Sum(rhs),rhsMax =  -5.37783759847372E+01  1.93805852674120E+00
(PID.TID 0000.0001)  ploadbar=  1.01099330803652E+05
 cg2d: Sum(rhs),rhsMax =  -5.33243268861942E+01  1.95592085781258E+00
(PID.TID 0000.0001)  ploadbar=  1.01099144746319E+05
 cg2d: Sum(rhs),rhsMax =  -5.28253877729329E+01  1.97580961191844E+00
(PID.TID 0000.0001)  ploadbar=  1.01098958688985E+05
 cg2d: Sum(rhs),rhsMax =  -5.22877822564656E+01  1.99759750045527E+00
(PID.TID 0000.0001)  ploadbar=  1.01098772631652E+05
 cg2d: Sum(rhs),rhsMax =  -5.17587560728749E+01  2.01945583981004E+00
(PID.TID 0000.0001)  ploadbar=  1.01099451948385E+05
 cg2d: Sum(rhs),rhsMax =  -5.12297498746375E+01  2.04171293976956E+00
(PID.TID 0000.0001)  ploadbar=  1.01100131265117E+05
 cg2d: Sum(rhs),rhsMax =  -5.07107368607298E+01  2.06397802106728E+00
(PID.TID 0000.0001)  ploadbar=  1.01100810581850E+05
 cg2d: Sum(rhs),rhsMax =  -5.02394067778938E+01  2.08467317594810E+00
(PID.TID 0000.0001)  ploadbar=  1.01101489898582E+05
 cg2d: Sum(rhs),rhsMax =  -4.98390643449895E+01  2.10271116644770E+00
(PID.TID 0000.0001)  ploadbar=  1.01102169215314E+05
 cg2d: Sum(rhs),rhsMax =  -4.95184631014714E+01  2.11757327940187E+00
(PID.TID 0000.0001)  ploadbar=  1.01102848532047E+05
 cg2d: Sum(rhs),rhsMax =  -4.93066547079909E+01  2.12798285820792E+00
(PID.TID 0000.0001)  ploadbar=  1.01103152329438E+05
 cg2d: Sum(rhs),rhsMax =  -4.91824070316931E+01  2.13473394719668E+00
(PID.TID 0000.0001)  ploadbar=  1.01103456126830E+05
 cg2d: Sum(rhs),rhsMax =  -4.91306326754063E+01  2.13841826394378E+00
(PID.TID 0000.0001)  ploadbar=  1.01103759924222E+05
 cg2d: Sum(rhs),rhsMax =  -4.92218100959696E+01  2.13594498329707E+00
(PID.TID 0000.0001)  ploadbar=  1.01104063721614E+05
 cg2d: Sum(rhs),rhsMax =  -4.95168519180436E+01  2.12475452898236E+00
(PID.TID 0000.0001)  ploadbar=  1.01104367519006E+05
 cg2d: Sum(rhs),rhsMax =  -4.99805133910152E+01  2.10662303270346E+00
(PID.TID 0000.0001)  ploadbar=  1.01104671316398E+05
 cg2d: Sum(rhs),rhsMax =  -5.04215086514079E+01  2.08976565027501E+00
(PID.TID 0000.0001)  ploadbar=  1.01104487671199E+05
 cg2d: Sum(rhs),rhsMax =  -5.08498505736888E+01  2.07372087972559E+00
(PID.TID 0000.0001)  ploadbar=  1.01104304026000E+05
 cg2d: Sum(rhs),rhsMax =  -5.12553641252469E+01  2.05886893099508E+00
(PID.TID 0000.0001)  ploadbar=  1.01104120380801E+05
 cg2d: Sum(rhs),rhsMax =  -5.16275923319817E+01  2.04557482953652E+00
(PID.TID 0000.0001)  ploadbar=  1.01103936735602E+05
 cg2d: Sum(rhs),rhsMax =  -5.19709541161367E+01  2.03360748583622E+00
(PID.TID 0000.0001)  ploadbar=  1.01103753090403E+05
 cg2d: Sum(rhs),rhsMax =  -5.22833129783127E+01  2.02300271889056E+00
(PID.TID 0000.0001)  ploadbar=  1.01103569445204E+05
 cg2d: Sum(rhs),rhsMax =  -5.25535263206638E+01  2.01418643526717E+00
(PID.TID 0000.0001)  ploadbar=  1.01103192413891E+05
 cg2d: Sum(rhs),rhsMax =  -5.28016063609674E+01  2.00634900451573E+00
(PID.TID 0000.0001)  ploadbar=  1.01102815382579E+05
 cg2d: Sum(rhs),rhsMax =  -5.30255654876359E+01  1.99954185481742E+00
(PID.TID 0000.0001)  ploadbar=  1.01102438351266E+05
 cg2d: Sum(rhs),rhsMax =  -5.32289154723284E+01  1.99360843603597E+00
(PID.TID 0000.0001)  ploadbar=  1.01102061319953E+05
 cg2d: Sum(rhs),rhsMax =  -5.34151915523856E+01  1.98840004636758E+00
(PID.TID 0000.0001)  ploadbar=  1.01101684288641E+05
 cg2d: Sum(rhs),rhsMax =  -5.35873560134602E+01  1.98379371948066E+00
(PID.TID 0000.0001)  ploadbar=  1.01101307257328E+05
 cg2d: Sum(rhs),rhsMax =  -5.37248843743533E+01  1.98039340937087E+00
(PID.TID 0000.0001)  ploadbar=  1.01100994505835E+05
 cg2d: Sum(rhs),rhsMax =  -5.38606081645215E+01  1.97697629413114E+00
(PID.TID 0000.0001)  ploadbar=  1.01100681754343E+05
 cg2d: Sum(rhs),rhsMax =  -5.39916572025392E+01  1.97364776002070E+00
(PID.TID 0000.0001)  ploadbar=  1.01100369002850E+05
 cg2d: Sum(rhs),rhsMax =  -5.41189203205068E+01  1.97037403371477E+00
(PID.TID 0000.0001)  ploadbar=  1.01100056251357E+05
 cg2d: Sum(rhs),rhsMax =  -5.42412250333699E+01  1.96719653004037E+00
(PID.TID 0000.0001)  ploadbar=  1.01099743499864E+05
 cg2d: Sum(rhs),rhsMax =  -5.43564434894788E+01  1.96418768108076E+00
(PID.TID 0000.0001)  ploadbar=  1.01099430748371E+05
 cg2d: Sum(rhs),rhsMax =  -5.44873513206112E+01  1.96065987205913E+00
(PID.TID 0000.0001)  ploadbar=  1.01099674921917E+05
 cg2d: Sum(rhs),rhsMax =  -5.46216841692764E+01  1.95705822387637E+00
(PID.TID 0000.0001)  ploadbar=  1.01099919095463E+05
 cg2d: Sum(rhs),rhsMax =  -5.47597323229838E+01  1.95337410275593E+00
(PID.TID 0000.0001)  ploadbar=  1.01100163269008E+05
 cg2d: Sum(rhs),rhsMax =  -5.48999224224948E+01  1.94966685004249E+00
(PID.TID 0000.0001)  ploadbar=  1.01100407442554E+05
 cg2d: Sum(rhs),rhsMax =  -5.50429394526967E+01  1.94591055095702E+00
(PID.TID 0000.0001)  ploadbar=  1.01100651616100E+05
 cg2d: Sum(rhs),rhsMax =  -5.51892608866720E+01  1.94209088656278E+00
(PID.TID 0000.0001)  ploadbar=  1.01100895789645E+05
 cg2d: Sum(rhs),rhsMax =  -5.53081999818299E+01  1.93923300029270E+00
(PID.TID 0000.0001)  ploadbar=  1.01100607174328E+05
 cg2d: Sum(rhs),rhsMax =  -5.54319233707672E+01  1.93620549930249E+00
(PID.TID 0000.0001)  ploadbar=  1.01100318559010E+05
 cg2d: Sum(rhs),rhsMax =  -5.55604930320781E+01  1.93301081938228E+00
(PID.TID 0000.0001)  ploadbar=  1.01100029943692E+05
 cg2d: Sum(rhs),rhsMax =  -5.56915756466783E+01  1.92973219517005E+00
(PID.TID 0000.0001)  ploadbar=  1.01099741328374E+05
 cg2d: Sum(rhs),rhsMax =  -5.58241995905528E+01  1.92640313292636E+00
(PID.TID 0000.0001)  ploadbar=  1.01099452713057E+05
 cg2d: Sum(rhs),rhsMax =  -5.59559817183702E+01  1.92310372290007E+00
(PID.TID 0000.0001)  ploadbar=  1.01099164097739E+05
 cg2d: Sum(rhs),rhsMax =  -5.60791113771011E+01  1.92014583967800E+00
(PID.TID 0000.0001)  ploadbar=  1.01098499160666E+05
 cg2d: Sum(rhs),rhsMax =  -5.61998200108479E+01  1.91731853050171E+00
(PID.TID 0000.0001)  ploadbar=  1.01097834223592E+05
 cg2d: Sum(rhs),rhsMax =  -5.63247050001951E+01  1.91439654333797E+00
(PID.TID 0000.0001)  ploadbar=  1.01097169286519E+05
 cg2d: Sum(rhs),rhsMax =  -5.64479858606443E+01  1.91157445609246E+00
(PID.TID 0000.0001)  ploadbar=  1.01096504349445E+05
 cg2d: Sum(rhs),rhsMax =  -5.65674202976890E+01  1.90892510683628E+00
(PID.TID 0000.0001)  ploadbar=  1.01095839412372E+05
 cg2d: Sum(rhs),rhsMax =  -5.66813017167429E+01  1.90650220532572E+00
(PID.TID 0000.0001)  ploadbar=  1.01095174475298E+05
 cg2d: Sum(rhs),rhsMax =  -5.67966778108037E+01  1.90397865727650E+00
(PID.TID 0000.0001)  ploadbar=  1.01094349269527E+05
 cg2d: Sum(rhs),rhsMax =  -5.68950974551436E+01  1.90197089653078E+00
(PID.TID 0000.0001)  ploadbar=  1.01093524063756E+05
 cg2d: Sum(rhs),rhsMax =  -5.69813681036914E+01  1.90031273068551E+00
(PID.TID 0000.0001)  ploadbar=  1.01092698857985E+05
 cg2d: Sum(rhs),rhsMax =  -5.70523721607020E+01  1.89910447455501E+00
(PID.TID 0000.0001)  ploadbar=  1.01091873652214E+05
 cg2d: Sum(rhs),rhsMax =  -5.71056120887410E+01  1.89842484524431E+00
(PID.TID 0000.0001)  ploadbar=  1.01091048446443E+05
 cg2d: Sum(rhs),rhsMax =  -5.71423268069331E+01  1.89823110514547E+00
(PID.TID 0000.0001)  ploadbar=  1.01090223240672E+05
 cg2d: Sum(rhs),rhsMax =  -5.71860044347892E+01  1.89783806504802E+00
(PID.TID 0000.0001)  ploadbar=  1.01089888669173E+05
 cg2d: Sum(rhs),rhsMax =  -5.72241066170355E+01  1.89766037760824E+00
(PID.TID 0000.0001)  ploadbar=  1.01089554097673E+05
 cg2d: Sum(rhs),rhsMax =  -5.72643555738447E+01  1.89744146760767E+00
(PID.TID 0000.0001)  ploadbar=  1.01089219526174E+05
 cg2d: Sum(rhs),rhsMax =  -5.73071676916404E+01  1.89716522369082E+00
(PID.TID 0000.0001)  ploadbar=  1.01088884954674E+05
 cg2d: Sum(rhs),rhsMax =  -5.73498948956693E+01  1.89691914734688E+00
(PID.TID 0000.0001)  ploadbar=  1.01088550383174E+05
 cg2d: Sum(rhs),rhsMax =  -5.73923766513320E+01  1.89670952361247E+00
(PID.TID 0000.0001)  ploadbar=  1.01088215811675E+05
 cg2d: Sum(rhs),rhsMax =  -5.74169366024613E+01  1.89710482713380E+00
(PID.TID 0000.0001)  ploadbar=  1.01087936964859E+05
 cg2d: Sum(rhs),rhsMax =  -5.74464432392209E+01  1.89735014732643E+00
(PID.TID 0000.0001)  ploadbar=  1.01087658118044E+05
 cg2d: Sum(rhs),rhsMax =  -5.74794396962142E+01  1.89749379549184E+00
(PID.TID 0000.0001)  ploadbar=  1.01087379271228E+05
 cg2d: Sum(rhs),rhsMax =  -5.75217669392867E+01  1.89734231140981E+00
(PID.TID 0000.0001)  ploadbar=  1.01087100424412E+05
 cg2d: Sum(rhs),rhsMax =  -5.75735629013184E+01  1.89688915464355E+00
(PID.TID 0000.0001)  ploadbar=  1.01086821577597E+05
 cg2d: Sum(rhs),rhsMax =  -5.76333243027999E+01  1.89618305648947E+00
(PID.TID 0000.0001)  ploadbar=  1.01086542730781E+05
 cg2d: Sum(rhs),rhsMax =  -5.77162438295176E+01  1.89471858766809E+00
(PID.TID 0000.0001)  ploadbar=  1.01086381754447E+05
 cg2d: Sum(rhs),rhsMax =  -5.76841444641061E+01  1.89703535181146E+00
(PID.TID 0000.0001)  ploadbar=  1.01086220778112E+05
 cg2d: Sum(rhs),rhsMax =  -5.75033092984036E+01  1.90427147316370E+00
(PID.TID 0000.0001)  ploadbar=  1.01086059801778E+05
 cg2d: Sum(rhs),rhsMax =  -5.73496661783027E+01  1.91065269289181E+00
(PID.TID 0000.0001)  ploadbar=  1.01085898825444E+05
 cg2d: Sum(rhs),rhsMax =  -5.72238419032051E+01  1.91614053669525E+00
(PID.TID 0000.0001)  ploadbar=  1.01085737849109E+05
 cg2d: Sum(rhs),rhsMax =  -5.71200447122434E+01  1.92091524342645E+00
(PID.TID 0000.0001)  ploadbar=  1.01085576872775E+05
 cg2d: Sum(rhs),rhsMax =  -5.71089639031806E+01  1.92251483920054E+00
(PID.TID 0000.0001)  ploadbar=  1.01085449877288E+05
 cg2d: Sum(rhs),rhsMax =  -5.71434449920363E+01  1.92251384449553E+00
(PID.TID 0000.0001)  ploadbar=  1.01085322881802E+05
 cg2d: Sum(rhs),rhsMax =  -5.70866341164510E+01  1.92551875944255E+00
(PID.TID 0000.0001)  ploadbar=  1.01085195886315E+05
 cg2d: Sum(rhs),rhsMax =  -5.70056945980219E+01  1.92927559283907E+00
(PID.TID 0000.0001)  ploadbar=  1.01085068890828E+05
 cg2d: Sum(rhs),rhsMax =  -5.69803922292370E+01  1.93108556379551E+00
(PID.TID 0000.0001)  ploadbar=  1.01084941895342E+05
 cg2d: Sum(rhs),rhsMax =  -5.70169529046515E+01  1.93072916288010E+00
(PID.TID 0000.0001)  ploadbar=  1.01084814899855E+05
 cg2d: Sum(rhs),rhsMax =  -5.70982511675439E+01  1.92890573730131E+00
(PID.TID 0000.0001)  ploadbar=  1.01085351689917E+05
 cg2d: Sum(rhs),rhsMax =  -5.72037550472517E+01  1.92631408980170E+00
(PID.TID 0000.0001)  ploadbar=  1.01085888479979E+05
 cg2d: Sum(rhs),rhsMax =  -5.73202607694322E+01  1.92340449363756E+00
(PID.TID 0000.0001)  ploadbar=  1.01086425270041E+05
 cg2d: Sum(rhs),rhsMax =  -5.74597802648305E+01  1.91977706940422E+00
(PID.TID 0000.0001)  ploadbar=  1.01086962060103E+05
 cg2d: Sum(rhs),rhsMax =  -5.76231810095715E+01  1.91541446886651E+00
(PID.TID 0000.0001)  ploadbar=  1.01087498850165E+05
 cg2d: Sum(rhs),rhsMax =  -5.77942763958641E+01  1.91086314157985E+00
(PID.TID 0000.0001)  ploadbar=  1.01088035640227E+05
 cg2d: Sum(rhs),rhsMax =  -5.80186684328169E+01  1.90456017256717E+00
(PID.TID 0000.0001)  ploadbar=  1.01088175427335E+05
 cg2d: Sum(rhs),rhsMax =  -5.82602348374341E+01  1.89772056322440E+00
(PID.TID 0000.0001)  ploadbar=  1.01088315214443E+05
 cg2d: Sum(rhs),rhsMax =  -5.85511824325143E+01  1.88931599304498E+00
(PID.TID 0000.0001)  ploadbar=  1.01088455001552E+05
 cg2d: Sum(rhs),rhsMax =  -5.88891928518145E+01  1.87946441562650E+00
(PID.TID 0000.0001)  ploadbar=  1.01088594788660E+05
 cg2d: Sum(rhs),rhsMax =  -5.92601695489034E+01  1.86865637903631E+00
(PID.TID 0000.0001)  ploadbar=  1.01088734575768E+05
 cg2d: Sum(rhs),rhsMax =  -5.94747947827242E+01  1.86283819402570E+00
(PID.TID 0000.0001)  ploadbar=  1.01088874362877E+05
 cg2d: Sum(rhs),rhsMax =  -5.95264789410247E+01  1.86214705599311E+00
(PID.TID 0000.0001)  ploadbar=  1.01088904338860E+05
 cg2d: Sum(rhs),rhsMax =  -5.95747635740022E+01  1.86156740798063E+00
(PID.TID 0000.0001)  ploadbar=  1.01088934314843E+05
 cg2d: Sum(rhs),rhsMax =  -5.96204528218248E+01  1.86107316022184E+00
(PID.TID 0000.0001)  ploadbar=  1.01088964290827E+05
 cg2d: Sum(rhs),rhsMax =  -5.96635764679407E+01  1.86066220188732E+00
(PID.TID 0000.0001)  ploadbar=  1.01088994266810E+05
 cg2d: Sum(rhs),rhsMax =  -5.97022261942466E+01  1.86039065878848E+00
(PID.TID 0000.0001)  ploadbar=  1.01089024242793E+05
 cg2d: Sum(rhs),rhsMax =  -5.97365027656906E+01  1.86025320000872E+00
(PID.TID 0000.0001)  ploadbar=  1.01089054218776E+05
 cg2d: Sum(rhs),rhsMax =  -5.97792594916308E+01  1.85980894597875E+00
(PID.TID 0000.0001)  ploadbar=  1.01088589613326E+05
 cg2d: Sum(rhs),rhsMax =  -5.98145733548149E+01  1.85955264417461E+00
(PID.TID 0000.0001)  ploadbar=  1.01088125007875E+05
 cg2d: Sum(rhs),rhsMax =  -5.98432591024921E+01  1.85945641520757E+00
(PID.TID 0000.0001)  ploadbar=  1.01087660402425E+05
 cg2d: Sum(rhs),rhsMax =  -5.98683181627595E+01  1.85942705552023E+00
(PID.TID 0000.0001)  ploadbar=  1.01087195796974E+05
 cg2d: Sum(rhs),rhsMax =  -5.98891913431227E+01  1.85948104612731E+00
(PID.TID 0000.0001)  ploadbar=  1.01086731191524E+05
 cg2d: Sum(rhs),rhsMax =  -5.99063795980242E+01  1.85960153436663E+00
(PID.TID 0000.0001)  ploadbar=  1.01086266586074E+05
 cg2d: Sum(rhs),rhsMax =  -5.98946893849515E+01  1.86067243914694E+00
(PID.TID 0000.0001)  ploadbar=  1.01085945704678E+05
 cg2d: Sum(rhs),rhsMax =  -5.98806558213136E+01  1.86186902367375E+00
(PID.TID 0000.0001)  ploadbar=  1.01085624823282E+05
 cg2d: Sum(rhs),rhsMax =  -5.98601654902206E+01  1.86331859811573E+00
(PID.TID 0000.0001)  ploadbar=  1.01085303941887E+05
 cg2d: Sum(rhs),rhsMax =  -5.98326805165135E+01  1.86503331643171E+00
(PID.TID 0000.0001)  ploadbar=  1.01084983060491E+05
 cg2d: Sum(rhs),rhsMax =  -5.98004873534163E+01  1.86694110716354E+00
(PID.TID 0000.0001)  ploadbar=  1.01084662179095E+05
 cg2d: Sum(rhs),rhsMax =  -5.97633317042671E+01  1.86904914624034E+00
(PID.TID 0000.0001)  ploadbar=  1.01084341297699E+05
 cg2d: Sum(rhs),rhsMax =  -5.97424446250125E+01  1.87067244511045E+00
(PID.TID 0000.0001)  ploadbar=  1.01084053085826E+05
 cg2d: Sum(rhs),rhsMax =  -5.97182513230863E+01  1.87242387029227E+00
(PID.TID 0000.0001)  ploadbar=  1.01083764873953E+05
 cg2d: Sum(rhs),rhsMax =  -5.96903385214924E+01  1.87431858028583E+00
(PID.TID 0000.0001)  ploadbar=  1.01083476662079E+05
 cg2d: Sum(rhs),rhsMax =  -5.96573395247299E+01  1.87640321611631E+00
(PID.TID 0000.0001)  ploadbar=  1.01083188450205E+05
 cg2d: Sum(rhs),rhsMax =  -5.96204926444218E+01  1.87863768516020E+00
(PID.TID 0000.0001)  ploadbar=  1.01082900238332E+05
 cg2d: Sum(rhs),rhsMax =  -5.95816783384294E+01  1.88096159597278E+00
(PID.TID 0000.0001)  ploadbar=  1.01082612026459E+05
 cg2d: Sum(rhs),rhsMax =  -5.95284905005547E+01  1.88376422810481E+00
(PID.TID 0000.0001)  ploadbar=  1.01083405504850E+05
 cg2d: Sum(rhs),rhsMax =  -5.94732472051239E+01  1.88665933195568E+00
(PID.TID 0000.0001)  ploadbar=  1.01084198983242E+05
 cg2d: Sum(rhs),rhsMax =  -5.94239267574927E+01  1.88939637406620E+00
(PID.TID 0000.0001)  ploadbar=  1.01084992461634E+05
 cg2d: Sum(rhs),rhsMax =  -5.93755954485237E+01  1.89213057751680E+00
(PID.TID 0000.0001)  ploadbar=  1.01085785940026E+05
 cg2d: Sum(rhs),rhsMax =  -5.93272080718450E+01  1.89489538989093E+00
(PID.TID 0000.0001)  ploadbar=  1.01086579418418E+05
 cg2d: Sum(rhs),rhsMax =  -5.92796038811461E+01  1.89766342481847E+00
(PID.TID 0000.0001)  ploadbar=  1.01087372896810E+05
 cg2d: Sum(rhs),rhsMax =  -5.92443230610240E+01  1.89996721399199E+00
(PID.TID 0000.0001)  ploadbar=  1.01086918346469E+05
 cg2d: Sum(rhs),rhsMax =  -5.92099469450838E+01  1.90217285673671E+00
(PID.TID 0000.0001)  ploadbar=  1.01086463796128E+05
 cg2d: Sum(rhs),rhsMax =  -5.91739916344647E+01  1.90436119948282E+00
(PID.TID 0000.0001)  ploadbar=  1.01086009245787E+05
 cg2d: Sum(rhs),rhsMax =  -5.91405096749258E+01  1.90639863566844E+00
(PID.TID 0000.0001)  ploadbar=  1.01085554695446E+05
 cg2d: Sum(rhs),rhsMax =  -5.91117902466688E+01  1.90821360654296E+00
(PID.TID 0000.0001)  ploadbar=  1.01085100145105E+05
 cg2d: Sum(rhs),rhsMax =  -5.90892913482094E+01  1.90975841769994E+00
(PID.TID 0000.0001)  ploadbar=  1.01084645594764E+05
 cg2d: Sum(rhs),rhsMax =  -5.90646005476297E+01  1.91140271956798E+00
(PID.TID 0000.0001)  ploadbar=  1.01085997886423E+05
 cg2d: Sum(rhs),rhsMax =  -5.90505572428811E+01  1.91273100615738E+00
(PID.TID 0000.0001)  ploadbar=  1.01087350178082E+05
 cg2d: Sum(rhs),rhsMax =  -5.90485780598567E+01  1.91369385630910E+00
(PID.TID 0000.0001)  ploadbar=  1.01088702469740E+05
 cg2d: Sum(rhs),rhsMax =  -5.90616020301423E+01  1.91419657006430E+00
(PID.TID 0000.0001)  ploadbar=  1.01090054761399E+05
 cg2d: Sum(rhs),rhsMax =  -5.90921433474011E+01  1.91416026751324E+00
(PID.TID 0000.0001)  ploadbar=  1.01091407053058E+05
 cg2d: Sum(rhs),rhsMax =  -5.91419095045654E+01  1.91353047709534E+00
(PID.TID 0000.0001)  ploadbar=  1.01092759344716E+05
 cg2d: Sum(rhs),rhsMax =  -5.92145404631778E+01  1.91218860086049E+00
(PID.TID 0000.0001)  ploadbar=  1.01093362655728E+05
 cg2d: Sum(rhs),rhsMax =  -5.93058891276101E+01  1.91027556908065E+00
(PID.TID 0000.0001)  ploadbar=  1.01093965966740E+05
 cg2d: Sum(rhs),rhsMax =  -5.94196881743814E+01  1.90767697400983E+00
(PID.TID 0000.0001)  ploadbar=  1.01094569277752E+05
 cg2d: Sum(rhs),rhsMax =  -5.95536657045710E+01  1.90447046546172E+00
(PID.TID 0000.0001)  ploadbar=  1.01095172588764E+05
 cg2d: Sum(rhs),rhsMax =  -5.97056474973339E+01  1.90073217648479E+00
(PID.TID 0000.0001)  ploadbar=  1.01095775899776E+05
 cg2d: Sum(rhs),rhsMax =  -5.98743378858614E+01  1.89650855599917E+00
(PID.TID 0000.0001)  ploadbar=  1.01096379210788E+05
 cg2d: Sum(rhs),rhsMax =  -6.00782385043811E+01  1.89118743918489E+00
(PID.TID 0000.0001)  ploadbar=  1.01096243348169E+05
 cg2d: Sum(rhs),rhsMax =  -6.02901223290428E+01  1.88564571530579E+00
(PID.TID 0000.0001)  ploadbar=  1.01096107485549E+05
 cg2d: Sum(rhs),rhsMax =  -6.05131257128626E+01  1.87978857929289E+00
(PID.TID 0000.0001)  ploadbar=  1.01095971622930E+05
 cg2d: Sum(rhs),rhsMax =  -6.07457901079662E+01  1.87366708180688E+00
(PID.TID 0000.0001)  ploadbar=  1.01095835760310E+05
 cg2d: Sum(rhs),rhsMax =  -6.09835085698773E+01  1.86742669858823E+00
(PID.TID 0000.0001)  ploadbar=  1.01095699897691E+05
 cg2d: Sum(rhs),rhsMax =  -6.12250026548346E+01  1.86110767300980E+00
(PID.TID 0000.0001)  ploadbar=  1.01095564035072E+05
 cg2d: Sum(rhs),rhsMax =  -6.14457800257150E+01  1.85541701221866E+00
(PID.TID 0000.0001)  ploadbar=  1.01096010581509E+05
 cg2d: Sum(rhs),rhsMax =  -6.16697588456951E+01  1.84962530268137E+00
(PID.TID 0000.0001)  ploadbar=  1.01096457127947E+05
 cg2d: Sum(rhs),rhsMax =  -6.18969604033436E+01  1.84373274912553E+00
(PID.TID 0000.0001)  ploadbar=  1.01096903674385E+05
 cg2d: Sum(rhs),rhsMax =  -6.21283601191475E+01  1.83771271027441E+00
(PID.TID 0000.0001)  ploadbar=  1.01097350220823E+05
 cg2d: Sum(rhs),rhsMax =  -6.23643034549006E+01  1.83155781052013E+00
(PID.TID 0000.0001)  ploadbar=  1.01097796767260E+05
 cg2d: Sum(rhs),rhsMax =  -6.26050225573280E+01  1.82526443178042E+00
(PID.TID 0000.0001)  ploadbar=  1.01098243313698E+05
 cg2d: Sum(rhs),rhsMax =  -6.28549300058078E+01  1.81878528965300E+00
(PID.TID 0000.0001)  ploadbar=  1.01098912385173E+05
 cg2d: Sum(rhs),rhsMax =  -6.31010946140210E+01  1.81249630950285E+00
(PID.TID 0000.0001)  ploadbar=  1.01099581456648E+05
 cg2d: Sum(rhs),rhsMax =  -6.33384530451282E+01  1.80653932393552E+00
(PID.TID 0000.0001)  ploadbar=  1.01100250528122E+05
 cg2d: Sum(rhs),rhsMax =  -6.35679888701176E+01  1.80087995650123E+00
(PID.TID 0000.0001)  ploadbar=  1.01100919599597E+05
 cg2d: Sum(rhs),rhsMax =  -6.37882248410105E+01  1.79555422007469E+00
(PID.TID 0000.0001)  ploadbar=  1.01101588671072E+05
 cg2d: Sum(rhs),rhsMax =  -6.39985528312021E+01  1.79057060782279E+00
(PID.TID 0000.0001)  ploadbar=  1.01102257742546E+05
 cg2d: Sum(rhs),rhsMax =  -6.42174906714298E+01  1.78538749837034E+00
(PID.TID 0000.0001)  ploadbar=  1.01102599485315E+05
 cg2d: Sum(rhs),rhsMax =  -6.44263739549845E+01  1.78052503498504E+00
(PID.TID 0000.0001)  ploadbar=  1.01102941228084E+05
 cg2d: Sum(rhs),rhsMax =  -6.46250289203388E+01  1.77598397587975E+00
(PID.TID 0000.0001)  ploadbar=  1.01103282970853E+05
 cg2d: Sum(rhs),rhsMax =  -6.48160339848935E+01  1.77168725617199E+00
(PID.TID 0000.0001)  ploadbar=  1.01103624713622E+05
 cg2d: Sum(rhs),rhsMax =  -6.50008779798292E+01  1.76758732411258E+00
(PID.TID 0000.0001)  ploadbar=  1.01103966456390E+05
 cg2d: Sum(rhs),rhsMax =  -6.51800240072171E+01  1.76366674823811E+00
(PID.TID 0000.0001)  ploadbar=  1.01104308199159E+05
 cg2d: Sum(rhs),rhsMax =  -6.53515038291940E+01  1.75997586106223E+00
(PID.TID 0000.0001)  ploadbar=  1.01105139929419E+05
 cg2d: Sum(rhs),rhsMax =  -6.55186030731304E+01  1.75642341597359E+00
(PID.TID 0000.0001)  ploadbar=  1.01105971659679E+05
 cg2d: Sum(rhs),rhsMax =  -6.56810757031243E+01  1.75301124947728E+00
(PID.TID 0000.0001)  ploadbar=  1.01106803389939E+05
 cg2d: Sum(rhs),rhsMax =  -6.58379942424129E+01  1.74976148751096E+00
(PID.TID 0000.0001)  ploadbar=  1.01107635120199E+05
 cg2d: Sum(rhs),rhsMax =  -6.59914735532513E+01  1.74661398916495E+00
(PID.TID 0000.0001)  ploadbar=  1.01108466850459E+05
 cg2d: Sum(rhs),rhsMax =  -6.61428928904187E+01  1.74352808692789E+00
(PID.TID 0000.0001)  ploadbar=  1.01109298580719E+05
 cg2d: Sum(rhs),rhsMax =  -6.62652145282411E+01  1.74117974973922E+00
(PID.TID 0000.0001)  ploadbar=  1.01109517227604E+05
 cg2d: Sum(rhs),rhsMax =  -6.63886375510252E+01  1.73877024049034E+00
(PID.TID 0000.0001)  ploadbar=  1.01109735874489E+05
 cg2d: Sum(rhs),rhsMax =  -6.65124264538662E+01  1.73631880377863E+00
(PID.TID 0000.0001)  ploadbar=  1.01109954521374E+05
 cg2d: Sum(rhs),rhsMax =  -6.66340595781717E+01  1.73389092044560E+00
(PID.TID 0000.0001)  ploadbar=  1.01110173168259E+05
 cg2d: Sum(rhs),rhsMax =  -6.67537585374763E+01  1.73147964295279E+00
(PID.TID 0000.0001)  ploadbar=  1.01110391815144E+05
 cg2d: Sum(rhs),rhsMax =  -6.68718412616101E+01  1.72907424929704E+00
(PID.TID 0000.0001)  ploadbar=  1.01110610462030E+05
 cg2d: Sum(rhs),rhsMax =  -6.69595279103872E+01  1.72746670445045E+00
(PID.TID 0000.0001)  ploadbar=  1.01111574045368E+05
 cg2d: Sum(rhs),rhsMax =  -6.70308466108174E+01  1.72628889804968E+00
(PID.TID 0000.0001)  ploadbar=  1.01112537628706E+05
 cg2d: Sum(rhs),rhsMax =  -6.70809871452180E+01  1.72566165840776E+00
(PID.TID 0000.0001)  ploadbar=  1.01113501212044E+05
 cg2d: Sum(rhs),rhsMax =  -6.71028869454150E+01  1.72576403014759E+00
(PID.TID 0000.0001)  ploadbar=  1.01114464795383E+05
 cg2d: Sum(rhs),rhsMax =  -6.71013431349900E+01  1.72647246228967E+00
(PID.TID 0000.0001)  ploadbar=  1.01115428378721E+05
 cg2d: Sum(rhs),rhsMax =  -6.70913258635142E+01  1.72740188314807E+00
(PID.TID 0000.0001)  ploadbar=  1.01116391962059E+05
 cg2d: Sum(rhs),rhsMax =  -6.71156287858067E+01  1.72747634621151E+00
(PID.TID 0000.0001)  ploadbar=  1.01116051085573E+05
 cg2d: Sum(rhs),rhsMax =  -6.72036496935927E+01  1.72594131292331E+00
(PID.TID 0000.0001)  ploadbar=  1.01115710209086E+05
 cg2d: Sum(rhs),rhsMax =  -6.74032343801731E+01  1.72158529930032E+00
(PID.TID 0000.0001)  ploadbar=  1.01115369332600E+05
 cg2d: Sum(rhs),rhsMax =  -6.77473824295961E+01  1.71361749911741E+00
(PID.TID 0000.0001)  ploadbar=  1.01115028456113E+05
 cg2d: Sum(rhs),rhsMax =  -6.82323260071624E+01  1.70223403203240E+00
(PID.TID 0000.0001)  ploadbar=  1.01114687579626E+05
 cg2d: Sum(rhs),rhsMax =  -6.88502180169307E+01  1.68776770377815E+00
(PID.TID 0000.0001)  ploadbar=  1.01114346703140E+05
 cg2d: Sum(rhs),rhsMax =  -6.95899602767383E+01  1.67061952403159E+00
(PID.TID 0000.0001)  ploadbar=  1.01113715662121E+05
 cg2d: Sum(rhs),rhsMax =  -7.04499119529125E+01  1.65100215429387E+00
(PID.TID 0000.0001)  ploadbar=  1.01113084621101E+05
 cg2d: Sum(rhs),rhsMax =  -7.14022105522651E+01  1.62973931885186E+00
(PID.TID 0000.0001)  ploadbar=  1.01112453580082E+05
 cg2d: Sum(rhs),rhsMax =  -7.23792264004309E+01  1.60847612053916E+00
(PID.TID 0000.0001)  ploadbar=  1.01111822539063E+05
 cg2d: Sum(rhs),rhsMax =  -7.33103472822085E+01  1.58876103483254E+00
(PID.TID 0000.0001)  ploadbar=  1.01111191498044E+05
 cg2d: Sum(rhs),rhsMax =  -7.41506188206404E+01  1.57144902551318E+00
(PID.TID 0000.0001)  ploadbar=  1.01110560457024E+05
 cg2d: Sum(rhs),rhsMax =  -7.48905702332871E+01  1.55658262538111E+00
(PID.TID 0000.0001)  ploadbar=  1.01110325594713E+05
 cg2d: Sum(rhs),rhsMax =  -7.54986789569440E+01  1.54467419606242E+00
(PID.TID 0000.0001)  ploadbar=  1.01110090732401E+05
 cg2d: Sum(rhs),rhsMax =  -7.59884649479461E+01  1.53531819967624E+00
(PID.TID 0000.0001)  ploadbar=  1.01109855870089E+05
 cg2d: Sum(rhs),rhsMax =  -7.63914233634742E+01  1.52779097541728E+00
(PID.TID 0000.0001)  ploadbar=  1.01109621007777E+05
 cg2d: Sum(rhs),rhsMax =  -7.67298230684241E+01  1.52159571568888E+00
(PID.TID 0000.0001)  ploadbar=  1.01109386145466E+05
 cg2d: Sum(rhs),rhsMax =  -7.70257036791789E+01  1.51626331863410E+00
(PID.TID 0000.0001)  ploadbar=  1.01109151283154E+05
 cg2d: Sum(rhs),rhsMax =  -7.72730528088587E+01  1.51194001562704E+00
(PID.TID 0000.0001)  ploadbar=  1.01108352701572E+05
 cg2d: Sum(rhs),rhsMax =  -7.75071026021440E+01  1.50792175365677E+00
(PID.TID 0000.0001)  ploadbar=  1.01107554119991E+05
 cg2d: Sum(rhs),rhsMax =  -7.77050689947234E+01  1.50464383462679E+00
(PID.TID 0000.0001)  ploadbar=  1.01106755538409E+05
 cg2d: Sum(rhs),rhsMax =  -7.78745257115792E+01  1.50195009965876E+00
(PID.TID 0000.0001)  ploadbar=  1.01105956956828E+05
 cg2d: Sum(rhs),rhsMax =  -7.80413469103832E+01  1.49933676942013E+00
(PID.TID 0000.0001)  ploadbar=  1.01105158375246E+05
 cg2d: Sum(rhs),rhsMax =  -7.82091586721488E+01  1.49673141557473E+00
(PID.TID 0000.0001)  ploadbar=  1.01104359793664E+05
 cg2d: Sum(rhs),rhsMax =  -7.84706065910151E+01  1.49236876861609E+00
(PID.TID 0000.0001)  ploadbar=  1.01104449950411E+05
 cg2d: Sum(rhs),rhsMax =  -7.87562245422401E+01  1.48759362341392E+00
(PID.TID 0000.0001)  ploadbar=  1.01104540107157E+05
 cg2d: Sum(rhs),rhsMax =  -7.90552588451640E+01  1.48261869748321E+00
(PID.TID 0000.0001)  ploadbar=  1.01104630263903E+05
 cg2d: Sum(rhs),rhsMax =  -7.93781498390911E+01  1.47725536685375E+00
(PID.TID 0000.0001)  ploadbar=  1.01104720420649E+05
 cg2d: Sum(rhs),rhsMax =  -7.97318211378161E+01  1.47138455303441E+00
(PID.TID 0000.0001)  ploadbar=  1.01104810577395E+05
 cg2d: Sum(rhs),rhsMax =  -8.01169403738915E+01  1.46500561948472E+00
(PID.TID 0000.0001)  ploadbar=  1.01104900734141E+05
 cg2d: Sum(rhs),rhsMax =  -8.05450078782697E+01  1.45791731657512E+00
(PID.TID 0000.0001)  ploadbar=  1.01105443440577E+05
 cg2d: Sum(rhs),rhsMax =  -8.09811216591228E+01  1.45076889081721E+00
(PID.TID 0000.0001)  ploadbar=  1.01105986147013E+05
 cg2d: Sum(rhs),rhsMax =  -8.14078009068343E+01  1.44387333442646E+00
(PID.TID 0000.0001)  ploadbar=  1.01106528853448E+05
 cg2d: Sum(rhs),rhsMax =  -8.18191515666103E+01  1.43732595172844E+00
(PID.TID 0000.0001)  ploadbar=  1.01107071559884E+05
 cg2d: Sum(rhs),rhsMax =  -8.22136637065704E+01  1.43114226469609E+00
(PID.TID 0000.0001)  ploadbar=  1.01107614266320E+05
 cg2d: Sum(rhs),rhsMax =  -8.25951282545930E+01  1.42524585445475E+00
(PID.TID 0000.0001)  ploadbar=  1.01108156972756E+05
 cg2d: Sum(rhs),rhsMax =  -8.29898828438396E+01  1.41914258715514E+00
(PID.TID 0000.0001)  ploadbar=  1.01108237493417E+05
 cg2d: Sum(rhs),rhsMax =  -8.33864953361826E+01  1.41303187613529E+00
(PID.TID 0000.0001)  ploadbar=  1.01108318014077E+05
 cg2d: Sum(rhs),rhsMax =  -8.37656476163424E+01  1.40723757961348E+00
(PID.TID 0000.0001)  ploadbar=  1.01108398534738E+05
 cg2d: Sum(rhs),rhsMax =  -8.41326099582203E+01  1.40166352671217E+00
(PID.TID 0000.0001)  ploadbar=  1.01108479055399E+05
 cg2d: Sum(rhs),rhsMax =  -8.44869744864270E+01  1.39631049687088E+00
(PID.TID 0000.0001)  ploadbar=  1.01108559576060E+05
 cg2d: Sum(rhs),rhsMax =  -8.48217039518493E+01  1.39128728934385E+00
(PID.TID 0000.0001)  ploadbar=  1.01108640096721E+05
 cg2d: Sum(rhs),rhsMax =  -8.50455875052509E+01  1.38812125920992E+00
(PID.TID 0000.0001)  ploadbar=  1.01109788139579E+05
 cg2d: Sum(rhs),rhsMax =  -8.52581526890643E+01  1.38516637046393E+00
(PID.TID 0000.0001)  ploadbar=  1.01110936182438E+05
 cg2d: Sum(rhs),rhsMax =  -8.54437548579235E+01  1.38267414196378E+00
(PID.TID 0000.0001)  ploadbar=  1.01112084225297E+05
 cg2d: Sum(rhs),rhsMax =  -8.56236574661611E+01  1.38029753341533E+00
(PID.TID 0000.0001)  ploadbar=  1.01113232268155E+05
 cg2d: Sum(rhs),rhsMax =  -8.58136046826955E+01  1.37778280243749E+00
(PID.TID 0000.0001)  ploadbar=  1.01114380311014E+05
 cg2d: Sum(rhs),rhsMax =  -8.60166373273017E+01  1.37508397014453E+00
(PID.TID 0000.0001)  ploadbar=  1.01115528353873E+05
 cg2d: Sum(rhs),rhsMax =  -8.62060079435427E+01  1.37261200657184E+00
(PID.TID 0000.0001)  ploadbar=  1.01116367720446E+05
 cg2d: Sum(rhs),rhsMax =  -8.63984387534287E+01  1.37010016877107E+00
(PID.TID 0000.0001)  ploadbar=  1.01117207087020E+05
 cg2d: Sum(rhs),rhsMax =  -8.65878383382191E+01  1.36764687483355E+00
(PID.TID 0000.0001)  ploadbar=  1.01118046453594E+05
 cg2d: Sum(rhs),rhsMax =  -8.67752106548774E+01  1.36523576033642E+00
(PID.TID 0000.0001)  ploadbar=  1.01118885820167E+05
 cg2d: Sum(rhs),rhsMax =  -8.69621591756152E+01  1.36283997170534E+00
(PID.TID 0000.0001)  ploadbar=  1.01119725186741E+05
 cg2d: Sum(rhs),rhsMax =  -8.71497765304202E+01  1.36044144616038E+00
(PID.TID 0000.0001)  ploadbar=  1.01120564553315E+05
 cg2d: Sum(rhs),rhsMax =  -8.73178813087909E+01  1.35835062216257E+00
(PID.TID 0000.0001)  ploadbar=  1.01121183688529E+05
 cg2d: Sum(rhs),rhsMax =  -8.74680168695523E+01  1.35654317382891E+00
(PID.TID 0000.0001)  ploadbar=  1.01121802823744E+05
 cg2d: Sum(rhs),rhsMax =  -8.76005569238715E+01  1.35501067752749E+00
(PID.TID 0000.0001)  ploadbar=  1.01122421958958E+05
 cg2d: Sum(rhs),rhsMax =  -8.76972865696257E+01  1.35403289930271E+00
(PID.TID 0000.0001)  ploadbar=  1.01123041094173E+05
 cg2d: Sum(rhs),rhsMax =  -8.77487768394224E+01  1.35375266703161E+00
(PID.TID 0000.0001)  ploadbar=  1.01123660229388E+05
 cg2d: Sum(rhs),rhsMax =  -8.77248372627979E+01  1.35463431737799E+00
(PID.TID 0000.0001)  ploadbar=  1.01124279364602E+05
 cg2d: Sum(rhs),rhsMax =  -8.74190536463654E+01  1.35985691506135E+00
(PID.TID 0000.0001)  ploadbar=  1.01125413926302E+05
 cg2d: Sum(rhs),rhsMax =  -8.71397290364510E+01  1.36467212114794E+00
(PID.TID 0000.0001)  ploadbar=  1.01126548488002E+05
 cg2d: Sum(rhs),rhsMax =  -8.68739054720274E+01  1.36927658511775E+00
(PID.TID 0000.0001)  ploadbar=  1.01127683049702E+05
 cg2d: Sum(rhs),rhsMax =  -8.66064953226292E+01  1.37390674180410E+00
(PID.TID 0000.0001)  ploadbar=  1.01128817611402E+05
 cg2d: Sum(rhs),rhsMax =  -8.63282271472011E+01  1.37871113792072E+00
(PID.TID 0000.0001)  ploadbar=  1.01129952173102E+05
 cg2d: Sum(rhs),rhsMax =  -8.60320587281987E+01  1.38380462167607E+00
(PID.TID 0000.0001)  ploadbar=  1.01131086734802E+05
 cg2d: Sum(rhs),rhsMax =  -8.57375670910532E+01  1.38893510764760E+00
(PID.TID 0000.0001)  ploadbar=  1.01132972447170E+05
 cg2d: Sum(rhs),rhsMax =  -8.54339614409259E+01  1.39427908757991E+00
(PID.TID 0000.0001)  ploadbar=  1.01134858159537E+05
 cg2d: Sum(rhs),rhsMax =  -8.51327894602512E+01  1.39965176687868E+00
(PID.TID 0000.0001)  ploadbar=  1.01136743871904E+05
 cg2d: Sum(rhs),rhsMax =  -8.48394882921610E+01  1.40496423494985E+00
(PID.TID 0000.0001)  ploadbar=  1.01138629584272E+05
 cg2d: Sum(rhs),rhsMax =  -8.45560222790136E+01  1.41018100098180E+00
(PID.TID 0000.0001)  ploadbar=  1.01140515296639E+05
 cg2d: Sum(rhs),rhsMax =  -8.42836648791580E+01  1.41527621205832E+00
(PID.TID 0000.0001)  ploadbar=  1.01142401009006E+05
 cg2d: Sum(rhs),rhsMax =  -8.39876300449073E+01  1.42082971593508E+00
(PID.TID 0000.0001)  ploadbar=  1.01142650543068E+05
 cg2d: Sum(rhs),rhsMax =  -8.36558632002887E+01  1.42705482408560E+00
(PID.TID 0000.0001)  ploadbar=  1.01142900077130E+05
 cg2d: Sum(rhs),rhsMax =  -8.33035274549215E+01  1.43370549170433E+00
(PID.TID 0000.0001)  ploadbar=  1.01143149611192E+05
 cg2d: Sum(rhs),rhsMax =  -8.29403862695711E+01  1.44062411018774E+00
(PID.TID 0000.0001)  ploadbar=  1.01143399145253E+05
 cg2d: Sum(rhs),rhsMax =  -8.25618143999271E+01  1.44789821105942E+00
(PID.TID 0000.0001)  ploadbar=  1.01143648679315E+05
 cg2d: Sum(rhs),rhsMax =  -8.21650681237040E+01  1.45558672338144E+00
(PID.TID 0000.0001)  ploadbar=  1.01143898213377E+05
 cg2d: Sum(rhs),rhsMax =  -8.17743842208974E+01  1.46322459286306E+00
(PID.TID 0000.0001)  ploadbar=  1.01143779337469E+05
 cg2d: Sum(rhs),rhsMax =  -8.13870746387723E+01  1.47086066679115E+00
(PID.TID 0000.0001)  ploadbar=  1.01143660461561E+05
 cg2d: Sum(rhs),rhsMax =  -8.10147327469017E+01  1.47828591305324E+00
(PID.TID 0000.0001)  ploadbar=  1.01143541585653E+05
 cg2d: Sum(rhs),rhsMax =  -8.06712494015578E+01  1.48524023372762E+00
(PID.TID 0000.0001)  ploadbar=  1.01143422709745E+05
 cg2d: Sum(rhs),rhsMax =  -8.03659767999058E+01  1.49153830334021E+00
(PID.TID 0000.0001)  ploadbar=  1.01143303833837E+05
 cg2d: Sum(rhs),rhsMax =  -8.01023537571238E+01  1.49709626431010E+00
(PID.TID 0000.0001)  ploadbar=  1.01143184957929E+05
 cg2d: Sum(rhs),rhsMax =  -7.98665219794397E+01  1.50214282251017E+00
(PID.TID 0000.0001)  ploadbar=  1.01144019998994E+05
 cg2d: Sum(rhs),rhsMax =  -7.96493755061829E+01  1.50684072852160E+00
(PID.TID 0000.0001)  ploadbar=  1.01144855040058E+05
 cg2d: Sum(rhs),rhsMax =  -7.94372092392574E+01  1.51144397270578E+00
(PID.TID 0000.0001)  ploadbar=  1.01145690081123E+05
 cg2d: Sum(rhs),rhsMax =  -7.92169836914827E+01  1.51620191211998E+00
(PID.TID 0000.0001)  ploadbar=  1.01146525122187E+05
 cg2d: Sum(rhs),rhsMax =  -7.89800600644822E+01  1.52128285382371E+00
(PID.TID 0000.0001)  ploadbar=  1.01147360163252E+05
 cg2d: Sum(rhs),rhsMax =  -7.87246361021582E+01  1.52672601989211E+00
(PID.TID 0000.0001)  ploadbar=  1.01148195204316E+05
 cg2d: Sum(rhs),rhsMax =  -7.84530042542213E+01  1.53255806269122E+00
(PID.TID 0000.0001)  ploadbar=  1.01148361054430E+05
 cg2d: Sum(rhs),rhsMax =  -7.81979315207665E+01  1.53814208799942E+00
(PID.TID 0000.0001)  ploadbar=  1.01148526904544E+05
 cg2d: Sum(rhs),rhsMax =  -7.79811816438080E+01  1.54304240322411E+00
(PID.TID 0000.0001)  ploadbar=  1.01148692754658E+05
 cg2d: Sum(rhs),rhsMax =  -7.78211586744507E+01  1.54688134369704E+00
(PID.TID 0000.0001)  ploadbar=  1.01148858604772E+05
 cg2d: Sum(rhs),rhsMax =  -7.77346784892086E+01  1.54930990068898E+00
(PID.TID 0000.0001)  ploadbar=  1.01149024454886E+05
 cg2d: Sum(rhs),rhsMax =  -7.77246700227977E+01  1.55025680589858E+00
(PID.TID 0000.0001)  ploadbar=  1.01149190305000E+05
 cg2d: Sum(rhs),rhsMax =  -7.77709771087176E+01  1.55008702885228E+00
(PID.TID 0000.0001)  ploadbar=  1.01148568704263E+05
 cg2d: Sum(rhs),rhsMax =  -7.78446232885380E+01  1.54938109316554E+00
(PID.TID 0000.0001)  ploadbar=  1.01147947103527E+05
 cg2d: Sum(rhs),rhsMax =  -7.79144232764299E+01  1.54876191677252E+00
(PID.TID 0000.0001)  ploadbar=  1.01147325502790E+05
 cg2d: Sum(rhs),rhsMax =  -7.79658768583048E+01  1.54851561119497E+00
(PID.TID 0000.0001)  ploadbar=  1.01146703902053E+05
 cg2d: Sum(rhs),rhsMax =  -7.79892016340954E+01  1.54883676286291E+00
(PID.TID 0000.0001)  ploadbar=  1.01146082301317E+05
 cg2d: Sum(rhs),rhsMax =  -7.79856211734223E+01  1.54970067931479E+00
(PID.TID 0000.0001)  ploadbar=  1.01145460700580E+05
 cg2d: Sum(rhs),rhsMax =  -7.79346748554191E+01  1.55151821819078E+00
(PID.TID 0000.0001)  ploadbar=  1.01145552353320E+05
 cg2d: Sum(rhs),rhsMax =  -7.78589811534010E+01  1.55384346766416E+00
(PID.TID 0000.0001)  ploadbar=  1.01145644006060E+05
 cg2d: Sum(rhs),rhsMax =  -7.77827625306836E+01  1.55619527251136E+00
(PID.TID 0000.0001)  ploadbar=  1.01145735658800E+05
 cg2d: Sum(rhs),rhsMax =  -7.77669251453767E+01  1.55735220997638E+00
(PID.TID 0000.0001)  ploadbar=  1.01145827311540E+05
 cg2d: Sum(rhs),rhsMax =  -7.78260578478547E+01  1.55701959199914E+00
(PID.TID 0000.0001)  ploadbar=  1.01145918964280E+05
 cg2d: Sum(rhs),rhsMax =  -7.79560070700196E+01  1.55528430607357E+00
(PID.TID 0000.0001)  ploadbar=  1.01146010617021E+05
 cg2d: Sum(rhs),rhsMax =  -7.81079487423073E+01  1.55306952334349E+00
(PID.TID 0000.0001)  ploadbar=  1.01145249168063E+05
 cg2d: Sum(rhs),rhsMax =  -7.82617540902885E+01  1.55077903261153E+00
(PID.TID 0000.0001)  ploadbar=  1.01144487719105E+05
 cg2d: Sum(rhs),rhsMax =  -7.83942104767290E+01  1.54887244812139E+00
(PID.TID 0000.0001)  ploadbar=  1.01143726270147E+05
 cg2d: Sum(rhs),rhsMax =  -7.84895378340153E+01  1.54765729717275E+00
(PID.TID 0000.0001)  ploadbar=  1.01142964821188E+05
 cg2d: Sum(rhs),rhsMax =  -7.85462020769019E+01  1.54715676776811E+00
(PID.TID 0000.0001)  ploadbar=  1.01142203372230E+05
 cg2d: Sum(rhs),rhsMax =  -7.86643789931249E+01  1.54539523898715E+00
(PID.TID 0000.0001)  ploadbar=  1.01141441923272E+05
 cg2d: Sum(rhs),rhsMax =  -7.95439990879347E+01  1.52888887369789E+00
(PID.TID 0000.0001)  ploadbar=  1.01141483220520E+05
 cg2d: Sum(rhs),rhsMax =  -8.05248179017776E+01  1.51087109798649E+00
(PID.TID 0000.0001)  ploadbar=  1.01141524517767E+05
 cg2d: Sum(rhs),rhsMax =  -8.16391912520688E+01  1.49087246429813E+00
(PID.TID 0000.0001)  ploadbar=  1.01141565815014E+05
 cg2d: Sum(rhs),rhsMax =  -8.28736145601193E+01  1.46930854481733E+00
(PID.TID 0000.0001)  ploadbar=  1.01141607112262E+05
 cg2d: Sum(rhs),rhsMax =  -8.41953138063865E+01  1.44690218668496E+00
(PID.TID 0000.0001)  ploadbar=  1.01141648409509E+05
 cg2d: Sum(rhs),rhsMax =  -8.55443610628870E+01  1.42475764931042E+00
(PID.TID 0000.0001)  ploadbar=  1.01141689706756E+05
 cg2d: Sum(rhs),rhsMax =  -8.67732823278922E+01  1.40523820447963E+00
(PID.TID 0000.0001)  ploadbar=  1.01141261242227E+05
 cg2d: Sum(rhs),rhsMax =  -8.78268626932668E+01  1.38902995171693E+00
(PID.TID 0000.0001)  ploadbar=  1.01140832777698E+05
 cg2d: Sum(rhs),rhsMax =  -8.63680350375841E+01  1.41315002875973E+00
(PID.TID 0000.0001)  ploadbar=  1.01140404313169E+05
 cg2d: Sum(rhs),rhsMax =  -8.47150900456188E+01  1.44139345161589E+00
(PID.TID 0000.0001)  ploadbar=  1.01139975848640E+05
 cg2d: Sum(rhs),rhsMax =  -8.32294089792868E+01  1.46780254019398E+00
(PID.TID 0000.0001)  ploadbar=  1.01139547384111E+05
 cg2d: Sum(rhs),rhsMax =  -8.19009997455197E+01  1.49229840899931E+00
(PID.TID 0000.0001)  ploadbar=  1.01139118919582E+05
 cg2d: Sum(rhs),rhsMax =  -8.08283512558201E+01  1.51279920017515E+00
(PID.TID 0000.0001)  ploadbar=  1.01138835232519E+05
 cg2d: Sum(rhs),rhsMax =  -7.98696209905648E+01  1.53166849019595E+00
(PID.TID 0000.0001)  ploadbar=  1.01138551545457E+05
 cg2d: Sum(rhs),rhsMax =  -7.89779109105774E+01  1.54968480093894E+00
(PID.TID 0000.0001)  ploadbar=  1.01138267858394E+05
 cg2d: Sum(rhs),rhsMax =  -7.81439464256569E+01  1.56695627314194E+00
(PID.TID 0000.0001)  ploadbar=  1.01137984171332E+05
 cg2d: Sum(rhs),rhsMax =  -7.73550307507066E+01  1.58367789137473E+00
(PID.TID 0000.0001)  ploadbar=  1.01137700484269E+05
 cg2d: Sum(rhs),rhsMax =  -7.65953019870959E+01  1.60013310987075E+00
(PID.TID 0000.0001)  ploadbar=  1.01137416797207E+05
 cg2d: Sum(rhs),rhsMax =  -7.59552325312850E+01  1.61429906273302E+00
(PID.TID 0000.0001)  ploadbar=  1.01137535182717E+05
 cg2d: Sum(rhs),rhsMax =  -7.53732919859615E+01  1.62737658575124E+00
(PID.TID 0000.0001)  ploadbar=  1.01137653568227E+05
 cg2d: Sum(rhs),rhsMax =  -7.48280123526325E+01  1.63978211201215E+00
(PID.TID 0000.0001)  ploadbar=  1.01137771953737E+05
 cg2d: Sum(rhs),rhsMax =  -7.43255168673956E+01  1.65134417054509E+00
(PID.TID 0000.0001)  ploadbar=  1.01137890339247E+05
 cg2d: Sum(rhs),rhsMax =  -7.38626433214135E+01  1.66209839588337E+00
(PID.TID 0000.0001)  ploadbar=  1.01138008724757E+05
 cg2d: Sum(rhs),rhsMax =  -7.34514168398615E+01  1.67173459719640E+00
(PID.TID 0000.0001)  ploadbar=  1.01138127110266E+05
 cg2d: Sum(rhs),rhsMax =  -7.31615774537250E+01  1.67870503008055E+00
(PID.TID 0000.0001)  ploadbar=  1.01138157085913E+05
 cg2d: Sum(rhs),rhsMax =  -7.29901183625569E+01  1.68301006620962E+00
(PID.TID 0000.0001)  ploadbar=  1.01138187061559E+05
 cg2d: Sum(rhs),rhsMax =  -7.29470198511366E+01  1.68438169841169E+00
(PID.TID 0000.0001)  ploadbar=  1.01138217037205E+05
 cg2d: Sum(rhs),rhsMax =  -7.30705137535535E+01  1.68192432993337E+00
(PID.TID 0000.0001)  ploadbar=  1.01138247012851E+05
 cg2d: Sum(rhs),rhsMax =  -7.33018465723371E+01  1.67701490934899E+00
(PID.TID 0000.0001)  ploadbar=  1.01138276988497E+05
 cg2d: Sum(rhs),rhsMax =  -7.40195539671253E+01  1.66115532220677E+00
(PID.TID 0000.0001)  ploadbar=  1.01138306964143E+05
 cg2d: Sum(rhs),rhsMax =  -7.46972595855709E+01  1.64649646259517E+00
(PID.TID 0000.0001)  ploadbar=  1.01138980294542E+05
 cg2d: Sum(rhs),rhsMax =  -7.54015346261137E+01  1.63154154971375E+00
(PID.TID 0000.0001)  ploadbar=  1.01139653624941E+05
 cg2d: Sum(rhs),rhsMax =  -7.60968086256177E+01  1.61707086359293E+00
(PID.TID 0000.0001)  ploadbar=  1.01140326955340E+05
 cg2d: Sum(rhs),rhsMax =  -7.67600986982080E+01  1.60354173790823E+00
(PID.TID 0000.0001)  ploadbar=  1.01141000285739E+05
 cg2d: Sum(rhs),rhsMax =  -7.73784253570363E+01  1.59117969458382E+00
(PID.TID 0000.0001)  ploadbar=  1.01141673616138E+05
 cg2d: Sum(rhs),rhsMax =  -7.79441775774811E+01  1.58008810859509E+00
(PID.TID 0000.0001)  ploadbar=  1.01142346946537E+05
 cg2d: Sum(rhs),rhsMax =  -7.84686156253468E+01  1.57000254145942E+00
(PID.TID 0000.0001)  ploadbar=  1.01143424753857E+05
 cg2d: Sum(rhs),rhsMax =  -7.89609720865829E+01  1.56070572528805E+00
(PID.TID 0000.0001)  ploadbar=  1.01144502561177E+05
 cg2d: Sum(rhs),rhsMax =  -7.94210505287603E+01  1.55217519666439E+00
(PID.TID 0000.0001)  ploadbar=  1.01145580368498E+05
 cg2d: Sum(rhs),rhsMax =  -7.98466173442607E+01  1.54442976372616E+00
(PID.TID 0000.0001)  ploadbar=  1.01146658175818E+05
 cg2d: Sum(rhs),rhsMax =  -8.02313512881455E+01  1.53756408331629E+00
(PID.TID 0000.0001)  ploadbar=  1.01147735983138E+05
 cg2d: Sum(rhs),rhsMax =  -8.05710177020964E+01  1.53163604101858E+00
(PID.TID 0000.0001)  ploadbar=  1.01148813790459E+05
 cg2d: Sum(rhs),rhsMax =  -8.08774360153826E+01  1.52634872074867E+00
(PID.TID 0000.0001)  ploadbar=  1.01149189070246E+05
 cg2d: Sum(rhs),rhsMax =  -8.11628766009233E+01  1.52145546449598E+00
(PID.TID 0000.0001)  ploadbar=  1.01149564350034E+05
 cg2d: Sum(rhs),rhsMax =  -8.14262080210401E+01  1.51696859148341E+00
(PID.TID 0000.0001)  ploadbar=  1.01149939629821E+05
 cg2d: Sum(rhs),rhsMax =  -8.16727946119204E+01  1.51277910329584E+00
(PID.TID 0000.0001)  ploadbar=  1.01150314909609E+05
 cg2d: Sum(rhs),rhsMax =  -8.19075656626822E+01  1.50879098470448E+00
(PID.TID 0000.0001)  ploadbar=  1.01150690189396E+05
 cg2d: Sum(rhs),rhsMax =  -8.21338165963924E+01  1.50493585679849E+00
(PID.TID 0000.0001)  ploadbar=  1.01151065469184E+05
 cg2d: Sum(rhs),rhsMax =  -8.23567501587285E+01  1.50119290823311E+00
(PID.TID 0000.0001)  ploadbar=  1.01152826998541E+05
 cg2d: Sum(rhs),rhsMax =  -8.25998653141562E+01  1.49713402419399E+00
(PID.TID 0000.0001)  ploadbar=  1.01154588527898E+05
 cg2d: Sum(rhs),rhsMax =  -8.28537215701130E+01  1.49293489367526E+00
(PID.TID 0000.0001)  ploadbar=  1.01156350057256E+05
 cg2d: Sum(rhs),rhsMax =  -8.31141275386065E+01  1.48867198445855E+00
(PID.TID 0000.0001)  ploadbar=  1.01158111586613E+05
 cg2d: Sum(rhs),rhsMax =  -8.33791938604807E+01  1.48437684008612E+00
(PID.TID 0000.0001)  ploadbar=  1.01159873115970E+05
 cg2d: Sum(rhs),rhsMax =  -8.36443655460963E+01  1.48012835718839E+00
(PID.TID 0000.0001)  ploadbar=  1.01161634645328E+05
 cg2d: Sum(rhs),rhsMax =  -8.38361443094597E+01  1.47722915687246E+00
(PID.TID 0000.0001)  ploadbar=  1.01161311865719E+05
 cg2d: Sum(rhs),rhsMax =  -8.40211853736070E+01  1.47449047531052E+00
(PID.TID 0000.0001)  ploadbar=  1.01160989086110E+05
 cg2d: Sum(rhs),rhsMax =  -8.42050544765262E+01  1.47181396228981E+00
(PID.TID 0000.0001)  ploadbar=  1.01160666306501E+05
 cg2d: Sum(rhs),rhsMax =  -8.43889425375294E+01  1.46917673109216E+00
(PID.TID 0000.0001)  ploadbar=  1.01160343526891E+05
 cg2d: Sum(rhs),rhsMax =  -8.45719235335645E+01  1.46659089594938E+00
(PID.TID 0000.0001)  ploadbar=  1.01160020747282E+05
 cg2d: Sum(rhs),rhsMax =  -8.47558005391557E+01  1.46401992616274E+00
(PID.TID 0000.0001)  ploadbar=  1.01159697967673E+05
 cg2d: Sum(rhs),rhsMax =  -8.48937621821846E+01  1.46227271305292E+00
(PID.TID 0000.0001)  ploadbar=  1.01159432137758E+05
 cg2d: Sum(rhs),rhsMax =  -8.50200236372639E+01  1.46075573363856E+00
(PID.TID 0000.0001)  ploadbar=  1.01159166307842E+05
 cg2d: Sum(rhs),rhsMax =  -8.51590155602038E+01  1.45904718881141E+00
(PID.TID 0000.0001)  ploadbar=  1.01158900477926E+05
 cg2d: Sum(rhs),rhsMax =  -8.53092591074017E+01  1.45717165352101E+00
(PID.TID 0000.0001)  ploadbar=  1.01158634648011E+05
 cg2d: Sum(rhs),rhsMax =  -8.54645100889219E+01  1.45523617110019E+00
(PID.TID 0000.0001)  ploadbar=  1.01158368818095E+05
 cg2d: Sum(rhs),rhsMax =  -8.56251933244499E+01  1.45323273126563E+00
(PID.TID 0000.0001)  ploadbar=  1.01158102988179E+05
 cg2d: Sum(rhs),rhsMax =  -8.58042095187059E+01  1.45089984785168E+00
(PID.TID 0000.0001)  ploadbar=  1.01158055346025E+05
 cg2d: Sum(rhs),rhsMax =  -8.59748170554207E+01  1.44868900872345E+00
(PID.TID 0000.0001)  ploadbar=  1.01158007703871E+05
 cg2d: Sum(rhs),rhsMax =  -8.61472021716168E+01  1.44642703236017E+00
(PID.TID 0000.0001)  ploadbar=  1.01157960061717E+05
 cg2d: Sum(rhs),rhsMax =  -8.63349787781834E+01  1.44388595970153E+00
(PID.TID 0000.0001)  ploadbar=  1.01157912419563E+05
 cg2d: Sum(rhs),rhsMax =  -8.65376956628826E+01  1.44107523582312E+00
(PID.TID 0000.0001)  ploadbar=  1.01157864777409E+05
 cg2d: Sum(rhs),rhsMax =  -8.67576192201461E+01  1.43795749061881E+00
(PID.TID 0000.0001)  ploadbar=  1.01157817135255E+05
 cg2d: Sum(rhs),rhsMax =  -8.70517715017250E+01  1.43366869056854E+00
(PID.TID 0000.0001)  ploadbar=  1.01157637928724E+05
 cg2d: Sum(rhs),rhsMax =  -8.73628264366391E+01  1.42916730634650E+00
(PID.TID 0000.0001)  ploadbar=  1.01157458722193E+05
 cg2d: Sum(rhs),rhsMax =  -8.76725984406635E+01  1.42475404037575E+00
(PID.TID 0000.0001)  ploadbar=  1.01157279515662E+05
 cg2d: Sum(rhs),rhsMax =  -8.79877194781846E+01  1.42032152944666E+00
(PID.TID 0000.0001)  ploadbar=  1.01157100309131E+05
 cg2d: Sum(rhs),rhsMax =  -8.83079509123021E+01  1.41587518122014E+00
(PID.TID 0000.0001)  ploadbar=  1.01156921102600E+05
 cg2d: Sum(rhs),rhsMax =  -8.80851794324563E+01  1.42019698656119E+00
(PID.TID 0000.0001)  ploadbar=  1.01156741896069E+05
 cg2d: Sum(rhs),rhsMax =  -8.76364172545100E+01  1.42821488262212E+00
(PID.TID 0000.0001)  ploadbar=  1.01155992284353E+05
 cg2d: Sum(rhs),rhsMax =  -8.72206108714660E+01  1.43577531929032E+00
(PID.TID 0000.0001)  ploadbar=  1.01155242672637E+05
 cg2d: Sum(rhs),rhsMax =  -8.68338374766148E+01  1.44293084627722E+00
(PID.TID 0000.0001)  ploadbar=  1.01154493060922E+05
 cg2d: Sum(rhs),rhsMax =  -8.64827442821233E+01  1.44955465276088E+00
(PID.TID 0000.0001)  ploadbar=  1.01153743449206E+05
 cg2d: Sum(rhs),rhsMax =  -8.61688519889489E+01  1.45560569957131E+00
(PID.TID 0000.0001)  ploadbar=  1.01152993837490E+05
 cg2d: Sum(rhs),rhsMax =  -8.58881908013558E+01  1.46113691787593E+00
(PID.TID 0000.0001)  ploadbar=  1.01152244225775E+05
 cg2d: Sum(rhs),rhsMax =  -8.56485678980537E+01  1.46599340069593E+00
(PID.TID 0000.0001)  ploadbar=  1.01152114683393E+05
 cg2d: Sum(rhs),rhsMax =  -8.54627233025215E+01  1.46994280155648E+00
(PID.TID 0000.0001)  ploadbar=  1.01151985141011E+05
 cg2d: Sum(rhs),rhsMax =  -8.53048899414166E+01  1.47341507325286E+00
(PID.TID 0000.0001)  ploadbar=  1.01151855598629E+05
 cg2d: Sum(rhs),rhsMax =  -8.52304110076666E+01  1.47544720619691E+00
(PID.TID 0000.0001)  ploadbar=  1.01151726056247E+05
 cg2d: Sum(rhs),rhsMax =  -8.52272448397562E+01  1.47623668782227E+00
(PID.TID 0000.0001)  ploadbar=  1.01151596513866E+05
 cg2d: Sum(rhs),rhsMax =  -8.52711325660862E+01  1.47620251934144E+00
(PID.TID 0000.0001)  ploadbar=  1.01151466971484E+05
 cg2d: Sum(rhs),rhsMax =  -8.53420859305422E+01  1.47564890516093E+00
(PID.TID 0000.0001)  ploadbar=  1.01150989720174E+05
 cg2d: Sum(rhs),rhsMax =  -8.54035828772584E+01  1.47520741330375E+00
(PID.TID 0000.0001)  ploadbar=  1.01150512468864E+05
 cg2d: Sum(rhs),rhsMax =  -8.54546956359571E+01  1.47489374855364E+00
(PID.TID 0000.0001)  ploadbar=  1.01150035217555E+05
 cg2d: Sum(rhs),rhsMax =  -8.54930738279664E+01  1.47474900207512E+00
(PID.TID 0000.0001)  ploadbar=  1.01149557966245E+05
 cg2d: Sum(rhs),rhsMax =  -8.55319614805703E+01  1.47454539290669E+00
(PID.TID 0000.0001)  ploadbar=  1.01149080714935E+05
 cg2d: Sum(rhs),rhsMax =  -8.55963934348445E+01  1.47385238234940E+00
(PID.TID 0000.0001)  ploadbar=  1.01148603463625E+05
 cg2d: Sum(rhs),rhsMax =  -8.57392111124443E+01  1.47184515222166E+00
(PID.TID 0000.0001)  ploadbar=  1.01148160941748E+05
 cg2d: Sum(rhs),rhsMax =  -8.59124445170348E+01  1.46935299304822E+00
(PID.TID 0000.0001)  ploadbar=  1.01147718419871E+05
 cg2d: Sum(rhs),rhsMax =  -8.61348157605237E+01  1.46606307823998E+00
(PID.TID 0000.0001)  ploadbar=  1.01147275897994E+05
 cg2d: Sum(rhs),rhsMax =  -8.63928818702680E+01  1.46221547345961E+00
(PID.TID 0000.0001)  ploadbar=  1.01146833376117E+05
 cg2d: Sum(rhs),rhsMax =  -8.66570300328769E+01  1.45831812751223E+00
(PID.TID 0000.0001)  ploadbar=  1.01146390854240E+05
 cg2d: Sum(rhs),rhsMax =  -8.68963315086235E+01  1.45489134287681E+00
(PID.TID 0000.0001)  ploadbar=  1.01145948332363E+05
 cg2d: Sum(rhs),rhsMax =  -8.71986592914154E+01  1.45045354740015E+00
(PID.TID 0000.0001)  ploadbar=  1.01147004052332E+05
 cg2d: Sum(rhs),rhsMax =  -8.75273533725936E+01  1.44562927929204E+00
(PID.TID 0000.0001)  ploadbar=  1.01148059772301E+05
 cg2d: Sum(rhs),rhsMax =  -8.78743651923302E+01  1.44055910212795E+00
(PID.TID 0000.0001)  ploadbar=  1.01149115492269E+05
 cg2d: Sum(rhs),rhsMax =  -8.82228277673495E+01  1.43552227857406E+00
(PID.TID 0000.0001)  ploadbar=  1.01150171212238E+05
 cg2d: Sum(rhs),rhsMax =  -8.85812943035419E+01  1.43038073601454E+00
(PID.TID 0000.0001)  ploadbar=  1.01151226932207E+05
 cg2d: Sum(rhs),rhsMax =  -8.89355664477711E+01  1.42536516066398E+00
(PID.TID 0000.0001)  ploadbar=  1.01152282652175E+05
 cg2d: Sum(rhs),rhsMax =  -8.91929073736597E+01  1.42192720570344E+00
(PID.TID 0000.0001)  ploadbar=  1.01152355378476E+05
 cg2d: Sum(rhs),rhsMax =  -8.94016302813334E+01  1.41927423654948E+00
(PID.TID 0000.0001)  ploadbar=  1.01152428104776E+05
 cg2d: Sum(rhs),rhsMax =  -8.95496462074107E+01  1.41758812575633E+00
(PID.TID 0000.0001)  ploadbar=  1.01152500831077E+05
 cg2d: Sum(rhs),rhsMax =  -8.96832593099274E+01  1.41612758979596E+00
(PID.TID 0000.0001)  ploadbar=  1.01152573557377E+05
 cg2d: Sum(rhs),rhsMax =  -8.98453613323294E+01  1.41421478966846E+00
(PID.TID 0000.0001)  ploadbar=  1.01152646283678E+05
 cg2d: Sum(rhs),rhsMax =  -9.00674628804643E+01  1.41135913554862E+00
(PID.TID 0000.0001)  ploadbar=  1.01152719009978E+05
 cg2d: Sum(rhs),rhsMax =  -9.03100801263101E+01  1.40817402730147E+00
(PID.TID 0000.0001)  ploadbar=  1.01152213060267E+05
 cg2d: Sum(rhs),rhsMax =  -9.05965156855538E+01  1.40430267221714E+00
(PID.TID 0000.0001)  ploadbar=  1.01151707110556E+05
 cg2d: Sum(rhs),rhsMax =  -9.09053572719064E+01  1.40008484808130E+00
(PID.TID 0000.0001)  ploadbar=  1.01151201160844E+05
 cg2d: Sum(rhs),rhsMax =  -9.12233593885659E+01  1.39572791728816E+00
(PID.TID 0000.0001)  ploadbar=  1.01150695211133E+05
 cg2d: Sum(rhs),rhsMax =  -9.15320120877480E+01  1.39151682615702E+00
(PID.TID 0000.0001)  ploadbar=  1.01150189261421E+05
 cg2d: Sum(rhs),rhsMax =  -9.18238063948925E+01  1.38756177022078E+00
(PID.TID 0000.0001)  ploadbar=  1.01149683311710E+05
 cg2d: Sum(rhs),rhsMax =  -9.21047533874004E+01  1.38380012579113E+00
(PID.TID 0000.0001)  ploadbar=  1.01149428290261E+05
 cg2d: Sum(rhs),rhsMax =  -9.23679593511039E+01  1.38033066483370E+00
(PID.TID 0000.0001)  ploadbar=  1.01149173268811E+05
 cg2d: Sum(rhs),rhsMax =  -9.26315125976075E+01  1.37687905923586E+00
(PID.TID 0000.0001)  ploadbar=  1.01148918247362E+05
 cg2d: Sum(rhs),rhsMax =  -9.28890610233898E+01  1.37353791833992E+00
(PID.TID 0000.0001)  ploadbar=  1.01148663225913E+05
 cg2d: Sum(rhs),rhsMax =  -9.31463081520296E+01  1.37021824488791E+00
(PID.TID 0000.0001)  ploadbar=  1.01148408204464E+05
 cg2d: Sum(rhs),rhsMax =  -9.34068448021585E+01  1.36686787212268E+00
(PID.TID 0000.0001)  ploadbar=  1.01148153183014E+05
 cg2d: Sum(rhs),rhsMax =  -9.36910810492289E+01  1.36319915521362E+00
(PID.TID 0000.0001)  ploadbar=  1.01147683072065E+05
 cg2d: Sum(rhs),rhsMax =  -9.39545048127047E+01  1.35986286695693E+00
(PID.TID 0000.0001)  ploadbar=  1.01147212961115E+05
 cg2d: Sum(rhs),rhsMax =  -9.42047479962648E+01  1.35674445863226E+00
(PID.TID 0000.0001)  ploadbar=  1.01146742850166E+05
 cg2d: Sum(rhs),rhsMax =  -9.44221009388924E+01  1.35412302216965E+00
(PID.TID 0000.0001)  ploadbar=  1.01146272739216E+05
 cg2d: Sum(rhs),rhsMax =  -9.45946419327336E+01  1.35215961902307E+00
(PID.TID 0000.0001)  ploadbar=  1.01145802628267E+05
 cg2d: Sum(rhs),rhsMax =  -9.44855316342686E+01  1.35423248496094E+00
(PID.TID 0000.0001)  ploadbar=  1.01145332517317E+05
 cg2d: Sum(rhs),rhsMax =  -9.43209681803727E+01  1.35710422559400E+00
(PID.TID 0000.0001)  ploadbar=  1.01145040983568E+05
 cg2d: Sum(rhs),rhsMax =  -9.41359670836745E+01  1.36027757756815E+00
(PID.TID 0000.0001)  ploadbar=  1.01144749449819E+05
 cg2d: Sum(rhs),rhsMax =  -9.39296706848241E+01  1.36376813461368E+00
(PID.TID 0000.0001)  ploadbar=  1.01144457916069E+05
 cg2d: Sum(rhs),rhsMax =  -9.37076853920286E+01  1.36749821972676E+00
(PID.TID 0000.0001)  ploadbar=  1.01144166382320E+05
 cg2d: Sum(rhs),rhsMax =  -9.34806792701364E+01  1.37131306185540E+00
(PID.TID 0000.0001)  ploadbar=  1.01143874848571E+05
 cg2d: Sum(rhs),rhsMax =  -9.32595778399256E+01  1.37505253788723E+00
(PID.TID 0000.0001)  ploadbar=  1.01143583314822E+05
 cg2d: Sum(rhs),rhsMax =  -9.30741936886907E+01  1.37825722393777E+00
(PID.TID 0000.0001)  ploadbar=  1.01143510338073E+05
 cg2d: Sum(rhs),rhsMax =  -9.29130412799411E+01  1.38108964388265E+00
(PID.TID 0000.0001)  ploadbar=  1.01143437361324E+05
 cg2d: Sum(rhs),rhsMax =  -9.27791896476561E+01  1.38350002410765E+00
(PID.TID 0000.0001)  ploadbar=  1.01143364384575E+05
 cg2d: Sum(rhs),rhsMax =  -9.26697639705215E+01  1.38552526066181E+00
(PID.TID 0000.0001)  ploadbar=  1.01143291407827E+05
 cg2d: Sum(rhs),rhsMax =  -9.25781977774939E+01  1.38725881790822E+00
(PID.TID 0000.0001)  ploadbar=  1.01143218431078E+05
 cg2d: Sum(rhs),rhsMax =  -9.24966544804637E+01  1.38881722597874E+00
(PID.TID 0000.0001)  ploadbar=  1.01143145454329E+05
 cg2d: Sum(rhs),rhsMax =  -9.24047733284625E+01  1.39057256473765E+00
(PID.TID 0000.0001)  ploadbar=  1.01142400999200E+05
 cg2d: Sum(rhs),rhsMax =  -9.22965914506383E+01  1.39261359824595E+00
(PID.TID 0000.0001)  ploadbar=  1.01141656544072E+05
 cg2d: Sum(rhs),rhsMax =  -9.21647413174886E+01  1.39505355113813E+00
(PID.TID 0000.0001)  ploadbar=  1.01140912088943E+05
 cg2d: Sum(rhs),rhsMax =  -9.20101269502090E+01  1.39788324061155E+00
(PID.TID 0000.0001)  ploadbar=  1.01140167633814E+05
 cg2d: Sum(rhs),rhsMax =  -9.18407860080122E+01  1.40098177303640E+00
(PID.TID 0000.0001)  ploadbar=  1.01139423178685E+05
 cg2d: Sum(rhs),rhsMax =  -9.16955664302434E+01  1.40375628236761E+00
(PID.TID 0000.0001)  ploadbar=  1.01138678723556E+05
 cg2d: Sum(rhs),rhsMax =  -9.15835415524737E+01  1.40603251582264E+00
(PID.TID 0000.0001)  ploadbar=  1.01138167990953E+05
 cg2d: Sum(rhs),rhsMax =  -9.15074065771906E+01  1.40776556294118E+00
(PID.TID 0000.0001)  ploadbar=  1.01137657258349E+05
 cg2d: Sum(rhs),rhsMax =  -9.14491892269049E+01  1.40922745928810E+00
(PID.TID 0000.0001)  ploadbar=  1.01137146525746E+05
 cg2d: Sum(rhs),rhsMax =  -9.13954660782232E+01  1.41062520643382E+00
(PID.TID 0000.0001)  ploadbar=  1.01136635793143E+05
 cg2d: Sum(rhs),rhsMax =  -9.13386750504845E+01  1.41207315748922E+00
(PID.TID 0000.0001)  ploadbar=  1.01136125060539E+05
 cg2d: Sum(rhs),rhsMax =  -9.12805339340673E+01  1.41354224715015E+00
(PID.TID 0000.0001)  ploadbar=  1.01135614327936E+05
 cg2d: Sum(rhs),rhsMax =  -9.14338975990460E+01  1.41173825175501E+00
(PID.TID 0000.0001)  ploadbar=  1.01136480980992E+05
 cg2d: Sum(rhs),rhsMax =  -9.22477487676499E+01  1.39984259709524E+00
(PID.TID 0000.0001)  ploadbar=  1.01137347634047E+05
 cg2d: Sum(rhs),rhsMax =  -9.30676755995669E+01  1.38806091641286E+00
(PID.TID 0000.0001)  ploadbar=  1.01138214287103E+05
 cg2d: Sum(rhs),rhsMax =  -9.38934080338793E+01  1.37639655140572E+00
(PID.TID 0000.0001)  ploadbar=  1.01139080940159E+05
 cg2d: Sum(rhs),rhsMax =  -9.47387204546373E+01  1.36464767718990E+00
(PID.TID 0000.0001)  ploadbar=  1.01139947593215E+05
 cg2d: Sum(rhs),rhsMax =  -9.56181092170863E+01  1.35261746924868E+00
(PID.TID 0000.0001)  ploadbar=  1.01140814246271E+05
 cg2d: Sum(rhs),rhsMax =  -9.65341480705611E+01  1.34027455020705E+00
(PID.TID 0000.0001)  ploadbar=  1.01141139651548E+05
 cg2d: Sum(rhs),rhsMax =  -9.74798904458346E+01  1.32773699098513E+00
(PID.TID 0000.0001)  ploadbar=  1.01141465056826E+05
 cg2d: Sum(rhs),rhsMax =  -9.84676257028151E+01  1.31485756041869E+00
(PID.TID 0000.0001)  ploadbar=  1.01141790462104E+05
 cg2d: Sum(rhs),rhsMax =  -9.95042369774774E+01  1.30157377492436E+00
(PID.TID 0000.0001)  ploadbar=  1.01142115867381E+05
 cg2d: Sum(rhs),rhsMax =  -1.00594097128041E+02  1.28786046551083E+00
(PID.TID 0000.0001)  ploadbar=  1.01142441272659E+05
 cg2d: Sum(rhs),rhsMax =  -1.01710425277392E+02  1.27408880636753E+00
(PID.TID 0000.0001)  ploadbar=  1.01142766677937E+05
 cg2d: Sum(rhs),rhsMax =  -1.01907800008974E+02  1.27198681876368E+00
(PID.TID 0000.0001)  ploadbar=  1.01142668819304E+05
 cg2d: Sum(rhs),rhsMax =  -1.02100879203466E+02  1.26994829725397E+00
(PID.TID 0000.0001)  ploadbar=  1.01142570960671E+05
 cg2d: Sum(rhs),rhsMax =  -1.02301938257927E+02  1.26781953349140E+00
(PID.TID 0000.0001)  ploadbar=  1.01142473102038E+05
 cg2d: Sum(rhs),rhsMax =  -1.02507832453660E+02  1.26564282992868E+00
(PID.TID 0000.0001)  ploadbar=  1.01142375243405E+05
 cg2d: Sum(rhs),rhsMax =  -1.02720580371762E+02  1.26339390975780E+00
(PID.TID 0000.0001)  ploadbar=  1.01142277384772E+05
 cg2d: Sum(rhs),rhsMax =  -1.02941325136520E+02  1.26105962534561E+00
(PID.TID 0000.0001)  ploadbar=  1.01142179526140E+05
 cg2d: Sum(rhs),rhsMax =  -1.03169989982864E+02  1.25863671954396E+00
(PID.TID 0000.0001)  ploadbar=  1.01143046417534E+05
 cg2d: Sum(rhs),rhsMax =  -1.03380462205423E+02  1.25644405850086E+00
(PID.TID 0000.0001)  ploadbar=  1.01143913308928E+05
 cg2d: Sum(rhs),rhsMax =  -1.03574000314421E+02  1.25446528751574E+00
(PID.TID 0000.0001)  ploadbar=  1.01144780200322E+05
 cg2d: Sum(rhs),rhsMax =  -1.03753256136638E+02  1.25266810972443E+00
(PID.TID 0000.0001)  ploadbar=  1.01145647091716E+05
 cg2d: Sum(rhs),rhsMax =  -1.03925224511165E+02  1.25096644483416E+00
(PID.TID 0000.0001)  ploadbar=  1.01146513983111E+05
 cg2d: Sum(rhs),rhsMax =  -1.04094589477981E+02  1.24930036998349E+00
(PID.TID 0000.0001)  ploadbar=  1.01147380874505E+05
 cg2d: Sum(rhs),rhsMax =  -1.04315637542315E+02  1.24702599701719E+00
(PID.TID 0000.0001)  ploadbar=  1.01147255817162E+05
 cg2d: Sum(rhs),rhsMax =  -1.04576798005342E+02  1.24428619871503E+00
(PID.TID 0000.0001)  ploadbar=  1.01147130759819E+05
 cg2d: Sum(rhs),rhsMax =  -1.04859128664934E+02  1.24131038330246E+00
(PID.TID 0000.0001)  ploadbar=  1.01147005702476E+05
 cg2d: Sum(rhs),rhsMax =  -1.04439701069275E+02  1.24667173447002E+00
(PID.TID 0000.0001)  ploadbar=  1.01146880645133E+05
 cg2d: Sum(rhs),rhsMax =  -1.03804205646956E+02  1.25468340747976E+00
(PID.TID 0000.0001)  ploadbar=  1.01146755587790E+05
 cg2d: Sum(rhs),rhsMax =  -1.03110839221606E+02  1.26350035695404E+00
(PID.TID 0000.0001)  ploadbar=  1.01146630530447E+05
 cg2d: Sum(rhs),rhsMax =  -1.02390303754554E+02  1.27275881645355E+00
(PID.TID 0000.0001)  ploadbar=  1.01147028103954E+05
 cg2d: Sum(rhs),rhsMax =  -1.01704501728413E+02  1.28169589303905E+00
(PID.TID 0000.0001)  ploadbar=  1.01147425677461E+05
 cg2d: Sum(rhs),rhsMax =  -1.01064670312523E+02  1.29015031639577E+00
(PID.TID 0000.0001)  ploadbar=  1.01147823250968E+05
 cg2d: Sum(rhs),rhsMax =  -1.00450644083297E+02  1.29836174387458E+00
(PID.TID 0000.0001)  ploadbar=  1.01148220824475E+05
 cg2d: Sum(rhs),rhsMax =  -9.98257546675415E+01  1.30679799405419E+00
(PID.TID 0000.0001)  ploadbar=  1.01148618397982E+05
 cg2d: Sum(rhs),rhsMax =  -9.92179676837837E+01  1.31509497078247E+00
(PID.TID 0000.0001)  ploadbar=  1.01149015971490E+05
 cg2d: Sum(rhs),rhsMax =  -9.85840327519727E+01  1.32385121655646E+00
(PID.TID 0000.0001)  ploadbar=  1.01149741075324E+05
 cg2d: Sum(rhs),rhsMax =  -9.79399806294445E+01  1.33286532257441E+00
(PID.TID 0000.0001)  ploadbar=  1.01150466179159E+05
 cg2d: Sum(rhs),rhsMax =  -9.72784157532782E+01  1.34224806431971E+00
(PID.TID 0000.0001)  ploadbar=  1.01151191282994E+05
 cg2d: Sum(rhs),rhsMax =  -9.66080134766867E+01  1.35188819962785E+00
(PID.TID 0000.0001)  ploadbar=  1.01151916386829E+05
 cg2d: Sum(rhs),rhsMax =  -9.59403505069727E+01  1.36162895302012E+00
(PID.TID 0000.0001)  ploadbar=  1.01152641490664E+05
 cg2d: Sum(rhs),rhsMax =  -9.52914327728142E+01  1.37123988250186E+00
(PID.TID 0000.0001)  ploadbar=  1.01153366594499E+05
 cg2d: Sum(rhs),rhsMax =  -9.47294981695751E+01  1.37972910954356E+00
(PID.TID 0000.0001)  ploadbar=  1.01154285010299E+05
 cg2d: Sum(rhs),rhsMax =  -9.42578619303667E+01  1.38700470916948E+00
(PID.TID 0000.0001)  ploadbar=  1.01155203426100E+05
 cg2d: Sum(rhs),rhsMax =  -9.38699601638845E+01  1.39312239211409E+00
(PID.TID 0000.0001)  ploadbar=  1.01156121841900E+05
 cg2d: Sum(rhs),rhsMax =  -9.35473362960469E+01  1.39832433261333E+00
(PID.TID 0000.0001)  ploadbar=  1.01157040257700E+05
 cg2d: Sum(rhs),rhsMax =  -9.32757444439273E+01  1.40280148036339E+00
(PID.TID 0000.0001)  ploadbar=  1.01157958673501E+05
 cg2d: Sum(rhs),rhsMax =  -9.30446327095927E+01  1.40669459248438E+00
(PID.TID 0000.0001)  ploadbar=  1.01158877089301E+05
 cg2d: Sum(rhs),rhsMax =  -9.27489884877035E+01  1.41158250087148E+00
(PID.TID 0000.0001)  ploadbar=  1.01159391863457E+05
 cg2d: Sum(rhs),rhsMax =  -9.24482689490849E+01  1.41657173374751E+00
(PID.TID 0000.0001)  ploadbar=  1.01159906637612E+05
 cg2d: Sum(rhs),rhsMax =  -9.21753204031442E+01  1.42115803972160E+00
(PID.TID 0000.0001)  ploadbar=  1.01160421411768E+05
 cg2d: Sum(rhs),rhsMax =  -9.19558349868190E+01  1.42493230968115E+00
(PID.TID 0000.0001)  ploadbar=  1.01160936185924E+05
 cg2d: Sum(rhs),rhsMax =  -9.18205763808437E+01  1.42739984459506E+00
(PID.TID 0000.0001)  ploadbar=  1.01161450960079E+05
 cg2d: Sum(rhs),rhsMax =  -9.17929028079792E+01  1.42818120276836E+00
(PID.TID 0000.0001)  ploadbar=  1.01161965734235E+05
 cg2d: Sum(rhs),rhsMax =  -9.20293152092910E+01  1.42484755499414E+00
(PID.TID 0000.0001)  ploadbar=  1.01161829403668E+05
 cg2d: Sum(rhs),rhsMax =  -9.24542433996237E+01  1.41861657465178E+00
(PID.TID 0000.0001)  ploadbar=  1.01161693073101E+05
 cg2d: Sum(rhs),rhsMax =  -9.30649484728766E+01  1.40960562581381E+00
(PID.TID 0000.0001)  ploadbar=  1.01161556742534E+05
 cg2d: Sum(rhs),rhsMax =  -9.38431150205139E+01  1.39819336944761E+00
(PID.TID 0000.0001)  ploadbar=  1.01161420411967E+05
 cg2d: Sum(rhs),rhsMax =  -9.47608387413864E+01  1.38490647598325E+00
(PID.TID 0000.0001)  ploadbar=  1.01161284081400E+05
 cg2d: Sum(rhs),rhsMax =  -9.57606410127036E+01  1.37067587228598E+00
(PID.TID 0000.0001)  ploadbar=  1.01161147750833E+05
 cg2d: Sum(rhs),rhsMax =  -9.65283026896687E+01  1.36004759375198E+00
(PID.TID 0000.0001)  ploadbar=  1.01160942490097E+05
 cg2d: Sum(rhs),rhsMax =  -9.70474093892407E+01  1.35308617725679E+00
(PID.TID 0000.0001)  ploadbar=  1.01160737229361E+05
 cg2d: Sum(rhs),rhsMax =  -9.72898084463266E+01  1.35006742987565E+00
(PID.TID 0000.0001)  ploadbar=  1.01160531968625E+05
 cg2d: Sum(rhs),rhsMax =  -9.69515389649279E+01  1.35516928539893E+00
(PID.TID 0000.0001)  ploadbar=  1.01160326707889E+05
 cg2d: Sum(rhs),rhsMax =  -9.66113112141803E+01  1.36036980579819E+00
(PID.TID 0000.0001)  ploadbar=  1.01160121447153E+05
 cg2d: Sum(rhs),rhsMax =  -9.62588050705255E+01  1.36581485053563E+00
(PID.TID 0000.0001)  ploadbar=  1.01159916186417E+05
 cg2d: Sum(rhs),rhsMax =  -9.59828659118744E+01  1.37021759253270E+00
(PID.TID 0000.0001)  ploadbar=  1.01159992658922E+05
 cg2d: Sum(rhs),rhsMax =  -9.57105917098170E+01  1.37460699408340E+00
(PID.TID 0000.0001)  ploadbar=  1.01160069131427E+05
 cg2d: Sum(rhs),rhsMax =  -9.54062480252811E+01  1.37949633951455E+00
(PID.TID 0000.0001)  ploadbar=  1.01160145603932E+05
 cg2d: Sum(rhs),rhsMax =  -9.50690172314234E+01  1.38490673400068E+00
(PID.TID 0000.0001)  ploadbar=  1.01160222076437E+05
 cg2d: Sum(rhs),rhsMax =  -9.47033923274606E+01  1.39078505501048E+00
(PID.TID 0000.0001)  ploadbar=  1.01160298548942E+05
 cg2d: Sum(rhs),rhsMax =  -9.43052782089518E+01  1.39720205519726E+00
(PID.TID 0000.0001)  ploadbar=  1.01160375021447E+05
 cg2d: Sum(rhs),rhsMax =  -9.40316528251947E+01  1.40181277700964E+00
(PID.TID 0000.0001)  ploadbar=  1.01161637482390E+05
 cg2d: Sum(rhs),rhsMax =  -9.37581801926123E+01  1.40644634862684E+00
(PID.TID 0000.0001)  ploadbar=  1.01162899943333E+05
 cg2d: Sum(rhs),rhsMax =  -9.34546327019169E+01  1.41155918908745E+00
(PID.TID 0000.0001)  ploadbar=  1.01164162404276E+05
 cg2d: Sum(rhs),rhsMax =  -9.31282405854621E+01  1.41704917738365E+00
(PID.TID 0000.0001)  ploadbar=  1.01165424865219E+05
 cg2d: Sum(rhs),rhsMax =  -9.27638779118609E+01  1.42315395431470E+00
(PID.TID 0000.0001)  ploadbar=  1.01166687326162E+05
 cg2d: Sum(rhs),rhsMax =  -9.24397083733147E+01  1.42868036740101E+00
(PID.TID 0000.0001)  ploadbar=  1.01167949787105E+05
 cg2d: Sum(rhs),rhsMax =  -9.21863931671937E+01  1.43311389411013E+00
(PID.TID 0000.0001)  ploadbar=  1.01168406212032E+05
 cg2d: Sum(rhs),rhsMax =  -9.20413746629803E+01  1.43584984806832E+00
(PID.TID 0000.0001)  ploadbar=  1.01168862636959E+05
 cg2d: Sum(rhs),rhsMax =  -9.20012387523247E+01  1.43692416452249E+00
(PID.TID 0000.0001)  ploadbar=  1.01169319061885E+05
 cg2d: Sum(rhs),rhsMax =  -9.20451108998533E+01  1.43665415651222E+00
(PID.TID 0000.0001)  ploadbar=  1.01169775486812E+05
 cg2d: Sum(rhs),rhsMax =  -9.28400698857931E+01  1.42472982362931E+00
(PID.TID 0000.0001)  ploadbar=  1.01170231911739E+05
 cg2d: Sum(rhs),rhsMax =  -9.40313245048191E+01  1.40701739699988E+00
(PID.TID 0000.0001)  ploadbar=  1.01170688336665E+05
 cg2d: Sum(rhs),rhsMax =  -9.51990350988953E+01  1.39011800407978E+00
(PID.TID 0000.0001)  ploadbar=  1.01170970359040E+05
 cg2d: Sum(rhs),rhsMax =  -9.63378548448422E+01  1.37406990676016E+00
(PID.TID 0000.0001)  ploadbar=  1.01171252381415E+05
 cg2d: Sum(rhs),rhsMax =  -9.74105995922022E+01  1.35934702579496E+00
(PID.TID 0000.0001)  ploadbar=  1.01171534403790E+05
 cg2d: Sum(rhs),rhsMax =  -9.83998115533184E+01  1.34611312002425E+00
(PID.TID 0000.0001)  ploadbar=  1.01171816426164E+05
 cg2d: Sum(rhs),rhsMax =  -9.93008101857340E+01  1.33435322848257E+00
(PID.TID 0000.0001)  ploadbar=  1.01172098448539E+05
 cg2d: Sum(rhs),rhsMax =  -1.00113260213501E+02  1.32399914758988E+00
(PID.TID 0000.0001)  ploadbar=  1.01172380470914E+05
 cg2d: Sum(rhs),rhsMax =  -1.00828345356510E+02  1.31508016569635E+00
(PID.TID 0000.0001)  ploadbar=  1.01171287150819E+05
 cg2d: Sum(rhs),rhsMax =  -1.01509638005640E+02  1.30672346166229E+00
(PID.TID 0000.0001)  ploadbar=  1.01170193830724E+05
 cg2d: Sum(rhs),rhsMax =  -1.02148488097164E+02  1.29901817451608E+00
(PID.TID 0000.0001)  ploadbar=  1.01169100510629E+05
 cg2d: Sum(rhs),rhsMax =  -1.02725239080022E+02  1.29218946047343E+00
(PID.TID 0000.0001)  ploadbar=  1.01168007190534E+05
 cg2d: Sum(rhs),rhsMax =  -1.03236604207917E+02  1.28625275745145E+00
(PID.TID 0000.0001)  ploadbar=  1.01166913870439E+05
 cg2d: Sum(rhs),rhsMax =  -1.03679492149385E+02  1.28122111269405E+00
(PID.TID 0000.0001)  ploadbar=  1.01165820550345E+05
 cg2d: Sum(rhs),rhsMax =  -1.04003838059716E+02  1.27767633375915E+00
(PID.TID 0000.0001)  ploadbar=  1.01164894956261E+05
 cg2d: Sum(rhs),rhsMax =  -1.04067166823879E+02  1.27733787194322E+00
(PID.TID 0000.0001)  ploadbar=  1.01163969362176E+05
 cg2d: Sum(rhs),rhsMax =  -1.03804773608500E+02  1.28099555430564E+00
(PID.TID 0000.0001)  ploadbar=  1.01163043768092E+05
 cg2d: Sum(rhs),rhsMax =  -1.03528439179167E+02  1.28483355586212E+00
(PID.TID 0000.0001)  ploadbar=  1.01162118174008E+05
 cg2d: Sum(rhs),rhsMax =  -1.03223608796130E+02  1.28903640734938E+00
(PID.TID 0000.0001)  ploadbar=  1.01161192579924E+05
 cg2d: Sum(rhs),rhsMax =  -1.02952827217953E+02  1.29282437499171E+00
(PID.TID 0000.0001)  ploadbar=  1.01160266985840E+05
 cg2d: Sum(rhs),rhsMax =  -1.02800933525229E+02  1.29510517093810E+00
(PID.TID 0000.0001)  ploadbar=  1.01159805414882E+05
 cg2d: Sum(rhs),rhsMax =  -1.03189284428770E+02  1.29057177823722E+00
(PID.TID 0000.0001)  ploadbar=  1.01159343843923E+05
 cg2d: Sum(rhs),rhsMax =  -1.04575017989039E+02  1.27377830651082E+00
(PID.TID 0000.0001)  ploadbar=  1.01158882272965E+05
 cg2d: Sum(rhs),rhsMax =  -1.06006926294397E+02  1.25684881812515E+00
(PID.TID 0000.0001)  ploadbar=  1.01158420702006E+05
 cg2d: Sum(rhs),rhsMax =  -1.07451787952546E+02  1.24019404294403E+00
(PID.TID 0000.0001)  ploadbar=  1.01157959131048E+05
 cg2d: Sum(rhs),rhsMax =  -1.08003160555590E+02  1.23407899360659E+00
(PID.TID 0000.0001)  ploadbar=  1.01157497560090E+05
 cg2d: Sum(rhs),rhsMax =  -1.08375426176069E+02  1.23007289034460E+00
(PID.TID 0000.0001)  ploadbar=  1.01158653440307E+05
 cg2d: Sum(rhs),rhsMax =  -1.08723489420604E+02  1.22638441786488E+00
(PID.TID 0000.0001)  ploadbar=  1.01159809320524E+05
 cg2d: Sum(rhs),rhsMax =  -1.09066438996568E+02  1.22279459533169E+00
(PID.TID 0000.0001)  ploadbar=  1.01160965200741E+05
 cg2d: Sum(rhs),rhsMax =  -1.09405572559313E+02  1.21928762419318E+00
(PID.TID 0000.0001)  ploadbar=  1.01162121080958E+05
 cg2d: Sum(rhs),rhsMax =  -1.09731845511891E+02  1.21596258018745E+00
(PID.TID 0000.0001)  ploadbar=  1.01163276961175E+05
 cg2d: Sum(rhs),rhsMax =  -1.10045441750397E+02  1.21281605145109E+00
(PID.TID 0000.0001)  ploadbar=  1.01164432841392E+05
 cg2d: Sum(rhs),rhsMax =  -1.10265074577916E+02  1.21073143716104E+00
(PID.TID 0000.0001)  ploadbar=  1.01164688998058E+05
 cg2d: Sum(rhs),rhsMax =  -1.10475834517255E+02  1.20876532220690E+00
(PID.TID 0000.0001)  ploadbar=  1.01164945154723E+05
 cg2d: Sum(rhs),rhsMax =  -1.10678866336061E+02  1.20690417826166E+00
(PID.TID 0000.0001)  ploadbar=  1.01165201311388E+05
 cg2d: Sum(rhs),rhsMax =  -1.10721087399884E+02  1.20681300466339E+00
(PID.TID 0000.0001)  ploadbar=  1.01165457468054E+05
 cg2d: Sum(rhs),rhsMax =  -1.10910273448122E+02  1.20513627059347E+00
(PID.TID 0000.0001)  ploadbar=  1.01165713624719E+05
 cg2d: Sum(rhs),rhsMax =  -1.11313266447636E+02  1.20116776612271E+00
(PID.TID 0000.0001)  ploadbar=  1.01165969781384E+05
 cg2d: Sum(rhs),rhsMax =  -1.11472362953666E+02  1.19983376679802E+00
(PID.TID 0000.0001)  ploadbar=  1.01166204440021E+05
 cg2d: Sum(rhs),rhsMax =  -1.11627399674216E+02  1.19853145427901E+00
(PID.TID 0000.0001)  ploadbar=  1.01166439098658E+05
 cg2d: Sum(rhs),rhsMax =  -1.11777706027833E+02  1.19726889731968E+00
(PID.TID 0000.0001)  ploadbar=  1.01166673757295E+05
 cg2d: Sum(rhs),rhsMax =  -1.11932975867246E+02  1.19594227247032E+00
(PID.TID 0000.0001)  ploadbar=  1.01166908415932E+05
 cg2d: Sum(rhs),rhsMax =  -1.11203451198210E+02  1.20410918763111E+00
(PID.TID 0000.0001)  ploadbar=  1.01167143074569E+05
 cg2d: Sum(rhs),rhsMax =  -1.09933630745465E+02  1.21832682526564E+00
(PID.TID 0000.0001)  ploadbar=  1.01167377733206E+05
 cg2d: Sum(rhs),rhsMax =  -1.08613047104198E+02  1.23342585031152E+00
(PID.TID 0000.0001)  ploadbar=  1.01167566848220E+05
 cg2d: Sum(rhs),rhsMax =  -1.07264801594983E+02  1.24919081690759E+00
(PID.TID 0000.0001)  ploadbar=  1.01167755963235E+05
 cg2d: Sum(rhs),rhsMax =  -1.05891567370246E+02  1.26562724269928E+00
(PID.TID 0000.0001)  ploadbar=  1.01167945078249E+05
 cg2d: Sum(rhs),rhsMax =  -1.04521381786509E+02  1.28242842119078E+00
(PID.TID 0000.0001)  ploadbar=  1.01168134193263E+05
 cg2d: Sum(rhs),rhsMax =  -1.03197561491737E+02  1.29906227677752E+00
(PID.TID 0000.0001)  ploadbar=  1.01168323308278E+05
 cg2d: Sum(rhs),rhsMax =  -1.02032252934421E+02  1.31405378176384E+00
(PID.TID 0000.0001)  ploadbar=  1.01168512423292E+05
 cg2d: Sum(rhs),rhsMax =  -1.01144305002827E+02  1.32576948241001E+00
(PID.TID 0000.0001)  ploadbar=  1.01169562519473E+05
 cg2d: Sum(rhs),rhsMax =  -1.00677027538374E+02  1.33212473916230E+00
(PID.TID 0000.0001)  ploadbar=  1.01170612615655E+05
 cg2d: Sum(rhs),rhsMax =  -1.00628228623906E+02  1.33299317209729E+00
(PID.TID 0000.0001)  ploadbar=  1.01171662711836E+05
 cg2d: Sum(rhs),rhsMax =  -1.02504026031609E+02  1.30883619866116E+00
(PID.TID 0000.0001)  ploadbar=  1.01172712808017E+05
 cg2d: Sum(rhs),rhsMax =  -1.04804941463940E+02  1.28035159010132E+00
(PID.TID 0000.0001)  ploadbar=  1.01173762904199E+05
 cg2d: Sum(rhs),rhsMax =  -1.07592820537922E+02  1.24743761113038E+00
(PID.TID 0000.0001)  ploadbar=  1.01174813000380E+05
 cg2d: Sum(rhs),rhsMax =  -1.11141779633372E+02  1.20788178108269E+00
(PID.TID 0000.0001)  ploadbar=  1.01175247032545E+05
 cg2d: Sum(rhs),rhsMax =  -1.15152011892989E+02  1.16610502729981E+00
(PID.TID 0000.0001)  ploadbar=  1.01175681064710E+05
 cg2d: Sum(rhs),rhsMax =  -1.15513804425657E+02  1.16276236317946E+00
(PID.TID 0000.0001)  ploadbar=  1.01176115096875E+05
 cg2d: Sum(rhs),rhsMax =  -1.13488303534278E+02  1.18385279393633E+00
(PID.TID 0000.0001)  ploadbar=  1.01176549129041E+05
 cg2d: Sum(rhs),rhsMax =  -1.11243042880528E+02  1.20811426594656E+00
(PID.TID 0000.0001)  ploadbar=  1.01176983161206E+05
 cg2d: Sum(rhs),rhsMax =  -1.09357883167814E+02  1.22933676112086E+00
(PID.TID 0000.0001)  ploadbar=  1.01177417193371E+05
 cg2d: Sum(rhs),rhsMax =  -1.07930203980311E+02  1.24599014467811E+00
(PID.TID 0000.0001)  ploadbar=  1.01177460220631E+05
 cg2d: Sum(rhs),rhsMax =  -1.06719727539599E+02  1.26050913059945E+00
(PID.TID 0000.0001)  ploadbar=  1.01177503247891E+05
 cg2d: Sum(rhs),rhsMax =  -1.05637756136205E+02  1.27380130194907E+00
(PID.TID 0000.0001)  ploadbar=  1.01177546275151E+05
 cg2d: Sum(rhs),rhsMax =  -1.04608473452625E+02  1.28671223503437E+00
(PID.TID 0000.0001)  ploadbar=  1.01177589302411E+05
 cg2d: Sum(rhs),rhsMax =  -1.03646186100249E+02  1.29903334026699E+00
(PID.TID 0000.0001)  ploadbar=  1.01177632329671E+05
 cg2d: Sum(rhs),rhsMax =  -1.02804965224987E+02  1.31003571237629E+00
(PID.TID 0000.0001)  ploadbar=  1.01177675356931E+05
 cg2d: Sum(rhs),rhsMax =  -1.02106753848912E+02  1.31934724551509E+00
(PID.TID 0000.0001)  ploadbar=  1.01177461613671E+05
 cg2d: Sum(rhs),rhsMax =  -1.01539901688091E+02  1.32704389201393E+00
(PID.TID 0000.0001)  ploadbar=  1.01177247870411E+05
 cg2d: Sum(rhs),rhsMax =  -1.01139729426815E+02  1.33260419250757E+00
(PID.TID 0000.0001)  ploadbar=  1.01177034127151E+05
 cg2d: Sum(rhs),rhsMax =  -1.00950214139784E+02  1.33539320214627E+00
(PID.TID 0000.0001)  ploadbar=  1.01176820383891E+05
 cg2d: Sum(rhs),rhsMax =  -1.01009379823225E+02  1.33487618590050E+00
(PID.TID 0000.0001)  ploadbar=  1.01176606640631E+05
 cg2d: Sum(rhs),rhsMax =  -1.01219360810164E+02  1.33234822263637E+00
(PID.TID 0000.0001)  ploadbar=  1.01176392897371E+05
 cg2d: Sum(rhs),rhsMax =  -1.01574595916481E+02  1.32796468651060E+00
(PID.TID 0000.0001)  ploadbar=  1.01176269949370E+05
 cg2d: Sum(rhs),rhsMax =  -1.02054219189303E+02  1.32203249502113E+00
(PID.TID 0000.0001)  ploadbar=  1.01176147001370E+05
 cg2d: Sum(rhs),rhsMax =  -1.02649878296394E+02  1.31470334267559E+00
(PID.TID 0000.0001)  ploadbar=  1.01176024053369E+05
 cg2d: Sum(rhs),rhsMax =  -1.03340315501812E+02  1.30629440500568E+00
(PID.TID 0000.0001)  ploadbar=  1.01175901105368E+05
 cg2d: Sum(rhs),rhsMax =  -1.04102718678960E+02  1.29713578952818E+00
(PID.TID 0000.0001)  ploadbar=  1.01175778157367E+05
 cg2d: Sum(rhs),rhsMax =  -1.04923987720848E+02  1.28742075408414E+00
(PID.TID 0000.0001)  ploadbar=  1.01175655209367E+05
 cg2d: Sum(rhs),rhsMax =  -1.05779014552996E+02  1.27745688676089E+00
(PID.TID 0000.0001)  ploadbar=  1.01175218792331E+05
 cg2d: Sum(rhs),rhsMax =  -1.06679358017989E+02  1.26712166991635E+00
(PID.TID 0000.0001)  ploadbar=  1.01174782375295E+05
 cg2d: Sum(rhs),rhsMax =  -1.07617837144933E+02  1.25652178918396E+00
(PID.TID 0000.0001)  ploadbar=  1.01174345958258E+05
 cg2d: Sum(rhs),rhsMax =  -1.08605492884950E+02  1.24554838186442E+00
(PID.TID 0000.0001)  ploadbar=  1.01173909541222E+05
 cg2d: Sum(rhs),rhsMax =  -1.09648459388962E+02  1.23415780193858E+00
(PID.TID 0000.0001)  ploadbar=  1.01173473124186E+05
 cg2d: Sum(rhs),rhsMax =  -1.10753962321805E+02  1.22229816843067E+00
(PID.TID 0000.0001)  ploadbar=  1.01173036707150E+05
 cg2d: Sum(rhs),rhsMax =  -1.11855404662302E+02  1.21071321385779E+00
(PID.TID 0000.0001)  ploadbar=  1.01172434636312E+05
 cg2d: Sum(rhs),rhsMax =  -1.12970019517949E+02  1.19921034275411E+00
(PID.TID 0000.0001)  ploadbar=  1.01171832565474E+05
 cg2d: Sum(rhs),rhsMax =  -1.12124449116308E+02  1.20869624752744E+00
(PID.TID 0000.0001)  ploadbar=  1.01171230494635E+05
 cg2d: Sum(rhs),rhsMax =  -1.09898852697699E+02  1.23362391219794E+00
(PID.TID 0000.0001)  ploadbar=  1.01170628423797E+05
 cg2d: Sum(rhs),rhsMax =  -1.07513544408012E+02  1.26145127374110E+00
(PID.TID 0000.0001)  ploadbar=  1.01170026352959E+05
 cg2d: Sum(rhs),rhsMax =  -1.04970633205985E+02  1.29247636589938E+00
(PID.TID 0000.0001)  ploadbar=  1.01169424282120E+05
 cg2d: Sum(rhs),rhsMax =  -1.02751780740101E+02  1.32083699095245E+00
(PID.TID 0000.0001)  ploadbar=  1.01168482885296E+05
 cg2d: Sum(rhs),rhsMax =  -1.00736866016073E+02  1.34768945862369E+00
(PID.TID 0000.0001)  ploadbar=  1.01167541488472E+05
 cg2d: Sum(rhs),rhsMax =  -9.89759654218304E+01  1.37208284509784E+00
(PID.TID 0000.0001)  ploadbar=  1.01166600091648E+05
 cg2d: Sum(rhs),rhsMax =  -9.74633145945341E+01  1.39377598391816E+00
(PID.TID 0000.0001)  ploadbar=  1.01165658694824E+05
 cg2d: Sum(rhs),rhsMax =  -9.61625556327514E+01  1.41300778256292E+00
(PID.TID 0000.0001)  ploadbar=  1.01164717298000E+05
 cg2d: Sum(rhs),rhsMax =  -9.50465159249156E+01  1.42995518409892E+00
(PID.TID 0000.0001)  ploadbar=  1.01163775901176E+05
 cg2d: Sum(rhs),rhsMax =  -9.43070459810686E+01  1.44154231649996E+00
(PID.TID 0000.0001)  ploadbar=  1.01162673587232E+05
 cg2d: Sum(rhs),rhsMax =  -9.37164319935833E+01  1.45102127958698E+00
(PID.TID 0000.0001)  ploadbar=  1.01161571273288E+05
 cg2d: Sum(rhs),rhsMax =  -9.32466396575612E+01  1.45874513692526E+00
(PID.TID 0000.0001)  ploadbar=  1.01160468959344E+05
 cg2d: Sum(rhs),rhsMax =  -9.29885377914942E+01  1.46322608337323E+00
(PID.TID 0000.0001)  ploadbar=  1.01159366645400E+05
 cg2d: Sum(rhs),rhsMax =  -9.29692072308167E+01  1.46397973178714E+00
(PID.TID 0000.0001)  ploadbar=  1.01158264331455E+05
 cg2d: Sum(rhs),rhsMax =  -9.32198434474153E+01  1.46050844232157E+00
(PID.TID 0000.0001)  ploadbar=  1.01157162017511E+05
 cg2d: Sum(rhs),rhsMax =  -9.37454482975303E+01  1.45280331440728E+00
(PID.TID 0000.0001)  ploadbar=  1.01155369734777E+05
 cg2d: Sum(rhs),rhsMax =  -9.46547850478585E+01  1.43934374793311E+00
(PID.TID 0000.0001)  ploadbar=  1.01153577452043E+05
 cg2d: Sum(rhs),rhsMax =  -9.55267305679329E+01  1.42671559561605E+00
(PID.TID 0000.0001)  ploadbar=  1.01151785169309E+05
 cg2d: Sum(rhs),rhsMax =  -9.63911441040413E+01  1.41444343287934E+00
(PID.TID 0000.0001)  ploadbar=  1.01149992886575E+05
 cg2d: Sum(rhs),rhsMax =  -9.71874282805312E+01  1.40338948679178E+00
(PID.TID 0000.0001)  ploadbar=  1.01148200603841E+05
 cg2d: Sum(rhs),rhsMax =  -9.78787835613089E+01  1.39402322973622E+00
(PID.TID 0000.0001)  ploadbar=  1.01146408321106E+05
 cg2d: Sum(rhs),rhsMax =  -9.84141947381672E+01  1.38697180827794E+00
(PID.TID 0000.0001)  ploadbar=  1.01145380892520E+05
 cg2d: Sum(rhs),rhsMax =  -9.88056567505472E+01  1.38199718028384E+00
(PID.TID 0000.0001)  ploadbar=  1.01144353463933E+05
 cg2d: Sum(rhs),rhsMax =  -9.90241061299613E+01  1.37945582883522E+00
(PID.TID 0000.0001)  ploadbar=  1.01143326035346E+05
 cg2d: Sum(rhs),rhsMax =  -9.92357745761478E+01  1.37700772695175E+00
(PID.TID 0000.0001)  ploadbar=  1.01142298606760E+05
 cg2d: Sum(rhs),rhsMax =  -9.95972706485437E+01  1.37248892838131E+00
(PID.TID 0000.0001)  ploadbar=  1.01141271178173E+05
 cg2d: Sum(rhs),rhsMax =  -1.00145434663906E+02  1.36544044701837E+00
(PID.TID 0000.0001)  ploadbar=  1.01140243749586E+05
 cg2d: Sum(rhs),rhsMax =  -1.00889076289203E+02  1.35581005948509E+00
(PID.TID 0000.0001)  ploadbar=  1.01139365022062E+05
 cg2d: Sum(rhs),rhsMax =  -1.01891466514424E+02  1.34287571689141E+00
(PID.TID 0000.0001)  ploadbar=  1.01138486294538E+05
 cg2d: Sum(rhs),rhsMax =  -1.03246534269692E+02  1.32562185895640E+00
(PID.TID 0000.0001)  ploadbar=  1.01137607567014E+05
 cg2d: Sum(rhs),rhsMax =  -1.04929747582530E+02  1.30469344693217E+00
(PID.TID 0000.0001)  ploadbar=  1.01136728839490E+05
 cg2d: Sum(rhs),rhsMax =  -1.06946973080245E+02  1.28038695646388E+00
(PID.TID 0000.0001)  ploadbar=  1.01135850111966E+05
 cg2d: Sum(rhs),rhsMax =  -1.09254740415581E+02  1.25360844162274E+00
(PID.TID 0000.0001)  ploadbar=  1.01134971384442E+05
 cg2d: Sum(rhs),rhsMax =  -1.11814841511538E+02  1.22517050644073E+00
(PID.TID 0000.0001)  ploadbar=  1.01134475751697E+05
 cg2d: Sum(rhs),rhsMax =  -1.14752146935098E+02  1.19407352102956E+00
(PID.TID 0000.0001)  ploadbar=  1.01133980118953E+05
 cg2d: Sum(rhs),rhsMax =  -1.18028292897332E+02  1.16118907808462E+00
(PID.TID 0000.0001)  ploadbar=  1.01133484486208E+05
 cg2d: Sum(rhs),rhsMax =  -1.21572156288445E+02  1.12759559835907E+00
(PID.TID 0000.0001)  ploadbar=  1.01132988853464E+05
 cg2d: Sum(rhs),rhsMax =  -1.25376841247282E+02  1.09362846271163E+00
(PID.TID 0000.0001)  ploadbar=  1.01132493220719E+05
 cg2d: Sum(rhs),rhsMax =  -1.29423911406154E+02  1.05967797540749E+00
(PID.TID 0000.0001)  ploadbar=  1.01131997587975E+05
 cg2d: Sum(rhs),rhsMax =  -1.33505837000648E+02  1.02752788982598E+00
(PID.TID 0000.0001)  ploadbar=  1.01132587970718E+05
 cg2d: Sum(rhs),rhsMax =  -1.35958549007582E+02  1.00924318080777E+00
(PID.TID 0000.0001)  ploadbar=  1.01133178353461E+05
 cg2d: Sum(rhs),rhsMax =  -1.36153011801300E+02  1.00806100338575E+00
(PID.TID 0000.0001)  ploadbar=  1.01133768736204E+05
 cg2d: Sum(rhs),rhsMax =  -1.36203492727620E+02  1.00795315953893E+00
(PID.TID 0000.0001)  ploadbar=  1.01134359118947E+05
 cg2d: Sum(rhs),rhsMax =  -1.36119245065532E+02  1.00884836843552E+00
(PID.TID 0000.0001)  ploadbar=  1.01134949501690E+05
 cg2d: Sum(rhs),rhsMax =  -1.35959675415798E+02  1.01030898694229E+00
(PID.TID 0000.0001)  ploadbar=  1.01135539884433E+05
 cg2d: Sum(rhs),rhsMax =  -1.35689379935636E+02  1.01258950536693E+00
(PID.TID 0000.0001)  ploadbar=  1.01135289585549E+05
 cg2d: Sum(rhs),rhsMax =  -1.35399764146349E+02  1.01501521665849E+00
(PID.TID 0000.0001)  ploadbar=  1.01135039286664E+05
 cg2d: Sum(rhs),rhsMax =  -1.35094480973956E+02  1.01755909394662E+00
(PID.TID 0000.0001)  ploadbar=  1.01134788987779E+05
 cg2d: Sum(rhs),rhsMax =  -1.34811774802138E+02  1.01993146255491E+00
(PID.TID 0000.0001)  ploadbar=  1.01134538688895E+05
 cg2d: Sum(rhs),rhsMax =  -1.34571260707817E+02  1.02197874163504E+00
(PID.TID 0000.0001)  ploadbar=  1.01134288390010E+05
 cg2d: Sum(rhs),rhsMax =  -1.34407002436755E+02  1.02343570393519E+00
(PID.TID 0000.0001)  ploadbar=  1.01134038091125E+05
 cg2d: Sum(rhs),rhsMax =  -1.34247379421899E+02  1.02484845161457E+00
(PID.TID 0000.0001)  ploadbar=  1.01133742719410E+05
 cg2d: Sum(rhs),rhsMax =  -1.34228582425084E+02  1.02517378569522E+00
(PID.TID 0000.0001)  ploadbar=  1.01133447347695E+05
 cg2d: Sum(rhs),rhsMax =  -1.34277084143371E+02  1.02496986938433E+00
(PID.TID 0000.0001)  ploadbar=  1.01133151975980E+05
 cg2d: Sum(rhs),rhsMax =  -1.34240646274720E+02  1.02539740932574E+00
(PID.TID 0000.0001)  ploadbar=  1.01132856604265E+05
 cg2d: Sum(rhs),rhsMax =  -1.34137806569038E+02  1.02631403269271E+00
(PID.TID 0000.0001)  ploadbar=  1.01132561232550E+05
 cg2d: Sum(rhs),rhsMax =  -1.34194993858302E+02  1.02598675347878E+00
(PID.TID 0000.0001)  ploadbar=  1.01132265860835E+05
 cg2d: Sum(rhs),rhsMax =  -1.34383755872054E+02  1.02468168531263E+00
(PID.TID 0000.0001)  ploadbar=  1.01132363408163E+05
 cg2d: Sum(rhs),rhsMax =  -1.34684254018862E+02  1.02255577820351E+00
(PID.TID 0000.0001)  ploadbar=  1.01132460955491E+05
 cg2d: Sum(rhs),rhsMax =  -1.35138406877812E+02  1.01930193045720E+00
(PID.TID 0000.0001)  ploadbar=  1.01132558502818E+05
 cg2d: Sum(rhs),rhsMax =  -1.35682166255816E+02  1.01542104057816E+00
(PID.TID 0000.0001)  ploadbar=  1.01132656050146E+05
 cg2d: Sum(rhs),rhsMax =  -1.34481916339897E+02  1.02471052283124E+00
(PID.TID 0000.0001)  ploadbar=  1.01132753597474E+05
 cg2d: Sum(rhs),rhsMax =  -1.33192650396722E+02  1.03487632354767E+00
(PID.TID 0000.0001)  ploadbar=  1.01132851144802E+05
 cg2d: Sum(rhs),rhsMax =  -1.32093448881409E+02  1.04374399064101E+00
(PID.TID 0000.0001)  ploadbar=  1.01132299186599E+05
 cg2d: Sum(rhs),rhsMax =  -1.31036231866850E+02  1.05242906116500E+00
(PID.TID 0000.0001)  ploadbar=  1.01131747228395E+05
 cg2d: Sum(rhs),rhsMax =  -1.30031216296674E+02  1.06083455252391E+00
(PID.TID 0000.0001)  ploadbar=  1.01131195270192E+05
 cg2d: Sum(rhs),rhsMax =  -1.29145457083639E+02  1.06838690338889E+00
(PID.TID 0000.0001)  ploadbar=  1.01130643311988E+05
 cg2d: Sum(rhs),rhsMax =  -1.28445155745091E+02  1.07449235891383E+00
(PID.TID 0000.0001)  ploadbar=  1.01130091353785E+05
 cg2d: Sum(rhs),rhsMax =  -1.28079739063346E+02  1.07784084042645E+00
(PID.TID 0000.0001)  ploadbar=  1.01129539395582E+05
 cg2d: Sum(rhs),rhsMax =  -1.27945625300274E+02  1.07924965946746E+00
(PID.TID 0000.0001)  ploadbar=  1.01129536080050E+05
 cg2d: Sum(rhs),rhsMax =  -1.27961381530101E+02  1.07938994092737E+00
(PID.TID 0000.0001)  ploadbar=  1.01129532764519E+05
 cg2d: Sum(rhs),rhsMax =  -1.28044328825264E+02  1.07895758245771E+00
(PID.TID 0000.0001)  ploadbar=  1.01129529448987E+05
 cg2d: Sum(rhs),rhsMax =  -1.28089195453193E+02  1.07883821901315E+00
(PID.TID 0000.0001)  ploadbar=  1.01129526133456E+05
 cg2d: Sum(rhs),rhsMax =  -1.28094103059053E+02  1.07904700174176E+00
(PID.TID 0000.0001)  ploadbar=  1.01129522817924E+05
 cg2d: Sum(rhs),rhsMax =  -1.28246063840102E+02  1.07800814156130E+00
(PID.TID 0000.0001)  ploadbar=  1.01129519502393E+05
 cg2d: Sum(rhs),rhsMax =  -1.28586696266235E+02  1.07537473515368E+00
(PID.TID 0000.0001)  ploadbar=  1.01129214570220E+05
 cg2d: Sum(rhs),rhsMax =  -1.29117114676790E+02  1.07116234591992E+00
(PID.TID 0000.0001)  ploadbar=  1.01128909638047E+05
 cg2d: Sum(rhs),rhsMax =  -1.28771879045889E+02  1.07422312894913E+00
(PID.TID 0000.0001)  ploadbar=  1.01128604705875E+05
 cg2d: Sum(rhs),rhsMax =  -1.28239351500707E+02  1.07885580104636E+00
(PID.TID 0000.0001)  ploadbar=  1.01128299773702E+05
 cg2d: Sum(rhs),rhsMax =  -1.27082105328631E+02  1.08883521032364E+00
(PID.TID 0000.0001)  ploadbar=  1.01127994841529E+05
 cg2d: Sum(rhs),rhsMax =  -1.25976647426813E+02  1.09852656654189E+00
(PID.TID 0000.0001)  ploadbar=  1.01127689909357E+05
 cg2d: Sum(rhs),rhsMax =  -1.24988125881604E+02  1.10738988820293E+00
(PID.TID 0000.0001)  ploadbar=  1.01127765027032E+05
 cg2d: Sum(rhs),rhsMax =  -1.24286060088551E+02  1.11385615953986E+00
(PID.TID 0000.0001)  ploadbar=  1.01127840144708E+05
 cg2d: Sum(rhs),rhsMax =  -1.23863444067822E+02  1.11790169663627E+00
(PID.TID 0000.0001)  ploadbar=  1.01127915262383E+05
 cg2d: Sum(rhs),rhsMax =  -1.23381051825532E+02  1.12255078922852E+00
(PID.TID 0000.0001)  ploadbar=  1.01127990380058E+05
 cg2d: Sum(rhs),rhsMax =  -1.22568072824074E+02  1.13030618937211E+00
(PID.TID 0000.0001)  ploadbar=  1.01128065497734E+05
 cg2d: Sum(rhs),rhsMax =  -1.21441814426767E+02  1.14112696399393E+00
(PID.TID 0000.0001)  ploadbar=  1.01128140615409E+05
 cg2d: Sum(rhs),rhsMax =  -1.20406269473607E+02  1.15129061459424E+00
(PID.TID 0000.0001)  ploadbar=  1.01128133101405E+05
 cg2d: Sum(rhs),rhsMax =  -1.19504965995701E+02  1.16033344662604E+00
(PID.TID 0000.0001)  ploadbar=  1.01128125587400E+05
 cg2d: Sum(rhs),rhsMax =  -1.18894175247800E+02  1.16666144672856E+00
(PID.TID 0000.0001)  ploadbar=  1.01128118073396E+05
 cg2d: Sum(rhs),rhsMax =  -1.18502271212732E+02  1.17089147282120E+00
(PID.TID 0000.0001)  ploadbar=  1.01128110559392E+05
 cg2d: Sum(rhs),rhsMax =  -1.18149863975080E+02  1.17475776665199E+00
(PID.TID 0000.0001)  ploadbar=  1.01128103045387E+05
 cg2d: Sum(rhs),rhsMax =  -1.17678463298555E+02  1.17983805913876E+00
(PID.TID 0000.0001)  ploadbar=  1.01128095531383E+05
 cg2d: Sum(rhs),rhsMax =  -1.17158070898312E+02  1.18544826324605E+00
(PID.TID 0000.0001)  ploadbar=  1.01128168838529E+05
 cg2d: Sum(rhs),rhsMax =  -1.16637082659942E+02  1.19110887862771E+00
(PID.TID 0000.0001)  ploadbar=  1.01128242145676E+05
 cg2d: Sum(rhs),rhsMax =  -1.16232215148059E+02  1.19561781654252E+00
(PID.TID 0000.0001)  ploadbar=  1.01128315452822E+05
 cg2d: Sum(rhs),rhsMax =  -1.15923886892585E+02  1.19915012670564E+00
(PID.TID 0000.0001)  ploadbar=  1.01128388759968E+05
 cg2d: Sum(rhs),rhsMax =  -1.15693171478795E+02  1.20188375660672E+00
(PID.TID 0000.0001)  ploadbar=  1.01128462067114E+05
 cg2d: Sum(rhs),rhsMax =  -1.15533888424077E+02  1.20387118115356E+00
(PID.TID 0000.0001)  ploadbar=  1.01128535374261E+05
 cg2d: Sum(rhs),rhsMax =  -1.15474665610272E+02  1.20479635274699E+00
(PID.TID 0000.0001)  ploadbar=  1.01128297275685E+05
 cg2d: Sum(rhs),rhsMax =  -1.15487003408785E+02  1.20495235772356E+00
(PID.TID 0000.0001)  ploadbar=  1.01128059177109E+05
 cg2d: Sum(rhs),rhsMax =  -1.15501693908173E+02  1.20505949032844E+00
(PID.TID 0000.0001)  ploadbar=  1.01127821078534E+05
 cg2d: Sum(rhs),rhsMax =  -1.15531597245256E+02  1.20498513343439E+00
(PID.TID 0000.0001)  ploadbar=  1.01127582979958E+05
 cg2d: Sum(rhs),rhsMax =  -1.15590415244314E+02  1.20458613977621E+00
(PID.TID 0000.0001)  ploadbar=  1.01127344881383E+05
 cg2d: Sum(rhs),rhsMax =  -1.15671132186097E+02  1.20393324307305E+00
(PID.TID 0000.0001)  ploadbar=  1.01127106782807E+05
 cg2d: Sum(rhs),rhsMax =  -1.15770624276863E+02  1.20310748755944E+00
(PID.TID 0000.0001)  ploadbar=  1.01126666124597E+05
 cg2d: Sum(rhs),rhsMax =  -1.15920237511539E+02  1.20178335090737E+00
(PID.TID 0000.0001)  ploadbar=  1.01126225466388E+05
 cg2d: Sum(rhs),rhsMax =  -1.16102914703332E+02  1.20014032448635E+00
(PID.TID 0000.0001)  ploadbar=  1.01125784808178E+05
 cg2d: Sum(rhs),rhsMax =  -1.16320748398195E+02  1.19816110943507E+00
(PID.TID 0000.0001)  ploadbar=  1.01125344149969E+05
 cg2d: Sum(rhs),rhsMax =  -1.16562527995244E+02  1.19596367397590E+00
(PID.TID 0000.0001)  ploadbar=  1.01124903491759E+05
 cg2d: Sum(rhs),rhsMax =  -1.16827579027764E+02  1.19355629256969E+00
(PID.TID 0000.0001)  ploadbar=  1.01124462833550E+05
 cg2d: Sum(rhs),rhsMax =  -1.17081094754710E+02  1.19127355503454E+00
(PID.TID 0000.0001)  ploadbar=  1.01123684668826E+05
 cg2d: Sum(rhs),rhsMax =  -1.17346614680319E+02  1.18887287564274E+00
(PID.TID 0000.0001)  ploadbar=  1.01122906504103E+05
 cg2d: Sum(rhs),rhsMax =  -1.17633523699919E+02  1.18626050905762E+00
(PID.TID 0000.0001)  ploadbar=  1.01122128339380E+05
 cg2d: Sum(rhs),rhsMax =  -1.17919727211273E+02  1.18366105243763E+00
(PID.TID 0000.0001)  ploadbar=  1.01121350174657E+05
 cg2d: Sum(rhs),rhsMax =  -1.18196158794360E+02  1.18116479919117E+00
(PID.TID 0000.0001)  ploadbar=  1.01120572009934E+05
 cg2d: Sum(rhs),rhsMax =  -1.18451620537646E+02  1.17888090490507E+00
(PID.TID 0000.0001)  ploadbar=  1.01119793845210E+05
 cg2d: Sum(rhs),rhsMax =  -1.18776040714968E+02  1.17593080034473E+00
(PID.TID 0000.0001)  ploadbar=  1.01119781424811E+05
 cg2d: Sum(rhs),rhsMax =  -1.19113047219723E+02  1.17287769738998E+00
(PID.TID 0000.0001)  ploadbar=  1.01119769004412E+05
 cg2d: Sum(rhs),rhsMax =  -1.19433183351265E+02  1.17001205715591E+00
(PID.TID 0000.0001)  ploadbar=  1.01119756584013E+05
 cg2d: Sum(rhs),rhsMax =  -1.19750410345284E+02  1.16719428657512E+00
(PID.TID 0000.0001)  ploadbar=  1.01119744163613E+05
 cg2d: Sum(rhs),rhsMax =  -1.20070371976817E+02  1.16436888421941E+00
(PID.TID 0000.0001)  ploadbar=  1.01119731743214E+05
 cg2d: Sum(rhs),rhsMax =  -1.20394669316194E+02  1.16152006910945E+00
(PID.TID 0000.0001)  ploadbar=  1.01119719322815E+05
 cg2d: Sum(rhs),rhsMax =  -1.20656708808445E+02  1.15925674288760E+00
(PID.TID 0000.0001)  ploadbar=  1.01118162186423E+05
 cg2d: Sum(rhs),rhsMax =  -1.20949740931707E+02  1.15667849431367E+00
(PID.TID 0000.0001)  ploadbar=  1.01116605050032E+05
 cg2d: Sum(rhs),rhsMax =  -1.21248365385585E+02  1.15403133903597E+00
(PID.TID 0000.0001)  ploadbar=  1.01115047913641E+05
 cg2d: Sum(rhs),rhsMax =  -1.21561528464498E+02  1.15123088157927E+00
(PID.TID 0000.0001)  ploadbar=  1.01113490777249E+05
 cg2d: Sum(rhs),rhsMax =  -1.21905668427238E+02  1.14812447893138E+00
(PID.TID 0000.0001)  ploadbar=  1.01111933640858E+05
 cg2d: Sum(rhs),rhsMax =  -1.22273356971834E+02  1.14478623965722E+00
(PID.TID 0000.0001)  ploadbar=  1.01110376504466E+05
 cg2d: Sum(rhs),rhsMax =  -1.22641742774317E+02  1.14148608138234E+00
(PID.TID 0000.0001)  ploadbar=  1.01109610311183E+05
 cg2d: Sum(rhs),rhsMax =  -1.23047935114718E+02  1.13787921542112E+00
(PID.TID 0000.0001)  ploadbar=  1.01108844117899E+05
 cg2d: Sum(rhs),rhsMax =  -1.23484283291028E+02  1.13404224642436E+00
(PID.TID 0000.0001)  ploadbar=  1.01108077924615E+05
 cg2d: Sum(rhs),rhsMax =  -1.23934127026525E+02  1.13013152259079E+00
(PID.TID 0000.0001)  ploadbar=  1.01107311731331E+05
 cg2d: Sum(rhs),rhsMax =  -1.24405351931274E+02  1.12607844474754E+00
(PID.TID 0000.0001)  ploadbar=  1.01106545538047E+05
 cg2d: Sum(rhs),rhsMax =  -1.24915604206778E+02  1.12172749736885E+00
(PID.TID 0000.0001)  ploadbar=  1.01105779344763E+05
 cg2d: Sum(rhs),rhsMax =  -1.25273564763739E+02  1.11878421168097E+00
(PID.TID 0000.0001)  ploadbar=  1.01105302846080E+05
 cg2d: Sum(rhs),rhsMax =  -1.25653321726790E+02  1.11567654331022E+00
(PID.TID 0000.0001)  ploadbar=  1.01104826347396E+05
 cg2d: Sum(rhs),rhsMax =  -1.26059015349608E+02  1.11236950497428E+00
(PID.TID 0000.0001)  ploadbar=  1.01104349848713E+05
 cg2d: Sum(rhs),rhsMax =  -1.26446673509922E+02  1.10925131203261E+00
(PID.TID 0000.0001)  ploadbar=  1.01103873350030E+05
 cg2d: Sum(rhs),rhsMax =  -1.26800931271480E+02  1.10645241235184E+00
(PID.TID 0000.0001)  ploadbar=  1.01103396851347E+05
 cg2d: Sum(rhs),rhsMax =  -1.27113595548583E+02  1.10403995089076E+00
(PID.TID 0000.0001)  ploadbar=  1.01102920352664E+05
 cg2d: Sum(rhs),rhsMax =  -1.27372249182552E+02  1.10210102932749E+00
(PID.TID 0000.0001)  ploadbar=  1.01102096366065E+05
 cg2d: Sum(rhs),rhsMax =  -1.27538255386541E+02  1.10096402386701E+00
(PID.TID 0000.0001)  ploadbar=  1.01101272379466E+05
 cg2d: Sum(rhs),rhsMax =  -1.27691958401929E+02  1.09993153904450E+00
(PID.TID 0000.0001)  ploadbar=  1.01100448392866E+05
 cg2d: Sum(rhs),rhsMax =  -1.27836865262629E+02  1.09897200510713E+00
(PID.TID 0000.0001)  ploadbar=  1.01099624406267E+05
 cg2d: Sum(rhs),rhsMax =  -1.27976358227758E+02  1.09805482621717E+00
(PID.TID 0000.0001)  ploadbar=  1.01098800419668E+05
 cg2d: Sum(rhs),rhsMax =  -1.28118959009259E+02  1.09710512043506E+00
(PID.TID 0000.0001)  ploadbar=  1.01097976433069E+05
 cg2d: Sum(rhs),rhsMax =  -1.28309629062946E+02  1.09573756142892E+00
(PID.TID 0000.0001)  ploadbar=  1.01097804362096E+05
 cg2d: Sum(rhs),rhsMax =  -1.28458252551106E+02  1.09472313154995E+00
(PID.TID 0000.0001)  ploadbar=  1.01097632291123E+05
 cg2d: Sum(rhs),rhsMax =  -1.28568939878301E+02  1.09402373209307E+00
(PID.TID 0000.0001)  ploadbar=  1.01097460220150E+05
 cg2d: Sum(rhs),rhsMax =  -1.28654795771419E+02  1.09352677755989E+00
(PID.TID 0000.0001)  ploadbar=  1.01097288149177E+05
 cg2d: Sum(rhs),rhsMax =  -1.28708125917576E+02  1.09329626454006E+00
(PID.TID 0000.0001)  ploadbar=  1.01097116078204E+05
 cg2d: Sum(rhs),rhsMax =  -1.28734915266143E+02  1.09328008204774E+00
(PID.TID 0000.0001)  ploadbar=  1.01096944007231E+05
 cg2d: Sum(rhs),rhsMax =  -1.28778081436904E+02  1.09315536207710E+00
(PID.TID 0000.0001)  ploadbar=  1.01098075457411E+05
 cg2d: Sum(rhs),rhsMax =  -1.28818247577837E+02  1.09308464919995E+00
(PID.TID 0000.0001)  ploadbar=  1.01099206907591E+05
 cg2d: Sum(rhs),rhsMax =  -1.28882272329366E+02  1.09283931136120E+00
(PID.TID 0000.0001)  ploadbar=  1.01100338357771E+05
 cg2d: Sum(rhs),rhsMax =  -1.28986455235220E+02  1.09228108041272E+00
(PID.TID 0000.0001)  ploadbar=  1.01101469807950E+05
 cg2d: Sum(rhs),rhsMax =  -1.29125473677968E+02  1.09145576273817E+00
(PID.TID 0000.0001)  ploadbar=  1.01102601258130E+05
 cg2d: Sum(rhs),rhsMax =  -1.29302848641047E+02  1.09033419067942E+00
(PID.TID 0000.0001)  ploadbar=  1.01103732708310E+05
 cg2d: Sum(rhs),rhsMax =  -1.29575526985265E+02  1.08841351223700E+00
(PID.TID 0000.0001)  ploadbar=  1.01104333407014E+05
 cg2d: Sum(rhs),rhsMax =  -1.29836390222588E+02  1.08659710500654E+00
(PID.TID 0000.0001)  ploadbar=  1.01104934105718E+05
 cg2d: Sum(rhs),rhsMax =  -1.30080647045309E+02  1.08492383366816E+00
(PID.TID 0000.0001)  ploadbar=  1.01105534804422E+05
 cg2d: Sum(rhs),rhsMax =  -1.30304310990667E+02  1.08342554463693E+00
(PID.TID 0000.0001)  ploadbar=  1.01106135503125E+05
 cg2d: Sum(rhs),rhsMax =  -1.30508295817469E+02  1.08209210239642E+00
(PID.TID 0000.0001)  ploadbar=  1.01106736201829E+05
 cg2d: Sum(rhs),rhsMax =  -1.30697037024092E+02  1.08088473811862E+00
(PID.TID 0000.0001)  ploadbar=  1.01107336900533E+05
 cg2d: Sum(rhs),rhsMax =  -1.30968548442648E+02  1.07898715033543E+00
(PID.TID 0000.0001)  ploadbar=  1.01107689395959E+05
 cg2d: Sum(rhs),rhsMax =  -1.31254846750553E+02  1.07696439563494E+00
(PID.TID 0000.0001)  ploadbar=  1.01108041891385E+05
 cg2d: Sum(rhs),rhsMax =  -1.31513879120425E+02  1.07516075706698E+00
(PID.TID 0000.0001)  ploadbar=  1.01108394386810E+05
 cg2d: Sum(rhs),rhsMax =  -1.31753072257837E+02  1.07351336060000E+00
(PID.TID 0000.0001)  ploadbar=  1.01108746882236E+05
 cg2d: Sum(rhs),rhsMax =  -1.31998035650663E+02  1.07181177547408E+00
(PID.TID 0000.0001)  ploadbar=  1.01109099377662E+05
 cg2d: Sum(rhs),rhsMax =  -1.32250159504755E+02  1.07004388561522E+00
(PID.TID 0000.0001)  ploadbar=  1.01109451873087E+05
 cg2d: Sum(rhs),rhsMax =  -1.32466130856213E+02  1.06856234631605E+00
(PID.TID 0000.0001)  ploadbar=  1.01110313077524E+05
 cg2d: Sum(rhs),rhsMax =  -1.32718114844029E+02  1.06678323920575E+00
(PID.TID 0000.0001)  ploadbar=  1.01111174281961E+05
 cg2d: Sum(rhs),rhsMax =  -1.32952268332299E+02  1.06514134295994E+00
(PID.TID 0000.0001)  ploadbar=  1.01112035486398E+05
 cg2d: Sum(rhs),rhsMax =  -1.33175883746429E+02  1.06357584265478E+00
(PID.TID 0000.0001)  ploadbar=  1.01112896690835E+05
 cg2d: Sum(rhs),rhsMax =  -1.33411792031437E+02  1.06190218166083E+00
(PID.TID 0000.0001)  ploadbar=  1.01113757895271E+05
 cg2d: Sum(rhs),rhsMax =  -1.33642530644297E+02  1.06025770943752E+00
(PID.TID 0000.0001)  ploadbar=  1.01114619099708E+05
 cg2d: Sum(rhs),rhsMax =  -1.33810149186538E+02  1.05913548232097E+00
(PID.TID 0000.0001)  ploadbar=  1.01114739719212E+05
 cg2d: Sum(rhs),rhsMax =  -1.33998471970807E+02  1.05786957557555E+00
(PID.TID 0000.0001)  ploadbar=  1.01114860338716E+05
 cg2d: Sum(rhs),rhsMax =  -1.34146218278744E+02  1.05694158062144E+00
(PID.TID 0000.0001)  ploadbar=  1.01114980958220E+05
 cg2d: Sum(rhs),rhsMax =  -1.33846742502174E+02  1.05955814259277E+00
(PID.TID 0000.0001)  ploadbar=  1.01115101577724E+05
 cg2d: Sum(rhs),rhsMax =  -1.33705101951520E+02  1.06094559424878E+00
(PID.TID 0000.0001)  ploadbar=  1.01115222197228E+05
 cg2d: Sum(rhs),rhsMax =  -1.33375966872140E+02  1.06384335755652E+00
(PID.TID 0000.0001)  ploadbar=  1.01115342816732E+05
 cg2d: Sum(rhs),rhsMax =  -1.33043296172730E+02  1.06677509055354E+00
(PID.TID 0000.0001)  ploadbar=  1.01116861453399E+05
 cg2d: Sum(rhs),rhsMax =  -1.32700373597612E+02  1.06979315492076E+00
(PID.TID 0000.0001)  ploadbar=  1.01118380090065E+05
 cg2d: Sum(rhs),rhsMax =  -1.32327817940447E+02  1.07305479358950E+00
(PID.TID 0000.0001)  ploadbar=  1.01119898726731E+05
 cg2d: Sum(rhs),rhsMax =  -1.31940610538283E+02  1.07644079656039E+00
(PID.TID 0000.0001)  ploadbar=  1.01121417363398E+05
 cg2d: Sum(rhs),rhsMax =  -1.31560612997667E+02  1.07977113863921E+00
(PID.TID 0000.0001)  ploadbar=  1.01122936000064E+05
 cg2d: Sum(rhs),rhsMax =  -1.31190459537421E+02  1.08302110323195E+00
(PID.TID 0000.0001)  ploadbar=  1.01124454636731E+05
 cg2d: Sum(rhs),rhsMax =  -1.30774481600183E+02  1.08667822963105E+00
(PID.TID 0000.0001)  ploadbar=  1.01124965374832E+05
 cg2d: Sum(rhs),rhsMax =  -1.30326506850193E+02  1.09063163828998E+00
(PID.TID 0000.0001)  ploadbar=  1.01125476112934E+05
 cg2d: Sum(rhs),rhsMax =  -1.29692420784913E+02  1.09618782057264E+00
(PID.TID 0000.0001)  ploadbar=  1.01125986851036E+05
 cg2d: Sum(rhs),rhsMax =  -1.24252230124356E+02  1.14442092958706E+00
(PID.TID 0000.0001)  ploadbar=  1.01126497589138E+05
 cg2d: Sum(rhs),rhsMax =  -1.19040669763214E+02  1.19477589215011E+00
(PID.TID 0000.0001)  ploadbar=  1.01127008327240E+05
 cg2d: Sum(rhs),rhsMax =  -1.13859939525184E+02  1.24940463522117E+00
(PID.TID 0000.0001)  ploadbar=  1.01127519065342E+05
 cg2d: Sum(rhs),rhsMax =  -1.09407260462232E+02  1.30051354285286E+00
(PID.TID 0000.0001)  ploadbar=  1.01128300688594E+05
 cg2d: Sum(rhs),rhsMax =  -1.05767138931402E+02  1.34552350915317E+00
(PID.TID 0000.0001)  ploadbar=  1.01129082311846E+05
 cg2d: Sum(rhs),rhsMax =  -1.02966014958221E+02  1.38236589725658E+00
(PID.TID 0000.0001)  ploadbar=  1.01129863935098E+05
 cg2d: Sum(rhs),rhsMax =  -1.00946468831096E+02  1.41024446272501E+00
(PID.TID 0000.0001)  ploadbar=  1.01130645558349E+05
 cg2d: Sum(rhs),rhsMax =  -9.96058353756715E+01  1.42942801434668E+00
(PID.TID 0000.0001)  ploadbar=  1.01131427181601E+05
 cg2d: Sum(rhs),rhsMax =  -9.88348281070671E+01  1.44075839469367E+00
(PID.TID 0000.0001)  ploadbar=  1.01132208804853E+05
 cg2d: Sum(rhs),rhsMax =  -9.84377247767682E+01  1.44678888772909E+00
(PID.TID 0000.0001)  ploadbar=  1.01132182170362E+05
 cg2d: Sum(rhs),rhsMax =  -9.82086160677698E+01  1.45041951861117E+00
(PID.TID 0000.0001)  ploadbar=  1.01132155535871E+05
 cg2d: Sum(rhs),rhsMax =  -9.80835177643184E+01  1.45255965079687E+00
(PID.TID 0000.0001)  ploadbar=  1.01132128901380E+05
 cg2d: Sum(rhs),rhsMax =  -9.80911325206059E+01  1.45277044867903E+00
(PID.TID 0000.0001)  ploadbar=  1.01132102266889E+05
 cg2d: Sum(rhs),rhsMax =  -9.82708447112093E+01  1.45047108288934E+00
(PID.TID 0000.0001)  ploadbar=  1.01132075632398E+05
 cg2d: Sum(rhs),rhsMax =  -9.86292170418860E+01  1.44559181715237E+00
(PID.TID 0000.0001)  ploadbar=  1.01132048997907E+05
 cg2d: Sum(rhs),rhsMax =  -9.88552108381139E+01  1.44268193818260E+00
(PID.TID 0000.0001)  ploadbar=  1.01131997698612E+05
 cg2d: Sum(rhs),rhsMax =  -9.90165269743242E+01  1.44073116099625E+00
(PID.TID 0000.0001)      cg2d_init_res =   2.65755983956188E-01
(PID.TID 0000.0001)      cg2d_iters(min,last) =      -1     141
(PID.TID 0000.0001)      cg2d_last_res =   9.98292947689909E-08
(PID.TID 0000.0001) // =======================================================
(PID.TID 0000.0001) // Begin MONITOR dynamic field statistics
(PID.TID 0000.0001) // =======================================================
(PID.TID 0000.0001) %MON time_tsnumber                =                  5256
(PID.TID 0000.0001) %MON time_secondsf                =   1.8921600000000E+07
(PID.TID 0000.0001) %MON dynstat_eta_max              =   1.2822639059095E+00
(PID.TID 0000.0001) %MON dynstat_eta_min              =  -5.1013064865236E+00
(PID.TID 0000.0001) %MON dynstat_eta_mean             =   7.2202737422176E-02
(PID.TID 0000.0001) %MON dynstat_eta_sd               =   7.0447475717370E-01
(PID.TID 0000.0001) %MON dynstat_eta_del2             =   2.3218287554248E-04
(PID.TID 0000.0001) %MON dynstat_uvel_max             =   1.1075841115750E+00
(PID.TID 0000.0001) %MON dynstat_uvel_min             =  -6.3813830156012E-01
(PID.TID 0000.0001) %MON dynstat_uvel_mean            =   1.4411278604879E-03
(PID.TID 0000.0001) %MON dynstat_uvel_sd              =   2.0220070894688E-02
(PID.TID 0000.0001) %MON dynstat_uvel_del2            =   9.0824540681521E-06
(PID.TID 0000.0001) %MON dynstat_vvel_max             =   1.0943681363796E+00
(PID.TID 0000.0001) %MON dynstat_vvel_min             =  -1.0664384486798E+00
(PID.TID 0000.0001) %MON dynstat_vvel_mean            =   1.2380432199136E-03
(PID.TID 0000.0001) %MON dynstat_vvel_sd              =   2.2220461621871E-02
(PID.TID 0000.0001) %MON dynstat_vvel_del2            =   9.5843326045782E-06
(PID.TID 0000.0001) %MON dynstat_wvel_max             =   3.6070141480237E-04
(PID.TID 0000.0001) %MON dynstat_wvel_min             =  -8.4290588435964E-04
(PID.TID 0000.0001) %MON dynstat_wvel_mean            =   3.1606012619183E-09
(PID.TID 0000.0001) %MON dynstat_wvel_sd              =   2.2424850849206E-05
(PID.TID 0000.0001) %MON dynstat_wvel_del2            =   1.5664939281835E-08
(PID.TID 0000.0001) %MON dynstat_theta_max            =   3.3562227654021E+01
(PID.TID 0000.0001) %MON dynstat_theta_min            =  -2.1633870780399E+00
(PID.TID 0000.0001) %MON dynstat_theta_mean           =   3.5774349750103E+00
(PID.TID 0000.0001) %MON dynstat_theta_sd             =   4.4206567365122E+00
(PID.TID 0000.0001) %MON dynstat_theta_del2           =   9.5399069683091E-05
(PID.TID 0000.0001) %MON dynstat_salt_max             =   4.0641657103805E+01
(PID.TID 0000.0001) %MON dynstat_salt_min             =   2.0088529971088E+01
(PID.TID 0000.0001) %MON dynstat_salt_mean            =   3.4726983961253E+01
(PID.TID 0000.0001) %MON dynstat_salt_sd              =   3.8002844155573E-01
(PID.TID 0000.0001) %MON dynstat_salt_del2            =   2.0048534538936E-05
(PID.TID 0000.0001) %MON dynstat_sst_max              =   3.3562227654021E+01
(PID.TID 0000.0001) %MON dynstat_sst_min              =  -1.9602475738256E+00
(PID.TID 0000.0001) %MON dynstat_sst_mean             =   1.8153476991229E+01
(PID.TID 0000.0001) %MON dynstat_sst_sd               =   1.0168781077242E+01
(PID.TID 0000.0001) %MON dynstat_sst_del2             =   6.8586652742797E-04
(PID.TID 0000.0001) %MON dynstat_sss_max              =   3.9675935087340E+01
(PID.TID 0000.0001) %MON dynstat_sss_min              =   2.0088529971088E+01
(PID.TID 0000.0001) %MON dynstat_sss_mean             =   3.4693098673576E+01
(PID.TID 0000.0001) %MON dynstat_sss_sd               =   1.3280373227130E+00
(PID.TID 0000.0001) %MON dynstat_sss_del2             =   3.3366767948369E-04
(PID.TID 0000.0001) %MON forcing_qnet_max             =   6.7573486725461E+02
(PID.TID 0000.0001) %MON forcing_qnet_min             =  -5.6922140586925E+02
(PID.TID 0000.0001) %MON forcing_qnet_mean            =   4.4389001171498E+01
(PID.TID 0000.0001) %MON forcing_qnet_sd              =   1.5533316541537E+02
(PID.TID 0000.0001) %MON forcing_qnet_del2            =   9.9835380741108E-02
(PID.TID 0000.0001) %MON forcing_qsw_max              =   4.8571008715674E+01
(PID.TID 0000.0001) %MON forcing_qsw_min              =  -6.7510702867674E+02
(PID.TID 0000.0001) %MON forcing_qsw_mean             =  -1.1979306918391E+02
(PID.TID 0000.0001) %MON forcing_qsw_sd               =   1.4259845602067E+02
(PID.TID 0000.0001) %MON forcing_qsw_del2             =   4.3513415108201E-02
(PID.TID 0000.0001) %MON forcing_empmr_max            =   1.8349727063668E-03
(PID.TID 0000.0001) %MON forcing_empmr_min            =  -1.9621896731407E-03
(PID.TID 0000.0001) %MON forcing_empmr_mean           =  -5.7243689381801E-06
(PID.TID 0000.0001) %MON forcing_empmr_sd             =   1.0440775550117E-04
(PID.TID 0000.0001) %MON forcing_empmr_del2           =   3.0303451342538E-07
(PID.TID 0000.0001) %MON forcing_fu_max               =   1.0505701768989E+00
(PID.TID 0000.0001) %MON forcing_fu_min               =  -1.3289126819598E+00
(PID.TID 0000.0001) %MON forcing_fu_mean              =   1.7631271351403E-02
(PID.TID 0000.0001) %MON forcing_fu_sd                =   1.3915700788835E-01
(PID.TID 0000.0001) %MON forcing_fu_del2              =   7.5769922004432E-05
(PID.TID 0000.0001) %MON forcing_fv_max               =   6.5495472649733E-01
(PID.TID 0000.0001) %MON forcing_fv_min               =  -7.1993692715963E-01
(PID.TID 0000.0001) %MON forcing_fv_mean              =   1.0407614422169E-02
(PID.TID 0000.0001) %MON forcing_fv_sd                =   1.1614680251842E-01
(PID.TID 0000.0001) %MON forcing_fv_del2              =   6.6257107452844E-05
(PID.TID 0000.0001) %MON trAdv_CFL_u_max              =   6.2002122385619E-02
(PID.TID 0000.0001) %MON trAdv_CFL_v_max              =   8.0437513954311E-02
(PID.TID 0000.0001) %MON trAdv_CFL_w_max              =   1.0789289083219E-01
(PID.TID 0000.0001) %MON advcfl_uvel_max              =   5.5230932968949E-02
(PID.TID 0000.0001) %MON advcfl_vvel_max              =   8.5801793120546E-02
(PID.TID 0000.0001) %MON advcfl_wvel_max              =   1.0482386504296E-01
(PID.TID 0000.0001) %MON advcfl_W_hf_max              =   1.0803078563658E-01
(PID.TID 0000.0001) %MON pe_b_mean                    =   2.3642055173671E-03
(PID.TID 0000.0001) %MON ke_max                       =   9.3596917084752E-01
(PID.TID 0000.0001) %MON ke_mean                      =   4.3697291494011E-04
(PID.TID 0000.0001) %MON ke_vol                       =   1.3350237193502E+18
(PID.TID 0000.0001) %MON vort_r_min                   =  -2.9085758588129E-05
(PID.TID 0000.0001) %MON vort_r_max                   =   2.7968980826830E-05
(PID.TID 0000.0001) %MON vort_a_mean                  =  -1.9727864647440E-05
(PID.TID 0000.0001) %MON vort_a_sd                    =   7.4543126193319E-05
(PID.TID 0000.0001) %MON vort_p_mean                  =  -2.1760098441259E-05
(PID.TID 0000.0001) %MON vort_p_sd                    =   9.7243514169732E-05
(PID.TID 0000.0001) %MON surfExpan_theta_mean         =   1.2217501641687E-07
(PID.TID 0000.0001) %MON surfExpan_salt_mean          =   4.6838677940452E-08
(PID.TID 0000.0001) // =======================================================
(PID.TID 0000.0001) // End MONITOR dynamic field statistics
(PID.TID 0000.0001) // =======================================================
(PID.TID 0000.0001)  ploadbar=  1.01131946399317E+05
(PID.TID 0000.0001) %SBO sbo_mass                     =   1.3737590760837E+21
(PID.TID 0000.0001) %SBO sbo_mass_fw                  =   4.6260713123549E+16
(PID.TID 0000.0001) %SBO sbo_zoamc                    =   1.2470479564207E+25
(PID.TID 0000.0001) %SBO sbo_zoamp                    =   2.9276623151567E+30
(PID.TID 0000.0001) // =======================================================
(PID.TID 0000.0001) // Begin MONITOR SEAICE statistics
(PID.TID 0000.0001) // =======================================================
(PID.TID 0000.0001) %MON seaice_tsnumber              =                  5256
(PID.TID 0000.0001) %MON seaice_time_sec              =   1.8921600000000E+07
(PID.TID 0000.0001) %MON seaice_uice_max              =   4.0000000000000E-01
(PID.TID 0000.0001) %MON seaice_uice_min              =  -4.0000000000000E-01
(PID.TID 0000.0001) %MON seaice_uice_mean             =   1.1630326053402E-02
(PID.TID 0000.0001) %MON seaice_uice_sd               =   1.8545922295181E-01
(PID.TID 0000.0001) %MON seaice_uice_del2             =   1.4275915761701E-04
(PID.TID 0000.0001) %MON seaice_vice_max              =   4.0000000000000E-01
(PID.TID 0000.0001) %MON seaice_vice_min              =  -4.0000000000000E-01
(PID.TID 0000.0001) %MON seaice_vice_mean             =   4.2774906152062E-03
(PID.TID 0000.0001) %MON seaice_vice_sd               =   1.8831551050941E-01
(PID.TID 0000.0001) %MON seaice_vice_del2             =   1.4757784267329E-04
(PID.TID 0000.0001) %MON seaice_area_max              =   9.7000000000000E-01
(PID.TID 0000.0001) %MON seaice_area_min              =   0.0000000000000E+00
(PID.TID 0000.0001) %MON seaice_area_mean             =   6.1777980315579E-02
(PID.TID 0000.0001) %MON seaice_area_sd               =   2.2107197576813E-01
(PID.TID 0000.0001) %MON seaice_area_del2             =   1.9390669247905E-04
(PID.TID 0000.0001) %MON seaice_heff_max              =   4.7390562909117E+00
(PID.TID 0000.0001) %MON seaice_heff_min              =   0.0000000000000E+00
(PID.TID 0000.0001) %MON seaice_heff_mean             =   5.7484206184196E-02
(PID.TID 0000.0001) %MON seaice_heff_sd               =   2.6988828742987E-01
(PID.TID 0000.0001) %MON seaice_heff_del2             =   2.4537067641481E-04
(PID.TID 0000.0001) %MON seaice_hsnow_max             =   1.5171609956036E+00
(PID.TID 0000.0001) %MON seaice_hsnow_min             =  -6.4268104412543E-05
(PID.TID 0000.0001) %MON seaice_hsnow_mean            =   7.9018837754901E-03
(PID.TID 0000.0001) %MON seaice_hsnow_sd              =   4.4340130830831E-02
(PID.TID 0000.0001) %MON seaice_hsnow_del2            =   4.7483696278208E-05
(PID.TID 0000.0001) // =======================================================
(PID.TID 0000.0001) // End MONITOR SEAICE statistics
(PID.TID 0000.0001) // =======================================================
(PID.TID 0000.0001) // =======================================================
(PID.TID 0000.0001) // Begin MONITOR EXF statistics
(PID.TID 0000.0001) // =======================================================
(PID.TID 0000.0001) %MON exf_tsnumber                 =                  5256
(PID.TID 0000.0001) %MON exf_time_sec                 =   1.8921600000000E+07
(PID.TID 0000.0001) %MON exf_ustress_max              =   1.0319605171680E+00
(PID.TID 0000.0001) %MON exf_ustress_min              =  -2.7365112886986E+00
(PID.TID 0000.0001) %MON exf_ustress_mean             =   1.6951254638928E-02
(PID.TID 0000.0001) %MON exf_ustress_sd               =   1.4141458613852E-01
(PID.TID 0000.0001) %MON exf_ustress_del2             =   9.5632318855146E-05
(PID.TID 0000.0001) %MON exf_vstress_max              =   9.8055192322097E-01
(PID.TID 0000.0001) %MON exf_vstress_min              =  -7.5642028450966E-01
(PID.TID 0000.0001) %MON exf_vstress_mean             =   1.0716276380661E-02
(PID.TID 0000.0001) %MON exf_vstress_sd               =   1.1676662501779E-01
(PID.TID 0000.0001) %MON exf_vstress_del2             =   8.9841285683955E-05
(PID.TID 0000.0001) %MON exf_hflux_max                =   1.3888874706293E+03
(PID.TID 0000.0001) %MON exf_hflux_min                =  -5.4045871172780E+02
(PID.TID 0000.0001) %MON exf_hflux_mean               =   5.5162400600248E+01
(PID.TID 0000.0001) %MON exf_hflux_sd                 =   1.9173701829608E+02
(PID.TID 0000.0001) %MON exf_hflux_del2               =   3.5880812006590E-01
(PID.TID 0000.0001) %MON exf_sflux_max                =   1.8331901063331E-07
(PID.TID 0000.0001) %MON exf_sflux_min                =  -1.7385806440641E-06
(PID.TID 0000.0001) %MON exf_sflux_mean               =  -1.3744633500010E-09
(PID.TID 0000.0001) %MON exf_sflux_sd                 =   8.4184421554092E-08
(PID.TID 0000.0001) %MON exf_sflux_del2               =   1.9898566396462E-10
(PID.TID 0000.0001) %MON exf_wspeed_max               =   2.5240690231323E+01
(PID.TID 0000.0001) %MON exf_wspeed_min               =   4.1723468899727E-01
(PID.TID 0000.0001) %MON exf_wspeed_mean              =   7.3858445083069E+00
(PID.TID 0000.0001) %MON exf_wspeed_sd                =   3.4528558720404E+00
(PID.TID 0000.0001) %MON exf_wspeed_del2              =   1.2572529229700E-02
(PID.TID 0000.0001) %MON exf_atemp_max                =   3.0868459548950E+02
(PID.TID 0000.0001) %MON exf_atemp_min                =   2.0404054107666E+02
(PID.TID 0000.0001) %MON exf_atemp_mean               =   2.8943417945940E+02
(PID.TID 0000.0001) %MON exf_atemp_sd                 =   1.1800198632299E+01
(PID.TID 0000.0001) %MON exf_atemp_del2               =   2.5398400628941E-02
(PID.TID 0000.0001) %MON exf_aqh_max                  =   2.6844160631299E-02
(PID.TID 0000.0001) %MON exf_aqh_min                  =  -8.8349646830466E-05
(PID.TID 0000.0001) %MON exf_aqh_mean                 =   1.0956839730891E-02
(PID.TID 0000.0001) %MON exf_aqh_sd                   =   5.6255708972185E-03
(PID.TID 0000.0001) %MON exf_aqh_del2                 =   1.4786441454767E-05
(PID.TID 0000.0001) %MON exf_lwflux_max               =   2.6851378155067E+02
(PID.TID 0000.0001) %MON exf_lwflux_min               =  -5.2037305614933E+01
(PID.TID 0000.0001) %MON exf_lwflux_mean              =   4.4600401101411E+01
(PID.TID 0000.0001) %MON exf_lwflux_sd                =   2.6967719647786E+01
(PID.TID 0000.0001) %MON exf_lwflux_del2              =   8.3667127138866E-02
(PID.TID 0000.0001) %MON exf_evap_max                 =   1.9061946933693E-07
(PID.TID 0000.0001) %MON exf_evap_min                 =  -3.7925277732495E-08
(PID.TID 0000.0001) %MON exf_evap_mean                =   4.4079483149950E-08
(PID.TID 0000.0001) %MON exf_evap_sd                  =   2.9102130964178E-08
(PID.TID 0000.0001) %MON exf_evap_del2                =   6.9556966442891E-11
(PID.TID 0000.0001) %MON exf_precip_max               =   1.6365848694022E-06
(PID.TID 0000.0001) %MON exf_precip_min               =  -2.5055840957577E-08
(PID.TID 0000.0001) %MON exf_precip_mean              =   4.1368785095349E-08
(PID.TID 0000.0001) %MON exf_precip_sd                =   7.0131753952796E-08
(PID.TID 0000.0001) %MON exf_precip_del2              =   1.9375629227702E-10
(PID.TID 0000.0001) %MON exf_swflux_max               =   5.0799459075928E+01
(PID.TID 0000.0001) %MON exf_swflux_min               =  -5.8765573282653E+02
(PID.TID 0000.0001) %MON exf_swflux_mean              =  -1.2678102726158E+02
(PID.TID 0000.0001) %MON exf_swflux_sd                =   1.4517331930600E+02
(PID.TID 0000.0001) %MON exf_swflux_del2              =   2.3925147084870E-01
(PID.TID 0000.0001) %MON exf_swdown_max               =   6.3462234497070E+02
(PID.TID 0000.0001) %MON exf_swdown_min               =  -7.2570655822754E+01
(PID.TID 0000.0001) %MON exf_swdown_mean              =   1.3780403391997E+02
(PID.TID 0000.0001) %MON exf_swdown_sd                =   1.5697225883198E+02
(PID.TID 0000.0001) %MON exf_swdown_del2              =   2.6033432150990E-01
(PID.TID 0000.0001) %MON exf_lwdown_max               =   4.9949020385742E+02
(PID.TID 0000.0001) %MON exf_lwdown_min               =   3.0470651626587E+01
(PID.TID 0000.0001) %MON exf_lwdown_mean              =   3.6524669911288E+02
(PID.TID 0000.0001) %MON exf_lwdown_sd                =   6.1816184845257E+01
(PID.TID 0000.0001) %MON exf_lwdown_del2              =   4.9677900040695E-01
(PID.TID 0000.0001) %MON exf_apressure_max            =   1.0336608984375E+05
(PID.TID 0000.0001) %MON exf_apressure_min            =   9.4059789062500E+04
(PID.TID 0000.0001) %MON exf_apressure_mean           =   1.0113189510002E+05
(PID.TID 0000.0001) %MON exf_apressure_sd             =   1.2305024627474E+03
(PID.TID 0000.0001) %MON exf_apressure_del2           =   1.4496114536530E+02
(PID.TID 0000.0001) %MON exf_runoff_max               =   1.7809814879353E-06
(PID.TID 0000.0001) %MON exf_runoff_min               =   0.0000000000000E+00
(PID.TID 0000.0001) %MON exf_runoff_mean              =   4.0851614046022E-09
(PID.TID 0000.0001) %MON exf_runoff_sd                =   2.7591373452955E-08
(PID.TID 0000.0001) %MON exf_runoff_del2              =   3.6407047856592E-11
(PID.TID 0000.0001) // =======================================================
(PID.TID 0000.0001) // End MONITOR EXF statistics
(PID.TID 0000.0001) // =======================================================
 cg2d: Sum(rhs),rhsMax =  -9.91672860418695E+01  1.43894544608095E+00
(PID.TID 0000.0001)  ploadbar=  1.01131895100022E+05
 cg2d: Sum(rhs),rhsMax =  -9.92623472206278E+01  1.43797675186420E+00
(PID.TID 0000.0001)  ploadbar=  1.01131843800727E+05
 cg2d: Sum(rhs),rhsMax =  -9.93025377718522E+01  1.43780626116031E+00
(PID.TID 0000.0001)  ploadbar=  1.01131792501432E+05
 cg2d: Sum(rhs),rhsMax =  -9.92682825021384E+01  1.43871607122084E+00
(PID.TID 0000.0001)  ploadbar=  1.01131741202136E+05
 cg2d: Sum(rhs),rhsMax =  -9.91736116970353E+01  1.44052264315390E+00
(PID.TID 0000.0001)  ploadbar=  1.01130139418654E+05
 cg2d: Sum(rhs),rhsMax =  -9.90472250634622E+01  1.44281233734872E+00
(PID.TID 0000.0001)  ploadbar=  1.01128537635172E+05
 cg2d: Sum(rhs),rhsMax =  -9.88965825989741E+01  1.44548289732760E+00
(PID.TID 0000.0001)  ploadbar=  1.01126935851689E+05
 cg2d: Sum(rhs),rhsMax =  -9.87099930563880E+01  1.44870785453989E+00
(PID.TID 0000.0001)  ploadbar=  1.01125334068207E+05
 cg2d: Sum(rhs),rhsMax =  -9.85797917075744E+01  1.45113199844151E+00
(PID.TID 0000.0001)  ploadbar=  1.01123732284725E+05
 cg2d: Sum(rhs),rhsMax =  -9.84514941094833E+01  1.45355014941210E+00
(PID.TID 0000.0001)  ploadbar=  1.01122130501242E+05
 cg2d: Sum(rhs),rhsMax =  -9.84797066175897E+01  1.45365199027473E+00
(PID.TID 0000.0001)  ploadbar=  1.01121029613314E+05
 cg2d: Sum(rhs),rhsMax =  -9.85704314641693E+01  1.45282264689882E+00
(PID.TID 0000.0001)  ploadbar=  1.01119928725386E+05
 cg2d: Sum(rhs),rhsMax =  -9.88234224379816E+01  1.44959976508650E+00
(PID.TID 0000.0001)  ploadbar=  1.01118827837458E+05
 cg2d: Sum(rhs),rhsMax =  -9.93178014116712E+01  1.44286662996985E+00
(PID.TID 0000.0001)  ploadbar=  1.01117726949529E+05
 cg2d: Sum(rhs),rhsMax =  -1.00017394390273E+02  1.43324103663546E+00
(PID.TID 0000.0001)  ploadbar=  1.01116626061601E+05
 cg2d: Sum(rhs),rhsMax =  -1.00972201963340E+02  1.42013978417178E+00
(PID.TID 0000.0001)  ploadbar=  1.01115525173673E+05
 cg2d: Sum(rhs),rhsMax =  -1.02084662775837E+02  1.40514484039859E+00
(PID.TID 0000.0001)  ploadbar=  1.01115631705394E+05
 cg2d: Sum(rhs),rhsMax =  -1.02338914495008E+02  1.40216586133551E+00
(PID.TID 0000.0001)  ploadbar=  1.01115738237116E+05
 cg2d: Sum(rhs),rhsMax =  -1.02595342769225E+02  1.39920182332897E+00
(PID.TID 0000.0001)  ploadbar=  1.01115844768837E+05
 cg2d: Sum(rhs),rhsMax =  -1.02797571271713E+02  1.39701705953006E+00
(PID.TID 0000.0001)  ploadbar=  1.01115951300559E+05
 cg2d: Sum(rhs),rhsMax =  -1.02946293738947E+02  1.39558993432691E+00
(PID.TID 0000.0001)  ploadbar=  1.01116057832280E+05
 cg2d: Sum(rhs),rhsMax =  -1.03012748899695E+02  1.39530693928774E+00
(PID.TID 0000.0001)  ploadbar=  1.01116164364002E+05
 cg2d: Sum(rhs),rhsMax =  -1.00968212235401E+02  1.42416416137967E+00
(PID.TID 0000.0001)  ploadbar=  1.01115389566454E+05
 cg2d: Sum(rhs),rhsMax =  -9.87554122221079E+01  1.45666436600154E+00
(PID.TID 0000.0001)  ploadbar=  1.01114614768906E+05
 cg2d: Sum(rhs),rhsMax =  -9.66067600597863E+01  1.48963706734088E+00
(PID.TID 0000.0001)  ploadbar=  1.01113839971358E+05
 cg2d: Sum(rhs),rhsMax =  -9.45157170812788E+01  1.52315463240217E+00
(PID.TID 0000.0001)  ploadbar=  1.01113065173811E+05
 cg2d: Sum(rhs),rhsMax =  -9.24859287135761E+01  1.55712918950920E+00
(PID.TID 0000.0001)  ploadbar=  1.01112290376263E+05
 cg2d: Sum(rhs),rhsMax =  -9.05330216758867E+01  1.59124626956590E+00
(PID.TID 0000.0001)  ploadbar=  1.01111515578715E+05
 cg2d: Sum(rhs),rhsMax =  -8.88013184731796E+01  1.62279743253021E+00
(PID.TID 0000.0001)  ploadbar=  1.01108974090806E+05
 cg2d: Sum(rhs),rhsMax =  -8.72656128929329E+01  1.65186755421315E+00
(PID.TID 0000.0001)  ploadbar=  1.01106432602897E+05
 cg2d: Sum(rhs),rhsMax =  -8.59732212052064E+01  1.67720035146669E+00
(PID.TID 0000.0001)  ploadbar=  1.01103891114988E+05
 cg2d: Sum(rhs),rhsMax =  -8.49360459501745E+01  1.69816826498280E+00
(PID.TID 0000.0001)  ploadbar=  1.01101349627078E+05
 cg2d: Sum(rhs),rhsMax =  -8.41359593380625E+01  1.71478876356581E+00
(PID.TID 0000.0001)  ploadbar=  1.01098808139169E+05
 cg2d: Sum(rhs),rhsMax =  -8.35483751908551E+01  1.72730478717335E+00
(PID.TID 0000.0001)  ploadbar=  1.01096266651260E+05
 cg2d: Sum(rhs),rhsMax =  -8.31357862770782E+01  1.73631449838874E+00
(PID.TID 0000.0001)  ploadbar=  1.01095620154618E+05
 cg2d: Sum(rhs),rhsMax =  -8.27812287798093E+01  1.74417057336531E+00
(PID.TID 0000.0001)  ploadbar=  1.01094973657977E+05
 cg2d: Sum(rhs),rhsMax =  -8.25859288012212E+01  1.74869383573223E+00
(PID.TID 0000.0001)  ploadbar=  1.01094327161335E+05
 cg2d: Sum(rhs),rhsMax =  -8.28509952369548E+01  1.74347296916060E+00
(PID.TID 0000.0001)  ploadbar=  1.01093680664694E+05
 cg2d: Sum(rhs),rhsMax =  -8.35475450662740E+01  1.72928756185892E+00
(PID.TID 0000.0001)  ploadbar=  1.01093034168053E+05
 cg2d: Sum(rhs),rhsMax =  -8.43795870626166E+01  1.71256094719345E+00
(PID.TID 0000.0001)  ploadbar=  1.01092387671411E+05
 cg2d: Sum(rhs),rhsMax =  -8.51127046481736E+01  1.69816550012464E+00
(PID.TID 0000.0001)  ploadbar=  1.01092094903227E+05
 cg2d: Sum(rhs),rhsMax =  -8.57435245529772E+01  1.68605693751925E+00
(PID.TID 0000.0001)  ploadbar=  1.01091802135042E+05
 cg2d: Sum(rhs),rhsMax =  -8.63571881001424E+01  1.67448733937244E+00
(PID.TID 0000.0001)  ploadbar=  1.01091509366858E+05
 cg2d: Sum(rhs),rhsMax =  -8.69747473059220E+01  1.66303497758792E+00
(PID.TID 0000.0001)  ploadbar=  1.01091216598673E+05
 cg2d: Sum(rhs),rhsMax =  -8.75803515586322E+01  1.65199857403592E+00
(PID.TID 0000.0001)  ploadbar=  1.01090923830488E+05
 cg2d: Sum(rhs),rhsMax =  -8.82374666329555E+01  1.64018589245059E+00
(PID.TID 0000.0001)  ploadbar=  1.01090631062304E+05
 cg2d: Sum(rhs),rhsMax =  -8.88071976132442E+01  1.63015175385361E+00
(PID.TID 0000.0001)  ploadbar=  1.01090944913479E+05
 cg2d: Sum(rhs),rhsMax =  -8.93224618084263E+01  1.62123577348382E+00
(PID.TID 0000.0001)  ploadbar=  1.01091258764654E+05
 cg2d: Sum(rhs),rhsMax =  -8.77326283329889E+01  1.65111461626905E+00
(PID.TID 0000.0001)  ploadbar=  1.01091572615829E+05
 cg2d: Sum(rhs),rhsMax =  -8.30960350746436E+01  1.74377478076485E+00
(PID.TID 0000.0001)  ploadbar=  1.01091886467004E+05
 cg2d: Sum(rhs),rhsMax =  -7.89945538802899E+01  1.83487797778133E+00
(PID.TID 0000.0001)  ploadbar=  1.01092200318178E+05
 cg2d: Sum(rhs),rhsMax =  -7.53470078017425E+01  1.92430148782811E+00
(PID.TID 0000.0001)  ploadbar=  1.01092514169353E+05
 cg2d: Sum(rhs),rhsMax =  -7.21538073698060E+01  2.01006303084561E+00
(PID.TID 0000.0001)  ploadbar=  1.01093438465448E+05
 cg2d: Sum(rhs),rhsMax =  -6.92834859781068E+01  2.09393964949787E+00
(PID.TID 0000.0001)  ploadbar=  1.01094362761542E+05
 cg2d: Sum(rhs),rhsMax =  -6.66821740940848E+01  2.17623239644266E+00
(PID.TID 0000.0001)  ploadbar=  1.01095287057636E+05
 cg2d: Sum(rhs),rhsMax =  -6.43252013516524E+01  2.25658438342179E+00
(PID.TID 0000.0001)  ploadbar=  1.01096211353731E+05
 cg2d: Sum(rhs),rhsMax =  -6.21857074672746E+01  2.33483937547928E+00
(PID.TID 0000.0001)  ploadbar=  1.01097135649825E+05
 cg2d: Sum(rhs),rhsMax =  -6.02392954810738E+01  2.41090669518948E+00
(PID.TID 0000.0001)  ploadbar=  1.01098059945919E+05
 cg2d: Sum(rhs),rhsMax =  -5.84280194047646E+01  2.48625374429928E+00
(PID.TID 0000.0001)  ploadbar=  1.01098351515064E+05
 cg2d: Sum(rhs),rhsMax =  -5.69128008653530E+01  2.55303376756703E+00
(PID.TID 0000.0001)  ploadbar=  1.01098643084209E+05
 cg2d: Sum(rhs),rhsMax =  -5.60796768138136E+01  2.59151812137917E+00
(PID.TID 0000.0001)  ploadbar=  1.01098934653353E+05
 cg2d: Sum(rhs),rhsMax =  -5.53288334585433E+01  2.62721196567986E+00
(PID.TID 0000.0001)  ploadbar=  1.01099226222498E+05
 cg2d: Sum(rhs),rhsMax =  -5.48957815794712E+01  2.64842676826057E+00
(PID.TID 0000.0001)  ploadbar=  1.01099517791643E+05
 cg2d: Sum(rhs),rhsMax =  -5.44144645443671E+01  2.67230557180058E+00
(PID.TID 0000.0001)  ploadbar=  1.01099809360788E+05
 cg2d: Sum(rhs),rhsMax =  -5.46647775072546E+01  2.66055055181134E+00
(PID.TID 0000.0001)  ploadbar=  1.01101259925560E+05
 cg2d: Sum(rhs),rhsMax =  -5.57517595391160E+01  2.60918144293192E+00
(PID.TID 0000.0001)  ploadbar=  1.01102710490332E+05
 cg2d: Sum(rhs),rhsMax =  -5.71311565486236E+01  2.54670341869766E+00
(PID.TID 0000.0001)  ploadbar=  1.01104161055104E+05
 cg2d: Sum(rhs),rhsMax =  -5.84363285920768E+01  2.49035990222723E+00
(PID.TID 0000.0001)  ploadbar=  1.01105611619876E+05
 cg2d: Sum(rhs),rhsMax =  -5.95995867780007E+01  2.44230995138602E+00
(PID.TID 0000.0001)  ploadbar=  1.01107062184648E+05
 cg2d: Sum(rhs),rhsMax =  -6.05687944829297E+01  2.40380665499373E+00
(PID.TID 0000.0001)  ploadbar=  1.01108512749420E+05
 cg2d: Sum(rhs),rhsMax =  -6.14850785170103E+01  2.36855154662305E+00
(PID.TID 0000.0001)  ploadbar=  1.01109768735207E+05
 cg2d: Sum(rhs),rhsMax =  -6.22996872080867E+01  2.33814255010772E+00
(PID.TID 0000.0001)  ploadbar=  1.01111024720993E+05
 cg2d: Sum(rhs),rhsMax =  -6.30940237142188E+01  2.30926146846718E+00
(PID.TID 0000.0001)  ploadbar=  1.01112280706780E+05
 cg2d: Sum(rhs),rhsMax =  -6.38895206138299E+01  2.28105735833351E+00
(PID.TID 0000.0001)  ploadbar=  1.01113536692566E+05
 cg2d: Sum(rhs),rhsMax =  -6.46933365656797E+01  2.25325602547691E+00
(PID.TID 0000.0001)  ploadbar=  1.01114792678353E+05
 cg2d: Sum(rhs),rhsMax =  -6.54985389462641E+01  2.22608940928180E+00
(PID.TID 0000.0001)  ploadbar=  1.01116048664140E+05
 cg2d: Sum(rhs),rhsMax =  -6.62389122503228E+01  2.20170386368663E+00
(PID.TID 0000.0001)  ploadbar=  1.01116859153577E+05
 cg2d: Sum(rhs),rhsMax =  -6.70160684934499E+01  2.17663157118874E+00
(PID.TID 0000.0001)  ploadbar=  1.01117669643014E+05
 cg2d: Sum(rhs),rhsMax =  -6.78404719313025E+01  2.15060692144702E+00
(PID.TID 0000.0001)  ploadbar=  1.01118480132452E+05
 cg2d: Sum(rhs),rhsMax =  -6.86967868839727E+01  2.12419292892241E+00
(PID.TID 0000.0001)  ploadbar=  1.01119290621889E+05
 cg2d: Sum(rhs),rhsMax =  -6.95958678957955E+01  2.09711259620757E+00
(PID.TID 0000.0001)  ploadbar=  1.01120101111327E+05
 cg2d: Sum(rhs),rhsMax =  -7.05573158765081E+01  2.06886572148291E+00
(PID.TID 0000.0001)  ploadbar=  1.01120911600764E+05
 cg2d: Sum(rhs),rhsMax =  -7.15764083188249E+01  2.03971758506342E+00
(PID.TID 0000.0001)  ploadbar=  1.01120763087388E+05
 cg2d: Sum(rhs),rhsMax =  -7.26126421841762E+01  2.01089545471752E+00
(PID.TID 0000.0001)  ploadbar=  1.01120614574011E+05
 cg2d: Sum(rhs),rhsMax =  -7.36643808509442E+01  1.98245018903926E+00
(PID.TID 0000.0001)  ploadbar=  1.01120466060635E+05
 cg2d: Sum(rhs),rhsMax =  -7.47346619315380E+01  1.95430482757805E+00
(PID.TID 0000.0001)  ploadbar=  1.01120317547259E+05
 cg2d: Sum(rhs),rhsMax =  -7.58339003938896E+01  1.92620400501369E+00
(PID.TID 0000.0001)  ploadbar=  1.01120169033883E+05
 cg2d: Sum(rhs),rhsMax =  -7.69610872771205E+01  1.89820317914822E+00
(PID.TID 0000.0001)  ploadbar=  1.01120020520507E+05
 cg2d: Sum(rhs),rhsMax =  -7.80867210792351E+01  1.87107832187181E+00
(PID.TID 0000.0001)  ploadbar=  1.01119273452753E+05
 cg2d: Sum(rhs),rhsMax =  -7.91565514671768E+01  1.84605401321417E+00
(PID.TID 0000.0001)  ploadbar=  1.01118526384999E+05
 cg2d: Sum(rhs),rhsMax =  -8.01793268529946E+01  1.82279420309414E+00
(PID.TID 0000.0001)  ploadbar=  1.01117779317245E+05
 cg2d: Sum(rhs),rhsMax =  -8.11438764727152E+01  1.80144078596455E+00
(PID.TID 0000.0001)  ploadbar=  1.01117032249491E+05
 cg2d: Sum(rhs),rhsMax =  -8.20603910553900E+01  1.78166091355777E+00
(PID.TID 0000.0001)  ploadbar=  1.01116285181738E+05
 cg2d: Sum(rhs),rhsMax =  -8.30147159381498E+01  1.76154278401922E+00
(PID.TID 0000.0001)  ploadbar=  1.01115538113984E+05
 cg2d: Sum(rhs),rhsMax =  -8.40394129190915E+01  1.74041714470767E+00
(PID.TID 0000.0001)  ploadbar=  1.01114754430325E+05
 cg2d: Sum(rhs),rhsMax =  -8.51958669320803E+01  1.71713447651428E+00
(PID.TID 0000.0001)  ploadbar=  1.01113970746667E+05
 cg2d: Sum(rhs),rhsMax =  -8.64902221499519E+01  1.69176716072363E+00
(PID.TID 0000.0001)  ploadbar=  1.01113187063008E+05
 cg2d: Sum(rhs),rhsMax =  -8.79736311653185E+01  1.66355810523512E+00
(PID.TID 0000.0001)  ploadbar=  1.01112403379349E+05
 cg2d: Sum(rhs),rhsMax =  -8.96563430357031E+01  1.63263944304172E+00
(PID.TID 0000.0001)  ploadbar=  1.01111619695690E+05
 cg2d: Sum(rhs),rhsMax =  -9.15408354550099E+01  1.59931884815621E+00
(PID.TID 0000.0001)  ploadbar=  1.01110836012032E+05
 cg2d: Sum(rhs),rhsMax =  -9.06631550024173E+01  1.61509012201857E+00
(PID.TID 0000.0001)  ploadbar=  1.01110563258609E+05
 cg2d: Sum(rhs),rhsMax =  -8.93843039640449E+01  1.63848396004834E+00
(PID.TID 0000.0001)  ploadbar=  1.01110290505186E+05
 cg2d: Sum(rhs),rhsMax =  -8.76865821877775E+01  1.67049078412610E+00
(PID.TID 0000.0001)  ploadbar=  1.01110017751763E+05
 cg2d: Sum(rhs),rhsMax =  -8.60152531322339E+01  1.70322995627652E+00
(PID.TID 0000.0001)  ploadbar=  1.01109744998340E+05
 cg2d: Sum(rhs),rhsMax =  -8.46262545760148E+01  1.73146267788393E+00
(PID.TID 0000.0001)  ploadbar=  1.01109472244918E+05
 cg2d: Sum(rhs),rhsMax =  -8.34631362943731E+01  1.75586342504900E+00
(PID.TID 0000.0001)  ploadbar=  1.01109199491495E+05
 cg2d: Sum(rhs),rhsMax =  -8.27156878477904E+01  1.77197750190260E+00
(PID.TID 0000.0001)  ploadbar=  1.01108824908469E+05
 cg2d: Sum(rhs),rhsMax =  -8.22447509120895E+01  1.78234619032580E+00
(PID.TID 0000.0001)  ploadbar=  1.01108450325444E+05
 cg2d: Sum(rhs),rhsMax =  -8.20178658584529E+01  1.78747223276496E+00
(PID.TID 0000.0001)  ploadbar=  1.01108075742418E+05
 cg2d: Sum(rhs),rhsMax =  -8.20360498454945E+01  1.78724477690810E+00
(PID.TID 0000.0001)  ploadbar=  1.01107701159393E+05
 cg2d: Sum(rhs),rhsMax =  -8.24509332728146E+01  1.77839318816787E+00
(PID.TID 0000.0001)  ploadbar=  1.01107326576367E+05
 cg2d: Sum(rhs),rhsMax =  -8.30704421061647E+01  1.76524407550286E+00
(PID.TID 0000.0001)  ploadbar=  1.01106951993342E+05
 cg2d: Sum(rhs),rhsMax =  -8.36738610647023E+01  1.75266951493361E+00
(PID.TID 0000.0001)  ploadbar=  1.01106225207313E+05
 cg2d: Sum(rhs),rhsMax =  -8.42113153888624E+01  1.74167815918755E+00
(PID.TID 0000.0001)  ploadbar=  1.01105498421284E+05
 cg2d: Sum(rhs),rhsMax =  -8.46537548207459E+01  1.73280567772163E+00
(PID.TID 0000.0001)  ploadbar=  1.01104771635255E+05
 cg2d: Sum(rhs),rhsMax =  -8.50088193654298E+01  1.72583516669393E+00
(PID.TID 0000.0001)  ploadbar=  1.01104044849226E+05
 cg2d: Sum(rhs),rhsMax =  -8.53080867263680E+01  1.72008327197608E+00
(PID.TID 0000.0001)  ploadbar=  1.01103318063196E+05
 cg2d: Sum(rhs),rhsMax =  -8.55824414562890E+01  1.71490590800549E+00
(PID.TID 0000.0001)  ploadbar=  1.01102591277167E+05
 cg2d: Sum(rhs),rhsMax =  -8.57315542090594E+01  1.71227832636475E+00
(PID.TID 0000.0001)  ploadbar=  1.01101547041665E+05
 cg2d: Sum(rhs),rhsMax =  -8.58703746088136E+01  1.70988344453307E+00
(PID.TID 0000.0001)  ploadbar=  1.01100502806163E+05
 cg2d: Sum(rhs),rhsMax =  -8.60115063047869E+01  1.70746882420479E+00
(PID.TID 0000.0001)  ploadbar=  1.01099458570661E+05
 cg2d: Sum(rhs),rhsMax =  -8.61536345669932E+01  1.70506001768233E+00
(PID.TID 0000.0001)  ploadbar=  1.01098414335160E+05
 cg2d: Sum(rhs),rhsMax =  -8.62989454125404E+01  1.70261215360909E+00
(PID.TID 0000.0001)  ploadbar=  1.01097370099658E+05
 cg2d: Sum(rhs),rhsMax =  -8.64441240208306E+01  1.70018912841137E+00
(PID.TID 0000.0001)  ploadbar=  1.01096325864156E+05
 cg2d: Sum(rhs),rhsMax =  -8.65218789899623E+01  1.69909653709101E+00
(PID.TID 0000.0001)  ploadbar=  1.01095046381119E+05
 cg2d: Sum(rhs),rhsMax =  -8.65919444578466E+01  1.69815347918930E+00
(PID.TID 0000.0001)  ploadbar=  1.01093766898082E+05
 cg2d: Sum(rhs),rhsMax =  -8.66603746951807E+01  1.69724038248119E+00
(PID.TID 0000.0001)  ploadbar=  1.01092487415045E+05
 cg2d: Sum(rhs),rhsMax =  -8.67333516313105E+01  1.69623513539855E+00
(PID.TID 0000.0001)  ploadbar=  1.01091207932008E+05
 cg2d: Sum(rhs),rhsMax =  -8.68092975271885E+01  1.69516781586190E+00
(PID.TID 0000.0001)  ploadbar=  1.01089928448971E+05
 cg2d: Sum(rhs),rhsMax =  -8.68900267322747E+01  1.69400119859311E+00
(PID.TID 0000.0001)  ploadbar=  1.01088648965934E+05
 cg2d: Sum(rhs),rhsMax =  -8.69991821541631E+01  1.69226232462266E+00
(PID.TID 0000.0001)  ploadbar=  1.01088571149636E+05
 cg2d: Sum(rhs),rhsMax =  -8.71160807398059E+01  1.69035590721483E+00
(PID.TID 0000.0001)  ploadbar=  1.01088493333338E+05
 cg2d: Sum(rhs),rhsMax =  -8.72358130848341E+01  1.68837806265360E+00
(PID.TID 0000.0001)  ploadbar=  1.01088415517039E+05
 cg2d: Sum(rhs),rhsMax =  -8.73690873913338E+01  1.68612084885680E+00
(PID.TID 0000.0001)  ploadbar=  1.01088337700741E+05
 cg2d: Sum(rhs),rhsMax =  -8.75126714782503E+01  1.68364842801842E+00
(PID.TID 0000.0001)  ploadbar=  1.01088259884443E+05
 cg2d: Sum(rhs),rhsMax =  -8.76621152516390E+01  1.68104669301616E+00
(PID.TID 0000.0001)  ploadbar=  1.01088182068144E+05
 cg2d: Sum(rhs),rhsMax =  -8.78155866977931E+01  1.67840778238309E+00
(PID.TID 0000.0001)  ploadbar=  1.01088241489251E+05
 cg2d: Sum(rhs),rhsMax =  -8.79703951723481E+01  1.67578176373760E+00
(PID.TID 0000.0001)  ploadbar=  1.01088300910357E+05
 cg2d: Sum(rhs),rhsMax =  -8.81162183752675E+01  1.67336333938345E+00
(PID.TID 0000.0001)  ploadbar=  1.01088360331464E+05
 cg2d: Sum(rhs),rhsMax =  -8.82585182571671E+01  1.67104732067551E+00
(PID.TID 0000.0001)  ploadbar=  1.01088419752571E+05
 cg2d: Sum(rhs),rhsMax =  -8.84001139894855E+01  1.66877898706860E+00
(PID.TID 0000.0001)  ploadbar=  1.01088479173677E+05
 cg2d: Sum(rhs),rhsMax =  -8.85384407618017E+01  1.66660383484358E+00
(PID.TID 0000.0001)  ploadbar=  1.01088538594784E+05
 cg2d: Sum(rhs),rhsMax =  -8.87531526384229E+01  1.66300202826959E+00
(PID.TID 0000.0001)  ploadbar=  1.01089080724852E+05
 cg2d: Sum(rhs),rhsMax =  -8.89755928034714E+01  1.65927080740002E+00
(PID.TID 0000.0001)  ploadbar=  1.01089622854921E+05
 cg2d: Sum(rhs),rhsMax =  -8.86345609916440E+01  1.66608080683661E+00
(PID.TID 0000.0001)  ploadbar=  1.01090164984989E+05
 cg2d: Sum(rhs),rhsMax =  -8.79247401483902E+01  1.67995781969682E+00
(PID.TID 0000.0001)  ploadbar=  1.01090707115058E+05
 cg2d: Sum(rhs),rhsMax =  -8.71006595689850E+01  1.69627896210789E+00
(PID.TID 0000.0001)  ploadbar=  1.01091249245126E+05
 cg2d: Sum(rhs),rhsMax =  -8.62122953185666E+01  1.71418364610269E+00
(PID.TID 0000.0001)  ploadbar=  1.01091791375195E+05
 cg2d: Sum(rhs),rhsMax =  -8.52912711690097E+01  1.73312525616205E+00
(PID.TID 0000.0001)  ploadbar=  1.01091781302135E+05
 cg2d: Sum(rhs),rhsMax =  -8.43999068305395E+01  1.75186365168369E+00
(PID.TID 0000.0001)  ploadbar=  1.01091771229076E+05
 cg2d: Sum(rhs),rhsMax =  -8.35913838050051E+01  1.76924465918988E+00
(PID.TID 0000.0001)  ploadbar=  1.01091761156017E+05
 cg2d: Sum(rhs),rhsMax =  -8.28729276324533E+01  1.78502059544269E+00
(PID.TID 0000.0001)  ploadbar=  1.01091751082958E+05
 cg2d: Sum(rhs),rhsMax =  -8.22525324124655E+01  1.79892231878162E+00
(PID.TID 0000.0001)  ploadbar=  1.01091741009899E+05
 cg2d: Sum(rhs),rhsMax =  -8.17361464606093E+01  1.81072511644666E+00
(PID.TID 0000.0001)  ploadbar=  1.01091730936839E+05
 cg2d: Sum(rhs),rhsMax =  -8.13108438175744E+01  1.82060780514995E+00
(PID.TID 0000.0001)  ploadbar=  1.01092689713016E+05
 cg2d: Sum(rhs),rhsMax =  -8.09558064233269E+01  1.82897497415706E+00
(PID.TID 0000.0001)  ploadbar=  1.01093648489192E+05
 cg2d: Sum(rhs),rhsMax =  -8.06862021624151E+01  1.83543903766024E+00
(PID.TID 0000.0001)  ploadbar=  1.01094607265368E+05
 cg2d: Sum(rhs),rhsMax =  -8.04935503072662E+01  1.84015420042309E+00
(PID.TID 0000.0001)  ploadbar=  1.01095566041544E+05
 cg2d: Sum(rhs),rhsMax =  -8.03835768437924E+01  1.84296248702718E+00
(PID.TID 0000.0001)  ploadbar=  1.01096524817720E+05
 cg2d: Sum(rhs),rhsMax =  -8.03671689040858E+01  1.84359551617041E+00
(PID.TID 0000.0001)  ploadbar=  1.01097483593896E+05
 cg2d: Sum(rhs),rhsMax =  -8.04701234466541E+01  1.84153406110888E+00
(PID.TID 0000.0001)  ploadbar=  1.01098727031442E+05
 cg2d: Sum(rhs),rhsMax =  -8.06171357529971E+01  1.83851280248026E+00
(PID.TID 0000.0001)  ploadbar=  1.01099970468988E+05
 cg2d: Sum(rhs),rhsMax =  -8.07719269518761E+01  1.83536436289529E+00
(PID.TID 0000.0001)  ploadbar=  1.01101213906534E+05
 cg2d: Sum(rhs),rhsMax =  -8.09168051695414E+01  1.83248965993821E+00
(PID.TID 0000.0001)  ploadbar=  1.01102457344080E+05
 cg2d: Sum(rhs),rhsMax =  -8.10322388335000E+01  1.83032623578591E+00
(PID.TID 0000.0001)  ploadbar=  1.01103700781625E+05
 cg2d: Sum(rhs),rhsMax =  -8.11079391068577E+01  1.82909792144304E+00
(PID.TID 0000.0001)  ploadbar=  1.01104944219171E+05
 cg2d: Sum(rhs),rhsMax =  -8.11912288208763E+01  1.82767017170137E+00
(PID.TID 0000.0001)  ploadbar=  1.01106371992370E+05
 cg2d: Sum(rhs),rhsMax =  -8.12480884614172E+01  1.82680805390041E+00
(PID.TID 0000.0001)  ploadbar=  1.01107799765568E+05
 cg2d: Sum(rhs),rhsMax =  -8.12450258038316E+01  1.82726212213970E+00
(PID.TID 0000.0001)  ploadbar=  1.01109227538767E+05
 cg2d: Sum(rhs),rhsMax =  -8.12176460238273E+01  1.82823154401921E+00
(PID.TID 0000.0001)  ploadbar=  1.01110655311966E+05
 cg2d: Sum(rhs),rhsMax =  -8.12224909582533E+01  1.82844398913965E+00
(PID.TID 0000.0001)  ploadbar=  1.01112083085164E+05
 cg2d: Sum(rhs),rhsMax =  -8.12977895809241E+01  1.82703965129661E+00
(PID.TID 0000.0001)  ploadbar=  1.01113510858363E+05
 cg2d: Sum(rhs),rhsMax =  -8.14143791967359E+01  1.82469794478192E+00
(PID.TID 0000.0001)  ploadbar=  1.01113500372485E+05
 cg2d: Sum(rhs),rhsMax =  -8.15933562292796E+01  1.82095413015931E+00
(PID.TID 0000.0001)  ploadbar=  1.01113489886606E+05
 cg2d: Sum(rhs),rhsMax =  -8.17874372013578E+01  1.81687484268753E+00
(PID.TID 0000.0001)  ploadbar=  1.01113479400728E+05
 cg2d: Sum(rhs),rhsMax =  -8.20004231462024E+01  1.81238020486431E+00
(PID.TID 0000.0001)  ploadbar=  1.01113468914850E+05
 cg2d: Sum(rhs),rhsMax =  -8.22427286250646E+01  1.80724795522209E+00
(PID.TID 0000.0001)  ploadbar=  1.01113458428971E+05
 cg2d: Sum(rhs),rhsMax =  -8.25185762380663E+01  1.80139770843533E+00
(PID.TID 0000.0001)  ploadbar=  1.01113447943093E+05
 cg2d: Sum(rhs),rhsMax =  -8.27839336718123E+01  1.79577144246213E+00
(PID.TID 0000.0001)  ploadbar=  1.01114071051591E+05
 cg2d: Sum(rhs),rhsMax =  -8.30648236509674E+01  1.78980152254842E+00
(PID.TID 0000.0001)  ploadbar=  1.01114694160089E+05
 cg2d: Sum(rhs),rhsMax =  -8.33300380460257E+01  1.78416153835804E+00
(PID.TID 0000.0001)  ploadbar=  1.01115317268587E+05
 cg2d: Sum(rhs),rhsMax =  -8.35598826806285E+01  1.77926402176383E+00
(PID.TID 0000.0001)  ploadbar=  1.01115940377084E+05
 cg2d: Sum(rhs),rhsMax =  -8.37572555550870E+01  1.77503486003988E+00
(PID.TID 0000.0001)  ploadbar=  1.01116563485582E+05
 cg2d: Sum(rhs),rhsMax =  -8.39262660262326E+01  1.77137646962332E+00
(PID.TID 0000.0001)  ploadbar=  1.01117186594080E+05
 cg2d: Sum(rhs),rhsMax =  -8.40096442760749E+01  1.76957905523905E+00
(PID.TID 0000.0001)  ploadbar=  1.01117215551341E+05
 cg2d: Sum(rhs),rhsMax =  -8.40712365907513E+01  1.76828871127892E+00
(PID.TID 0000.0001)  ploadbar=  1.01117244508601E+05
 cg2d: Sum(rhs),rhsMax =  -8.41234230907274E+01  1.76724090312496E+00
(PID.TID 0000.0001)  ploadbar=  1.01117273465861E+05
 cg2d: Sum(rhs),rhsMax =  -8.41585219323659E+01  1.76659566376611E+00
(PID.TID 0000.0001)  ploadbar=  1.01117302423121E+05
 cg2d: Sum(rhs),rhsMax =  -8.41938030411755E+01  1.76598905561953E+00
(PID.TID 0000.0001)  ploadbar=  1.01117331380381E+05
 cg2d: Sum(rhs),rhsMax =  -8.42363536025509E+01  1.76527086231120E+00
(PID.TID 0000.0001)  ploadbar=  1.01117360337641E+05
 cg2d: Sum(rhs),rhsMax =  -8.42861081710652E+01  1.76441079976214E+00
(PID.TID 0000.0001)  ploadbar=  1.01117235124061E+05
 cg2d: Sum(rhs),rhsMax =  -8.43435397328754E+01  1.76339791169263E+00
(PID.TID 0000.0001)  ploadbar=  1.01117109910481E+05
 cg2d: Sum(rhs),rhsMax =  -8.44377772122716E+01  1.76162590497233E+00
(PID.TID 0000.0001)  ploadbar=  1.01116984696900E+05
 cg2d: Sum(rhs),rhsMax =  -8.45683292118552E+01  1.75910968684015E+00
(PID.TID 0000.0001)  ploadbar=  1.01116859483320E+05
 cg2d: Sum(rhs),rhsMax =  -8.47270056751335E+01  1.75602520634755E+00
(PID.TID 0000.0001)  ploadbar=  1.01116734269740E+05
 cg2d: Sum(rhs),rhsMax =  -8.49051008909452E+01  1.75255890862907E+00
(PID.TID 0000.0001)  ploadbar=  1.01116609056159E+05
 cg2d: Sum(rhs),rhsMax =  -8.51077104825675E+01  1.74858242966173E+00
(PID.TID 0000.0001)  ploadbar=  1.01117238484868E+05
 cg2d: Sum(rhs),rhsMax =  -8.53159447034285E+01  1.74448780615058E+00
(PID.TID 0000.0001)  ploadbar=  1.01117867913577E+05
 cg2d: Sum(rhs),rhsMax =  -8.55246395922526E+01  1.74038087062465E+00
(PID.TID 0000.0001)  ploadbar=  1.01118497342285E+05
 cg2d: Sum(rhs),rhsMax =  -8.57362085087548E+01  1.73621202248629E+00
(PID.TID 0000.0001)  ploadbar=  1.01119126770994E+05
 cg2d: Sum(rhs),rhsMax =  -8.59478008738610E+01  1.73203917915019E+00
(PID.TID 0000.0001)  ploadbar=  1.01119756199703E+05
 cg2d: Sum(rhs),rhsMax =  -8.61616538030574E+01  1.72781678608517E+00
(PID.TID 0000.0001)  ploadbar=  1.01120385628411E+05
 cg2d: Sum(rhs),rhsMax =  -8.64305611521932E+01  1.72247883431251E+00
(PID.TID 0000.0001)  ploadbar=  1.01120580682073E+05
 cg2d: Sum(rhs),rhsMax =  -8.67335534028101E+01  1.71645980666286E+00
(PID.TID 0000.0001)  ploadbar=  1.01120775735734E+05
 cg2d: Sum(rhs),rhsMax =  -8.70569716946769E+01  1.71004157770778E+00
(PID.TID 0000.0001)  ploadbar=  1.01120970789396E+05
 cg2d: Sum(rhs),rhsMax =  -8.73877736983663E+01  1.70348493318404E+00
(PID.TID 0000.0001)  ploadbar=  1.01121165843058E+05
 cg2d: Sum(rhs),rhsMax =  -8.76561639154532E+01  1.69814479402507E+00
(PID.TID 0000.0001)  ploadbar=  1.01121360896719E+05
 cg2d: Sum(rhs),rhsMax =  -8.79535450220174E+01  1.69223865221868E+00
(PID.TID 0000.0001)  ploadbar=  1.01121555950381E+05
 cg2d: Sum(rhs),rhsMax =  -8.82711803711291E+01  1.68604168678481E+00
(PID.TID 0000.0001)  ploadbar=  1.01122426002277E+05
 cg2d: Sum(rhs),rhsMax =  -8.86237695739765E+01  1.67928057689362E+00
(PID.TID 0000.0001)  ploadbar=  1.01123296054173E+05
 cg2d: Sum(rhs),rhsMax =  -8.92349103702342E+01  1.66777838408291E+00
(PID.TID 0000.0001)  ploadbar=  1.01124166106069E+05
 cg2d: Sum(rhs),rhsMax =  -9.00997658024484E+01  1.65181639650871E+00
(PID.TID 0000.0001)  ploadbar=  1.01125036157965E+05
 cg2d: Sum(rhs),rhsMax =  -9.10427137887570E+01  1.63480113797130E+00
(PID.TID 0000.0001)  ploadbar=  1.01125906209861E+05
 cg2d: Sum(rhs),rhsMax =  -9.09925230567217E+01  1.63583999935456E+00
(PID.TID 0000.0001)  ploadbar=  1.01126776261757E+05
 cg2d: Sum(rhs),rhsMax =  -9.04065170451756E+01  1.64658192147697E+00
(PID.TID 0000.0001)  ploadbar=  1.01127016550739E+05
 cg2d: Sum(rhs),rhsMax =  -8.95016234576853E+01  1.66336790380660E+00
(PID.TID 0000.0001)  ploadbar=  1.01127256839722E+05
 cg2d: Sum(rhs),rhsMax =  -8.85088405538933E+01  1.68216047202013E+00
(PID.TID 0000.0001)  ploadbar=  1.01127497128705E+05
 cg2d: Sum(rhs),rhsMax =  -8.79304334937109E+01  1.69335625014399E+00
(PID.TID 0000.0001)  ploadbar=  1.01127737417687E+05
 cg2d: Sum(rhs),rhsMax =  -8.74758234340852E+01  1.70228042528284E+00
(PID.TID 0000.0001)  ploadbar=  1.01127977706670E+05
 cg2d: Sum(rhs),rhsMax =  -8.69040203385629E+01  1.71359479209405E+00
(PID.TID 0000.0001)  ploadbar=  1.01128217995653E+05
 cg2d: Sum(rhs),rhsMax =  -8.62682663773910E+01  1.72633326088856E+00
(PID.TID 0000.0001)  ploadbar=  1.01129111338903E+05
 cg2d: Sum(rhs),rhsMax =  -8.55258102421408E+01  1.74142129457893E+00
(PID.TID 0000.0001)  ploadbar=  1.01130004682154E+05
 cg2d: Sum(rhs),rhsMax =  -8.47480319541220E+01  1.75749433056797E+00
(PID.TID 0000.0001)  ploadbar=  1.01130898025405E+05
 cg2d: Sum(rhs),rhsMax =  -8.39093144481599E+01  1.77513896950018E+00
(PID.TID 0000.0001)  ploadbar=  1.01131791368656E+05
 cg2d: Sum(rhs),rhsMax =  -8.29999028569529E+01  1.79465084717036E+00
(PID.TID 0000.0001)  ploadbar=  1.01132684711906E+05
 cg2d: Sum(rhs),rhsMax =  -8.20221165329231E+01  1.81608743937012E+00
(PID.TID 0000.0001)  ploadbar=  1.01133578055157E+05
 cg2d: Sum(rhs),rhsMax =  -8.10097987279491E+01  1.83881290486929E+00
(PID.TID 0000.0001)  ploadbar=  1.01133917683186E+05
 cg2d: Sum(rhs),rhsMax =  -7.99695168405724E+01  1.86275133549222E+00
(PID.TID 0000.0001)  ploadbar=  1.01134257311215E+05
 cg2d: Sum(rhs),rhsMax =  -7.89371419763523E+01  1.88711796949153E+00
(PID.TID 0000.0001)  ploadbar=  1.01134596939244E+05
 cg2d: Sum(rhs),rhsMax =  -7.79259825631893E+01  1.91159405362746E+00
(PID.TID 0000.0001)  ploadbar=  1.01134936567273E+05
 cg2d: Sum(rhs),rhsMax =  -7.69413704256431E+01  1.93602767234431E+00
(PID.TID 0000.0001)  ploadbar=  1.01135276195302E+05
 cg2d: Sum(rhs),rhsMax =  -7.59863565128467E+01  1.96031056332272E+00
(PID.TID 0000.0001)  ploadbar=  1.01135615823332E+05
 cg2d: Sum(rhs),rhsMax =  -7.51129564121225E+01  1.98311287073603E+00
(PID.TID 0000.0001)  ploadbar=  1.01135670021773E+05
 cg2d: Sum(rhs),rhsMax =  -7.42808322180122E+01  2.00539508716396E+00
(PID.TID 0000.0001)  ploadbar=  1.01135724220214E+05
 cg2d: Sum(rhs),rhsMax =  -7.34902568062776E+01  2.02708998454415E+00
(PID.TID 0000.0001)  ploadbar=  1.01135778418655E+05
 cg2d: Sum(rhs),rhsMax =  -7.27390948311339E+01  2.04820023390312E+00
(PID.TID 0000.0001)  ploadbar=  1.01135832617097E+05
 cg2d: Sum(rhs),rhsMax =  -7.20249656333483E+01  2.06873601210873E+00
(PID.TID 0000.0001)  ploadbar=  1.01135886815538E+05
 cg2d: Sum(rhs),rhsMax =  -7.13437799182347E+01  2.08876078286704E+00
(PID.TID 0000.0001)  ploadbar=  1.01135941013979E+05
 cg2d: Sum(rhs),rhsMax =  -7.07025049932087E+01  2.10799108825390E+00
(PID.TID 0000.0001)  ploadbar=  1.01136390705072E+05
 cg2d: Sum(rhs),rhsMax =  -7.01079133546981E+01  2.12617082484316E+00
(PID.TID 0000.0001)  ploadbar=  1.01136840396164E+05
 cg2d: Sum(rhs),rhsMax =  -6.95561249952594E+01  2.14335366840168E+00
(PID.TID 0000.0001)  ploadbar=  1.01137290087257E+05
 cg2d: Sum(rhs),rhsMax =  -6.90496096039495E+01  2.15940466905333E+00
(PID.TID 0000.0001)  ploadbar=  1.01137739778350E+05
 cg2d: Sum(rhs),rhsMax =  -6.85915940693145E+01  2.17416061675240E+00
(PID.TID 0000.0001)  ploadbar=  1.01138189469442E+05
 cg2d: Sum(rhs),rhsMax =  -6.81775988056240E+01  2.18770456731028E+00
(PID.TID 0000.0001)  ploadbar=  1.01138639160535E+05
 cg2d: Sum(rhs),rhsMax =  -6.78130842714128E+01  2.19982801409286E+00
(PID.TID 0000.0001)  ploadbar=  1.01139397625947E+05
 cg2d: Sum(rhs),rhsMax =  -6.74902945746909E+01  2.21073116645883E+00
(PID.TID 0000.0001)  ploadbar=  1.01140156091360E+05
 cg2d: Sum(rhs),rhsMax =  -6.72085885610166E+01  2.22039378751862E+00
(PID.TID 0000.0001)  ploadbar=  1.01140914556773E+05
 cg2d: Sum(rhs),rhsMax =  -6.69683937030033E+01  2.22876396289890E+00
(PID.TID 0000.0001)  ploadbar=  1.01141673022186E+05
 cg2d: Sum(rhs),rhsMax =  -6.67813263569084E+01  2.23541975081023E+00
(PID.TID 0000.0001)  ploadbar=  1.01142431487599E+05
 cg2d: Sum(rhs),rhsMax =  -6.66570658058090E+01  2.24000525865784E+00
(PID.TID 0000.0001)  ploadbar=  1.01143189953012E+05
 cg2d: Sum(rhs),rhsMax =  -6.66065463274396E+01  2.24208954865041E+00
(PID.TID 0000.0001)  ploadbar=  1.01143993198870E+05
 cg2d: Sum(rhs),rhsMax =  -6.66447522562166E+01  2.24115444381196E+00
(PID.TID 0000.0001)  ploadbar=  1.01144796444728E+05
 cg2d: Sum(rhs),rhsMax =  -6.67253999855873E+01  2.23876009977139E+00
(PID.TID 0000.0001)  ploadbar=  1.01145599690587E+05
 cg2d: Sum(rhs),rhsMax =  -6.70225419515013E+01  2.22911058545636E+00
(PID.TID 0000.0001)  ploadbar=  1.01146402936445E+05
 cg2d: Sum(rhs),rhsMax =  -6.73334857768245E+01  2.21905226053570E+00
(PID.TID 0000.0001)  ploadbar=  1.01147206182303E+05
 cg2d: Sum(rhs),rhsMax =  -6.76685341368520E+01  2.20825870393494E+00
(PID.TID 0000.0001)  ploadbar=  1.01148009428162E+05
 cg2d: Sum(rhs),rhsMax =  -6.80615365530818E+01  2.19576928086856E+00
(PID.TID 0000.0001)  ploadbar=  1.01148513389695E+05
 cg2d: Sum(rhs),rhsMax =  -6.84747359982531E+01  2.18284639453326E+00
(PID.TID 0000.0001)  ploadbar=  1.01149017351229E+05
 cg2d: Sum(rhs),rhsMax =  -6.88746005203594E+01  2.17056431010880E+00
(PID.TID 0000.0001)  ploadbar=  1.01149521312763E+05
 cg2d: Sum(rhs),rhsMax =  -6.92524206830062E+01  2.15917336218008E+00
(PID.TID 0000.0001)  ploadbar=  1.01150025274296E+05
 cg2d: Sum(rhs),rhsMax =  -6.95916108067481E+01  2.14915718328242E+00
(PID.TID 0000.0001)  ploadbar=  1.01150529235830E+05
 cg2d: Sum(rhs),rhsMax =  -6.98740270916030E+01  2.14102723978768E+00
(PID.TID 0000.0001)  ploadbar=  1.01151033197364E+05
 cg2d: Sum(rhs),rhsMax =  -7.01161506432613E+01  2.13415879535208E+00
(PID.TID 0000.0001)  ploadbar=  1.01151484518587E+05
 cg2d: Sum(rhs),rhsMax =  -7.03227223050587E+01  2.12838472535467E+00
(PID.TID 0000.0001)  ploadbar=  1.01151935839811E+05
 cg2d: Sum(rhs),rhsMax =  -7.04931963348502E+01  2.12370239321939E+00
(PID.TID 0000.0001)  ploadbar=  1.01152387161035E+05
 cg2d: Sum(rhs),rhsMax =  -7.06365981274642E+01  2.11982247826727E+00
(PID.TID 0000.0001)  ploadbar=  1.01152838482259E+05
 cg2d: Sum(rhs),rhsMax =  -7.07632394563804E+01  2.11642714743072E+00
(PID.TID 0000.0001)  ploadbar=  1.01153289803483E+05
 cg2d: Sum(rhs),rhsMax =  -7.09116020205471E+01  2.11236030845561E+00
(PID.TID 0000.0001)  ploadbar=  1.01153741124707E+05
 cg2d: Sum(rhs),rhsMax =  -7.10658235339335E+01  2.10813969093364E+00
(PID.TID 0000.0001)  ploadbar=  1.01153199309754E+05
 cg2d: Sum(rhs),rhsMax =  -7.12556145117964E+01  2.10288055894351E+00
(PID.TID 0000.0001)  ploadbar=  1.01152657494800E+05
 cg2d: Sum(rhs),rhsMax =  -7.14544905381198E+01  2.09737173520735E+00
(PID.TID 0000.0001)  ploadbar=  1.01152115679847E+05
 cg2d: Sum(rhs),rhsMax =  -7.16627538314337E+01  2.09160768546134E+00
(PID.TID 0000.0001)  ploadbar=  1.01151573864894E+05
 cg2d: Sum(rhs),rhsMax =  -7.18851687806780E+01  2.08545590239175E+00
(PID.TID 0000.0001)  ploadbar=  1.01151032049941E+05
 cg2d: Sum(rhs),rhsMax =  -7.21184216854129E+01  2.07901747065215E+00
(PID.TID 0000.0001)  ploadbar=  1.01150490234988E+05
 cg2d: Sum(rhs),rhsMax =  -7.22991044756624E+01  2.07410110264829E+00
(PID.TID 0000.0001)  ploadbar=  1.01149999913864E+05
 cg2d: Sum(rhs),rhsMax =  -7.24778260504056E+01  2.06924113054718E+00
(PID.TID 0000.0001)  ploadbar=  1.01149509592741E+05
 cg2d: Sum(rhs),rhsMax =  -7.26405849221329E+01  2.06483259462654E+00
(PID.TID 0000.0001)  ploadbar=  1.01149019271617E+05
 cg2d: Sum(rhs),rhsMax =  -7.27869947070410E+01  2.06088163406870E+00
(PID.TID 0000.0001)  ploadbar=  1.01148528950494E+05
 cg2d: Sum(rhs),rhsMax =  -7.29213898882733E+01  2.05726074150115E+00
(PID.TID 0000.0001)  ploadbar=  1.01148038629371E+05
 cg2d: Sum(rhs),rhsMax =  -7.30413890708239E+01  2.05403116246672E+00
(PID.TID 0000.0001)  ploadbar=  1.01147548308247E+05
 cg2d: Sum(rhs),rhsMax =  -7.31545075741295E+01  2.05105854957192E+00
(PID.TID 0000.0001)  ploadbar=  1.01145919657923E+05
 cg2d: Sum(rhs),rhsMax =  -7.32558604626930E+01  2.04847805250696E+00
(PID.TID 0000.0001)  ploadbar=  1.01144291007599E+05
 cg2d: Sum(rhs),rhsMax =  -7.33462249318689E+01  2.04626422972364E+00
(PID.TID 0000.0001)  ploadbar=  1.01142662357274E+05
 cg2d: Sum(rhs),rhsMax =  -7.34146581794414E+01  2.04471614572450E+00
(PID.TID 0000.0001)  ploadbar=  1.01141033706950E+05
 cg2d: Sum(rhs),rhsMax =  -7.34537213381238E+01  2.04403559905802E+00
(PID.TID 0000.0001)  ploadbar=  1.01139405056626E+05
 cg2d: Sum(rhs),rhsMax =  -7.34543555076934E+01  2.04446946260929E+00
(PID.TID 0000.0001)  ploadbar=  1.01137776406302E+05
 cg2d: Sum(rhs),rhsMax =  -7.33550320184375E+01  2.04769499986901E+00
(PID.TID 0000.0001)  ploadbar=  1.01137418553499E+05
 cg2d: Sum(rhs),rhsMax =  -7.31909577935926E+01  2.05274543780152E+00
(PID.TID 0000.0001)  ploadbar=  1.01137060700696E+05
 cg2d: Sum(rhs),rhsMax =  -7.30184331175550E+01  2.05805185926469E+00
(PID.TID 0000.0001)  ploadbar=  1.01136702847893E+05
 cg2d: Sum(rhs),rhsMax =  -7.29120257750377E+01  2.06150565363386E+00
(PID.TID 0000.0001)  ploadbar=  1.01136344995090E+05
 cg2d: Sum(rhs),rhsMax =  -7.29288778703025E+01  2.06147011893347E+00
(PID.TID 0000.0001)  ploadbar=  1.01135987142287E+05
 cg2d: Sum(rhs),rhsMax =  -7.31222736777669E+01  2.05644508035344E+00
(PID.TID 0000.0001)  ploadbar=  1.01135629289484E+05
 cg2d: Sum(rhs),rhsMax =  -7.35361834336523E+01  2.04529521137178E+00
(PID.TID 0000.0001)  ploadbar=  1.01135994913539E+05
 cg2d: Sum(rhs),rhsMax =  -7.41865782220596E+01  2.02777906295924E+00
(PID.TID 0000.0001)  ploadbar=  1.01136360537594E+05
 cg2d: Sum(rhs),rhsMax =  -7.52095151789041E+01  2.00059859475166E+00
(PID.TID 0000.0001)  ploadbar=  1.01136726161649E+05
 cg2d: Sum(rhs),rhsMax =  -7.66052766591175E+01  1.96452764835046E+00
(PID.TID 0000.0001)  ploadbar=  1.01137091785704E+05
 cg2d: Sum(rhs),rhsMax =  -7.79560246135816E+01  1.93084979170290E+00
(PID.TID 0000.0001)  ploadbar=  1.01137457409758E+05
 cg2d: Sum(rhs),rhsMax =  -7.82537584589028E+01  1.92384738842566E+00
(PID.TID 0000.0001)  ploadbar=  1.01137823033813E+05
 cg2d: Sum(rhs),rhsMax =  -7.79629154885838E+01  1.93133438383130E+00
(PID.TID 0000.0001)  ploadbar=  1.01137450092094E+05
 cg2d: Sum(rhs),rhsMax =  -7.79490502866421E+01  1.93195150595886E+00
(PID.TID 0000.0001)  ploadbar=  1.01137077150376E+05
 cg2d: Sum(rhs),rhsMax =  -7.80379090664967E+01  1.92998628603454E+00
(PID.TID 0000.0001)  ploadbar=  1.01136704208657E+05
 cg2d: Sum(rhs),rhsMax =  -7.80822258830746E+01  1.92908578224199E+00
(PID.TID 0000.0001)  ploadbar=  1.01136331266938E+05
 cg2d: Sum(rhs),rhsMax =  -7.79671575720780E+01  1.93208580294007E+00
(PID.TID 0000.0001)  ploadbar=  1.01135958325220E+05
 cg2d: Sum(rhs),rhsMax =  -7.76725611353716E+01  1.93952270127714E+00
(PID.TID 0000.0001)  ploadbar=  1.01135585383501E+05
 cg2d: Sum(rhs),rhsMax =  -7.73156650748148E+01  1.94863678999367E+00
(PID.TID 0000.0001)  ploadbar=  1.01136728475578E+05
 cg2d: Sum(rhs),rhsMax =  -7.68993030552967E+01  1.95940003976140E+00
(PID.TID 0000.0001)  ploadbar=  1.01137871567656E+05
 cg2d: Sum(rhs),rhsMax =  -7.64146468266472E+01  1.97208885738371E+00
(PID.TID 0000.0001)  ploadbar=  1.01139014659733E+05
 cg2d: Sum(rhs),rhsMax =  -7.58560320650740E+01  1.98691871423477E+00
(PID.TID 0000.0001)  ploadbar=  1.01140157751810E+05
 cg2d: Sum(rhs),rhsMax =  -7.52160684766304E+01  2.00417314363328E+00
(PID.TID 0000.0001)  ploadbar=  1.01141300843887E+05
 cg2d: Sum(rhs),rhsMax =  -7.44926329089698E+01  2.02402277494488E+00
(PID.TID 0000.0001)  ploadbar=  1.01142443935964E+05
 cg2d: Sum(rhs),rhsMax =  -7.37944003449143E+01  2.04356005696383E+00
(PID.TID 0000.0001)  ploadbar=  1.01143023462396E+05
 cg2d: Sum(rhs),rhsMax =  -7.31124080620089E+01  2.06300407428482E+00
(PID.TID 0000.0001)  ploadbar=  1.01143602988828E+05
 cg2d: Sum(rhs),rhsMax =  -7.24753388157553E+01  2.08151302312214E+00
(PID.TID 0000.0001)  ploadbar=  1.01144182515260E+05
 cg2d: Sum(rhs),rhsMax =  -7.19180147152118E+01  2.09801055865297E+00
(PID.TID 0000.0001)  ploadbar=  1.01144762041692E+05
 cg2d: Sum(rhs),rhsMax =  -7.14583234266297E+01  2.11186324108714E+00
(PID.TID 0000.0001)  ploadbar=  1.01145341568124E+05
 cg2d: Sum(rhs),rhsMax =  -7.10992140106183E+01  2.12287142533591E+00
(PID.TID 0000.0001)  ploadbar=  1.01145921094556E+05
 cg2d: Sum(rhs),rhsMax =  -7.08890624673395E+01  2.12951141047018E+00
(PID.TID 0000.0001)  ploadbar=  1.01145889334464E+05
 cg2d: Sum(rhs),rhsMax =  -7.07759074704736E+01  2.13326415552372E+00
(PID.TID 0000.0001)  ploadbar=  1.01145857574372E+05
 cg2d: Sum(rhs),rhsMax =  -7.07408429219354E+01  2.13466752418239E+00
(PID.TID 0000.0001)  ploadbar=  1.01145825814280E+05
 cg2d: Sum(rhs),rhsMax =  -7.07934867842361E+01  2.13342263225319E+00
(PID.TID 0000.0001)  ploadbar=  1.01145794054188E+05
 cg2d: Sum(rhs),rhsMax =  -7.09399196286371E+01  2.12935680513532E+00
(PID.TID 0000.0001)  ploadbar=  1.01145762294097E+05
 cg2d: Sum(rhs),rhsMax =  -7.11805895564905E+01  2.12248990297593E+00
(PID.TID 0000.0001)  ploadbar=  1.01145730534005E+05
 cg2d: Sum(rhs),rhsMax =  -7.14816072146204E+01  2.11385081009208E+00
(PID.TID 0000.0001)  ploadbar=  1.01145561120909E+05
 cg2d: Sum(rhs),rhsMax =  -7.18637272193826E+01  2.10287284001954E+00
(PID.TID 0000.0001)  ploadbar=  1.01145391707813E+05
 cg2d: Sum(rhs),rhsMax =  -7.23857100364890E+01  2.08793244078519E+00
(PID.TID 0000.0001)  ploadbar=  1.01145222294717E+05
 cg2d: Sum(rhs),rhsMax =  -7.29986532517190E+01  2.07058562289469E+00
(PID.TID 0000.0001)  ploadbar=  1.01145052881621E+05
 cg2d: Sum(rhs),rhsMax =  -7.35979137284809E+01  2.05387207905332E+00
(PID.TID 0000.0001)  ploadbar=  1.01144883468525E+05
 cg2d: Sum(rhs),rhsMax =  -7.42177153904051E+01  2.03682680423958E+00
(PID.TID 0000.0001)  ploadbar=  1.01144714055429E+05
 cg2d: Sum(rhs),rhsMax =  -7.48377290583232E+01  2.02009393489482E+00
(PID.TID 0000.0001)  ploadbar=  1.01144665561879E+05
 cg2d: Sum(rhs),rhsMax =  -7.54522763412185E+01  2.00381575522112E+00
(PID.TID 0000.0001)  ploadbar=  1.01144617068329E+05
 cg2d: Sum(rhs),rhsMax =  -7.60405147879351E+01  1.98852082809781E+00
(PID.TID 0000.0001)  ploadbar=  1.01144568574779E+05
 cg2d: Sum(rhs),rhsMax =  -7.66040286423496E+01  1.97412909498670E+00
(PID.TID 0000.0001)  ploadbar=  1.01144520081229E+05
 cg2d: Sum(rhs),rhsMax =  -7.71394804800259E+01  1.96068860799361E+00
(PID.TID 0000.0001)  ploadbar=  1.01144471587679E+05
 cg2d: Sum(rhs),rhsMax =  -7.76422038037740E+01  1.94827891304847E+00
(PID.TID 0000.0001)  ploadbar=  1.01144423094129E+05
 cg2d: Sum(rhs),rhsMax =  -7.80959093607088E+01  1.93723960994765E+00
(PID.TID 0000.0001)  ploadbar=  1.01145121478031E+05
 cg2d: Sum(rhs),rhsMax =  -7.85256715163945E+01  1.92691236986062E+00
(PID.TID 0000.0001)  ploadbar=  1.01145819861932E+05
 cg2d: Sum(rhs),rhsMax =  -7.89383893120394E+01  1.91710854334030E+00
(PID.TID 0000.0001)  ploadbar=  1.01146518245834E+05
 cg2d: Sum(rhs),rhsMax =  -7.93367017799263E+01  1.90774897687211E+00
(PID.TID 0000.0001)  ploadbar=  1.01147216629736E+05
 cg2d: Sum(rhs),rhsMax =  -7.97247827036040E+01  1.89872056019403E+00
(PID.TID 0000.0001)  ploadbar=  1.01147915013638E+05
 cg2d: Sum(rhs),rhsMax =  -8.01045532321275E+01  1.88996689151802E+00
(PID.TID 0000.0001)  ploadbar=  1.01148613397540E+05
 cg2d: Sum(rhs),rhsMax =  -8.04457754077946E+01  1.88219167471219E+00
(PID.TID 0000.0001)  ploadbar=  1.01148922860656E+05
 cg2d: Sum(rhs),rhsMax =  -8.07643506808313E+01  1.87500028002779E+00
(PID.TID 0000.0001)  ploadbar=  1.01149232323773E+05
 cg2d: Sum(rhs),rhsMax =  -8.10638558179786E+01  1.86829658149059E+00
(PID.TID 0000.0001)  ploadbar=  1.01149541786889E+05
 cg2d: Sum(rhs),rhsMax =  -8.13353179277168E+01  1.86227372820537E+00
(PID.TID 0000.0001)  ploadbar=  1.01149851250006E+05
 cg2d: Sum(rhs),rhsMax =  -8.15751545922328E+01  1.85699830301185E+00
(PID.TID 0000.0001)  ploadbar=  1.01150160713123E+05
 cg2d: Sum(rhs),rhsMax =  -8.17823716531769E+01  1.85247878639458E+00
(PID.TID 0000.0001)  ploadbar=  1.01150470176239E+05
 cg2d: Sum(rhs),rhsMax =  -8.19775573398826E+01  1.84823223922329E+00
(PID.TID 0000.0001)  ploadbar=  1.01150490389784E+05
 cg2d: Sum(rhs),rhsMax =  -8.21491309638460E+01  1.84451303615082E+00
(PID.TID 0000.0001)  ploadbar=  1.01150510603329E+05
 cg2d: Sum(rhs),rhsMax =  -8.23084269677177E+01  1.84105933858745E+00
(PID.TID 0000.0001)  ploadbar=  1.01150530816874E+05
 cg2d: Sum(rhs),rhsMax =  -8.24630223174892E+01  1.83769800310359E+00
(PID.TID 0000.0001)  ploadbar=  1.01150551030418E+05
 cg2d: Sum(rhs),rhsMax =  -8.26116557276797E+01  1.83445464253080E+00
(PID.TID 0000.0001)  ploadbar=  1.01150571243963E+05
 cg2d: Sum(rhs),rhsMax =  -8.27548470636920E+01  1.83131569023519E+00
(PID.TID 0000.0001)  ploadbar=  1.01150591457508E+05
 cg2d: Sum(rhs),rhsMax =  -8.28915351263070E+01  1.82838614563681E+00
(PID.TID 0000.0001)  ploadbar=  1.01149268762012E+05
 cg2d: Sum(rhs),rhsMax =  -8.30123718974600E+01  1.82586880463901E+00
(PID.TID 0000.0001)  ploadbar=  1.01147946066516E+05
 cg2d: Sum(rhs),rhsMax =  -8.31424992698442E+01  1.82320563641811E+00
(PID.TID 0000.0001)  ploadbar=  1.01146623371020E+05
 cg2d: Sum(rhs),rhsMax =  -8.32983901274089E+01  1.82003788126865E+00
(PID.TID 0000.0001)  ploadbar=  1.01145300675525E+05
 cg2d: Sum(rhs),rhsMax =  -8.34928672392620E+01  1.81609104027928E+00
(PID.TID 0000.0001)  ploadbar=  1.01143977980029E+05
 cg2d: Sum(rhs),rhsMax =  -8.37352969429045E+01  1.81117009117711E+00
(PID.TID 0000.0001)  ploadbar=  1.01142655284533E+05
 cg2d: Sum(rhs),rhsMax =  -8.40081610296669E+01  1.80559885242026E+00
(PID.TID 0000.0001)  ploadbar=  1.01142442587971E+05
 cg2d: Sum(rhs),rhsMax =  -8.43148882569704E+01  1.79931240768857E+00
(PID.TID 0000.0001)  ploadbar=  1.01142229891410E+05
 cg2d: Sum(rhs),rhsMax =  -8.46448027606913E+01  1.79255326332946E+00
(PID.TID 0000.0001)  ploadbar=  1.01142017194848E+05
 cg2d: Sum(rhs),rhsMax =  -8.49884507860001E+01  1.78553091446861E+00
(PID.TID 0000.0001)  ploadbar=  1.01141804498287E+05
 cg2d: Sum(rhs),rhsMax =  -8.53444813386004E+01  1.77827962626769E+00
(PID.TID 0000.0001)  ploadbar=  1.01141591801726E+05
 cg2d: Sum(rhs),rhsMax =  -8.57143803728381E+01  1.77077304481718E+00
(PID.TID 0000.0001)  ploadbar=  1.01141379105164E+05
 cg2d: Sum(rhs),rhsMax =  -8.61129890207241E+01  1.76274826379530E+00
(PID.TID 0000.0001)  ploadbar=  1.01141591447631E+05
 cg2d: Sum(rhs),rhsMax =  -8.65454564651352E+01  1.75411654465202E+00
(PID.TID 0000.0001)  ploadbar=  1.01141803790098E+05
 cg2d: Sum(rhs),rhsMax =  -8.70117171550004E+01  1.74489950590368E+00
(PID.TID 0000.0001)  ploadbar=  1.01142016132565E+05
 cg2d: Sum(rhs),rhsMax =  -8.75149223163911E+01  1.73505441915509E+00
(PID.TID 0000.0001)  ploadbar=  1.01142228475032E+05
 cg2d: Sum(rhs),rhsMax =  -8.80568825013709E+01  1.72456662307555E+00
(PID.TID 0000.0001)  ploadbar=  1.01142440817499E+05
 cg2d: Sum(rhs),rhsMax =  -8.86401188391611E+01  1.71341229141303E+00
(PID.TID 0000.0001)  ploadbar=  1.01142653159966E+05
 cg2d: Sum(rhs),rhsMax =  -8.93007659610340E+01  1.70091001272405E+00
(PID.TID 0000.0001)  ploadbar=  1.01141987421076E+05
 cg2d: Sum(rhs),rhsMax =  -9.00180595081104E+01  1.68750918657221E+00
(PID.TID 0000.0001)  ploadbar=  1.01141321682186E+05
 cg2d: Sum(rhs),rhsMax =  -9.07761371074889E+01  1.67354515104085E+00
(PID.TID 0000.0001)  ploadbar=  1.01140655943296E+05
 cg2d: Sum(rhs),rhsMax =  -9.15860713587898E+01  1.65884997993634E+00
(PID.TID 0000.0001)  ploadbar=  1.01139990204406E+05
 cg2d: Sum(rhs),rhsMax =  -9.24585872646992E+01  1.64327649338842E+00
(PID.TID 0000.0001)  ploadbar=  1.01139324465515E+05
 cg2d: Sum(rhs),rhsMax =  -9.33981162351296E+01  1.62680264328670E+00
(PID.TID 0000.0001)  ploadbar=  1.01138658726626E+05
 cg2d: Sum(rhs),rhsMax =  -9.45203056741225E+01  1.60760585147409E+00
(PID.TID 0000.0001)  ploadbar=  1.01138459479690E+05
 cg2d: Sum(rhs),rhsMax =  -9.59961986801617E+01  1.58306294727342E+00
(PID.TID 0000.0001)  ploadbar=  1.01138260232754E+05
 cg2d: Sum(rhs),rhsMax =  -9.79084743583264E+01  1.55236892724651E+00
(PID.TID 0000.0001)  ploadbar=  1.01138060985818E+05
 cg2d: Sum(rhs),rhsMax =  -1.00283001057062E+02  1.51588380194440E+00
(PID.TID 0000.0001)  ploadbar=  1.01137861738883E+05
 cg2d: Sum(rhs),rhsMax =  -1.03128525421167E+02  1.47436749556070E+00
(PID.TID 0000.0001)  ploadbar=  1.01137662491947E+05
 cg2d: Sum(rhs),rhsMax =  -1.06413761745450E+02  1.42919210555321E+00
(PID.TID 0000.0001)  ploadbar=  1.01137463245011E+05
 cg2d: Sum(rhs),rhsMax =  -1.08875610365200E+02  1.39719744226017E+00
(PID.TID 0000.0001)  ploadbar=  1.01136119218212E+05
 cg2d: Sum(rhs),rhsMax =  -1.08279602796155E+02  1.40519582534025E+00
(PID.TID 0000.0001)  ploadbar=  1.01134775191413E+05
 cg2d: Sum(rhs),rhsMax =  -1.07735100516807E+02  1.41259039048642E+00
(PID.TID 0000.0001)  ploadbar=  1.01133431164614E+05
 cg2d: Sum(rhs),rhsMax =  -1.07259166159982E+02  1.41913450428785E+00
(PID.TID 0000.0001)  ploadbar=  1.01132087137815E+05
 cg2d: Sum(rhs),rhsMax =  -1.06854681086336E+02  1.42476353346923E+00
(PID.TID 0000.0001)  ploadbar=  1.01130743111016E+05
 cg2d: Sum(rhs),rhsMax =  -1.06501037607825E+02  1.42973191176225E+00
(PID.TID 0000.0001)  ploadbar=  1.01129399084216E+05
 cg2d: Sum(rhs),rhsMax =  -1.06153894794118E+02  1.43463504065818E+00
(PID.TID 0000.0001)  ploadbar=  1.01128819848227E+05
 cg2d: Sum(rhs),rhsMax =  -1.05746819236509E+02  1.44037480162458E+00
(PID.TID 0000.0001)  ploadbar=  1.01128240612238E+05
 cg2d: Sum(rhs),rhsMax =  -1.05258199222922E+02  1.44726740790787E+00
(PID.TID 0000.0001)  ploadbar=  1.01127661376249E+05
 cg2d: Sum(rhs),rhsMax =  -1.04705177372087E+02  1.45510613733895E+00
(PID.TID 0000.0001)  ploadbar=  1.01127082140260E+05
 cg2d: Sum(rhs),rhsMax =  -1.04105530670304E+02  1.46366922693816E+00
(PID.TID 0000.0001)  ploadbar=  1.01126502904271E+05
 cg2d: Sum(rhs),rhsMax =  -1.03494796119470E+02  1.47247358834888E+00
(PID.TID 0000.0001)  ploadbar=  1.01125923668282E+05
 cg2d: Sum(rhs),rhsMax =  -1.02879390353603E+02  1.48143904225332E+00
(PID.TID 0000.0001)  ploadbar=  1.01125500023168E+05
 cg2d: Sum(rhs),rhsMax =  -1.02305944876714E+02  1.48988852194980E+00
(PID.TID 0000.0001)  ploadbar=  1.01125076378054E+05
 cg2d: Sum(rhs),rhsMax =  -1.01766078166942E+02  1.49792481394542E+00
(PID.TID 0000.0001)  ploadbar=  1.01124652732940E+05
 cg2d: Sum(rhs),rhsMax =  -1.01248135968383E+02  1.50570446776110E+00
(PID.TID 0000.0001)  ploadbar=  1.01124229087826E+05
 cg2d: Sum(rhs),rhsMax =  -1.00744943179529E+02  1.51332532768789E+00
(PID.TID 0000.0001)  ploadbar=  1.01123805442711E+05
 cg2d: Sum(rhs),rhsMax =  -1.00261531637285E+02  1.52070328802162E+00
(PID.TID 0000.0001)  ploadbar=  1.01123381797597E+05
 cg2d: Sum(rhs),rhsMax =  -9.97481603900927E+01  1.52865009545794E+00
(PID.TID 0000.0001)  ploadbar=  1.01122370209204E+05
 cg2d: Sum(rhs),rhsMax =  -9.92068967728708E+01  1.53714808141965E+00
(PID.TID 0000.0001)  ploadbar=  1.01121358620811E+05
 cg2d: Sum(rhs),rhsMax =  -9.86102512030680E+01  1.54664327721369E+00
(PID.TID 0000.0001)  ploadbar=  1.01120347032418E+05
 cg2d: Sum(rhs),rhsMax =  -9.79529469712255E+01  1.55725323606878E+00
(PID.TID 0000.0001)  ploadbar=  1.01119335444026E+05
 cg2d: Sum(rhs),rhsMax =  -9.72834222430433E+01  1.56823831441474E+00
(PID.TID 0000.0001)  ploadbar=  1.01118323855633E+05
 cg2d: Sum(rhs),rhsMax =  -9.66296078241728E+01  1.57914809728061E+00
(PID.TID 0000.0001)  ploadbar=  1.01117312267240E+05
 cg2d: Sum(rhs),rhsMax =  -9.60579535863316E+01  1.58885929199592E+00
(PID.TID 0000.0001)  ploadbar=  1.01116867832439E+05
 cg2d: Sum(rhs),rhsMax =  -9.55511554180871E+01  1.59761326124654E+00
(PID.TID 0000.0001)  ploadbar=  1.01116423397639E+05
 cg2d: Sum(rhs),rhsMax =  -9.51188534480861E+01  1.60521055077470E+00
(PID.TID 0000.0001)  ploadbar=  1.01115978962839E+05
 cg2d: Sum(rhs),rhsMax =  -9.47875960835408E+01  1.61116529441523E+00
(PID.TID 0000.0001)  ploadbar=  1.01115534528038E+05
 cg2d: Sum(rhs),rhsMax =  -9.45640258799598E+01  1.61532561730941E+00
(PID.TID 0000.0001)  ploadbar=  1.01115090093238E+05
 cg2d: Sum(rhs),rhsMax =  -9.44476908009158E+01  1.61767067943721E+00
(PID.TID 0000.0001)  ploadbar=  1.01114645658438E+05
 cg2d: Sum(rhs),rhsMax =  -9.44199759632557E+01  1.61850029789169E+00
(PID.TID 0000.0001)  ploadbar=  1.01115252584199E+05
 cg2d: Sum(rhs),rhsMax =  -9.44682583327657E+01  1.61802348187623E+00
(PID.TID 0000.0001)  ploadbar=  1.01115859509961E+05
 cg2d: Sum(rhs),rhsMax =  -9.45658966109076E+01  1.61669682270633E+00
(PID.TID 0000.0001)  ploadbar=  1.01116466435722E+05
 cg2d: Sum(rhs),rhsMax =  -9.46752990421848E+01  1.61516547392453E+00
(PID.TID 0000.0001)  ploadbar=  1.01117073361483E+05
 cg2d: Sum(rhs),rhsMax =  -9.47708369835127E+01  1.61386458611820E+00
(PID.TID 0000.0001)  ploadbar=  1.01117680287244E+05
 cg2d: Sum(rhs),rhsMax =  -9.48421506434357E+01  1.61296596290272E+00
(PID.TID 0000.0001)  ploadbar=  1.01118287213006E+05
 cg2d: Sum(rhs),rhsMax =  -9.48738095746871E+01  1.61271815112930E+00
(PID.TID 0000.0001)  ploadbar=  1.01119102772382E+05
 cg2d: Sum(rhs),rhsMax =  -9.48765471847922E+01  1.61293613445277E+00
(PID.TID 0000.0001)  ploadbar=  1.01119918331757E+05
 cg2d: Sum(rhs),rhsMax =  -9.48806241130913E+01  1.61310391100266E+00
(PID.TID 0000.0001)  ploadbar=  1.01120733891133E+05
 cg2d: Sum(rhs),rhsMax =  -9.49118319349126E+01  1.61278083265257E+00
(PID.TID 0000.0001)  ploadbar=  1.01121549450509E+05
 cg2d: Sum(rhs),rhsMax =  -9.49963340493604E+01  1.61152107446638E+00
(PID.TID 0000.0001)  ploadbar=  1.01122365009885E+05
 cg2d: Sum(rhs),rhsMax =  -9.51476631331339E+01  1.60909897485762E+00
(PID.TID 0000.0001)  ploadbar=  1.01123180569261E+05
 cg2d: Sum(rhs),rhsMax =  -9.53799493564941E+01  1.60535628181126E+00
(PID.TID 0000.0001)  ploadbar=  1.01122285011461E+05
 cg2d: Sum(rhs),rhsMax =  -9.56668445299571E+01  1.60075291424542E+00
(PID.TID 0000.0001)  ploadbar=  1.01121389453661E+05
 cg2d: Sum(rhs),rhsMax =  -9.59876886905665E+01  1.59564665227227E+00
(PID.TID 0000.0001)  ploadbar=  1.01120493895861E+05
 cg2d: Sum(rhs),rhsMax =  -9.62948895606433E+01  1.59083086438398E+00
(PID.TID 0000.0001)  ploadbar=  1.01119598338061E+05
 cg2d: Sum(rhs),rhsMax =  -9.65876942271804E+01  1.58631144510059E+00
(PID.TID 0000.0001)  ploadbar=  1.01118702780261E+05
 cg2d: Sum(rhs),rhsMax =  -9.68857180276619E+01  1.58176053320128E+00
(PID.TID 0000.0001)  ploadbar=  1.01117807222461E+05
 cg2d: Sum(rhs),rhsMax =  -9.71509533594162E+01  1.57776811408918E+00
(PID.TID 0000.0001)  ploadbar=  1.01118474142604E+05
 cg2d: Sum(rhs),rhsMax =  -9.73565151295287E+01  1.57475621491405E+00
(PID.TID 0000.0001)  ploadbar=  1.01119141062747E+05
 cg2d: Sum(rhs),rhsMax =  -9.74992178698912E+01  1.57276315640597E+00
(PID.TID 0000.0001)  ploadbar=  1.01119807982889E+05
 cg2d: Sum(rhs),rhsMax =  -9.75926676162594E+01  1.57155998522775E+00
(PID.TID 0000.0001)  ploadbar=  1.01120474903032E+05
 cg2d: Sum(rhs),rhsMax =  -9.76454220910937E+01  1.57100333871046E+00
(PID.TID 0000.0001)  ploadbar=  1.01121141823175E+05
 cg2d: Sum(rhs),rhsMax =  -9.76665158464095E+01  1.57094293582163E+00
(PID.TID 0000.0001)  ploadbar=  1.01121808743317E+05
 cg2d: Sum(rhs),rhsMax =  -9.76539522648511E+01  1.57143981879047E+00
(PID.TID 0000.0001)  ploadbar=  1.01122512149178E+05
 cg2d: Sum(rhs),rhsMax =  -9.76010672961640E+01  1.57259988998961E+00
(PID.TID 0000.0001)  ploadbar=  1.01123215555039E+05
 cg2d: Sum(rhs),rhsMax =  -9.75072216120388E+01  1.57443388448717E+00
(PID.TID 0000.0001)  ploadbar=  1.01123918960900E+05
 cg2d: Sum(rhs),rhsMax =  -9.73637158402892E+01  1.57708546030708E+00
(PID.TID 0000.0001)  ploadbar=  1.01124622366761E+05
 cg2d: Sum(rhs),rhsMax =  -9.71720899215100E+01  1.58053498883212E+00
(PID.TID 0000.0001)  ploadbar=  1.01125325772622E+05
 cg2d: Sum(rhs),rhsMax =  -9.69520044222795E+01  1.58446750128237E+00
(PID.TID 0000.0001)  ploadbar=  1.01126029178483E+05
 cg2d: Sum(rhs),rhsMax =  -9.67151688423923E+01  1.58868007231919E+00
(PID.TID 0000.0001)  ploadbar=  1.01126524636223E+05
 cg2d: Sum(rhs),rhsMax =  -9.64864291629385E+01  1.59276592617707E+00
(PID.TID 0000.0001)  ploadbar=  1.01127020093964E+05
 cg2d: Sum(rhs),rhsMax =  -9.62675982148022E+01  1.59669161163834E+00
(PID.TID 0000.0001)  ploadbar=  1.01127515551705E+05
 cg2d: Sum(rhs),rhsMax =  -9.60621165246390E+01  1.60039552459697E+00
(PID.TID 0000.0001)  ploadbar=  1.01128011009446E+05
 cg2d: Sum(rhs),rhsMax =  -9.58690648054745E+01  1.60388678168986E+00
(PID.TID 0000.0001)  ploadbar=  1.01128506467186E+05
 cg2d: Sum(rhs),rhsMax =  -9.56813836191536E+01  1.60727985644706E+00
(PID.TID 0000.0001)  ploadbar=  1.01129001924927E+05
 cg2d: Sum(rhs),rhsMax =  -9.55127342367024E+01  1.61040617409593E+00
(PID.TID 0000.0001)  ploadbar=  1.01129573714285E+05
 cg2d: Sum(rhs),rhsMax =  -9.53565222019793E+01  1.61337284381928E+00
(PID.TID 0000.0001)  ploadbar=  1.01130145503643E+05
 cg2d: Sum(rhs),rhsMax =  -9.52281471650879E+01  1.61591224782325E+00
(PID.TID 0000.0001)  ploadbar=  1.01130717293001E+05
 cg2d: Sum(rhs),rhsMax =  -9.51406791955336E+01  1.61779728892259E+00
(PID.TID 0000.0001)  ploadbar=  1.01131289082359E+05
 cg2d: Sum(rhs),rhsMax =  -9.51101629510794E+01  1.61874875632566E+00
(PID.TID 0000.0001)  ploadbar=  1.01131860871717E+05
 cg2d: Sum(rhs),rhsMax =  -9.51481082049267E+01  1.61856668877725E+00
(PID.TID 0000.0001)  ploadbar=  1.01132432661075E+05
 cg2d: Sum(rhs),rhsMax =  -9.52352156650527E+01  1.61754443078393E+00
(PID.TID 0000.0001)  ploadbar=  1.01133333122255E+05
 cg2d: Sum(rhs),rhsMax =  -9.54220195360208E+01  1.61483050356001E+00
(PID.TID 0000.0001)  ploadbar=  1.01134233583435E+05
 cg2d: Sum(rhs),rhsMax =  -9.56620928171426E+01  1.61122507530317E+00
(PID.TID 0000.0001)  ploadbar=  1.01135134044615E+05
 cg2d: Sum(rhs),rhsMax =  -9.58961948512281E+01  1.60773304994971E+00
(PID.TID 0000.0001)  ploadbar=  1.01136034505795E+05
 cg2d: Sum(rhs),rhsMax =  -9.61963679165762E+01  1.60315019528275E+00
(PID.TID 0000.0001)  ploadbar=  1.01136934966975E+05
 cg2d: Sum(rhs),rhsMax =  -9.66302732983359E+01  1.59637511720743E+00
(PID.TID 0000.0001)  ploadbar=  1.01137835428155E+05
 cg2d: Sum(rhs),rhsMax =  -9.71063691422280E+01  1.58898864944541E+00
(PID.TID 0000.0001)  ploadbar=  1.01139364066157E+05
 cg2d: Sum(rhs),rhsMax =  -9.75053321273312E+01  1.58294316719777E+00
(PID.TID 0000.0001)  ploadbar=  1.01140892704160E+05
 cg2d: Sum(rhs),rhsMax =  -9.77683262322831E+01  1.57915515764348E+00
(PID.TID 0000.0001)  ploadbar=  1.01142421342162E+05
 cg2d: Sum(rhs),rhsMax =  -9.79450254151741E+01  1.57678927684713E+00
(PID.TID 0000.0001)  ploadbar=  1.01143949980165E+05
 cg2d: Sum(rhs),rhsMax =  -9.81052588745850E+01  1.57470648204200E+00
(PID.TID 0000.0001)  ploadbar=  1.01145478618167E+05
 cg2d: Sum(rhs),rhsMax =  -9.82422460664000E+01  1.57301236247012E+00
(PID.TID 0000.0001)  ploadbar=  1.01147007256170E+05
 cg2d: Sum(rhs),rhsMax =  -9.85166235055849E+01  1.56909070845830E+00
(PID.TID 0000.0001)  ploadbar=  1.01148400083483E+05
 cg2d: Sum(rhs),rhsMax =  -9.88952321195247E+01  1.56350269578758E+00
(PID.TID 0000.0001)  ploadbar=  1.01149792910795E+05
 cg2d: Sum(rhs),rhsMax =  -9.94006784663777E+01  1.55592916660016E+00
(PID.TID 0000.0001)  ploadbar=  1.01151185738108E+05
 cg2d: Sum(rhs),rhsMax =  -1.00198875167418E+02  1.54386850485406E+00
(PID.TID 0000.0001)  ploadbar=  1.01152578565421E+05
 cg2d: Sum(rhs),rhsMax =  -1.01412645466565E+02  1.52568151446887E+00
(PID.TID 0000.0001)  ploadbar=  1.01153971392734E+05
 cg2d: Sum(rhs),rhsMax =  -1.03049022140587E+02  1.50170187265923E+00
(PID.TID 0000.0001)  ploadbar=  1.01155364220047E+05
 cg2d: Sum(rhs),rhsMax =  -1.04995386483514E+02  1.47411280185107E+00
(PID.TID 0000.0001)  ploadbar=  1.01157482078909E+05
 cg2d: Sum(rhs),rhsMax =  -1.07143968322920E+02  1.44480448959457E+00
(PID.TID 0000.0001)  ploadbar=  1.01159599937771E+05
 cg2d: Sum(rhs),rhsMax =  -1.09308962871882E+02  1.41644341976311E+00
(PID.TID 0000.0001)  ploadbar=  1.01161717796632E+05
 cg2d: Sum(rhs),rhsMax =  -1.11268590466131E+02  1.39175353855732E+00
(PID.TID 0000.0001)  ploadbar=  1.01163835655494E+05
 cg2d: Sum(rhs),rhsMax =  -1.13059482068716E+02  1.36995999440352E+00
(PID.TID 0000.0001)  ploadbar=  1.01165953514356E+05
 cg2d: Sum(rhs),rhsMax =  -1.14844256793523E+02  1.34891412742823E+00
(PID.TID 0000.0001)  ploadbar=  1.01168071373218E+05
 cg2d: Sum(rhs),rhsMax =  -1.16498824053268E+02  1.32999989631806E+00
(PID.TID 0000.0001)  ploadbar=  1.01168555805609E+05
 cg2d: Sum(rhs),rhsMax =  -1.18232319535913E+02  1.31074134622331E+00
(PID.TID 0000.0001)  ploadbar=  1.01169040237999E+05
 cg2d: Sum(rhs),rhsMax =  -1.20084670030384E+02  1.29075997613261E+00
(PID.TID 0000.0001)  ploadbar=  1.01169524670390E+05
 cg2d: Sum(rhs),rhsMax =  -1.22034230750331E+02  1.27036881571898E+00
(PID.TID 0000.0001)  ploadbar=  1.01170009102780E+05
 cg2d: Sum(rhs),rhsMax =  -1.24015347302102E+02  1.25029252673793E+00
(PID.TID 0000.0001)  ploadbar=  1.01170493535171E+05
 cg2d: Sum(rhs),rhsMax =  -1.25908933646677E+02  1.23169093068028E+00
(PID.TID 0000.0001)  ploadbar=  1.01170977967561E+05
 cg2d: Sum(rhs),rhsMax =  -1.27710894161123E+02  1.21451345884153E+00
(PID.TID 0000.0001)  ploadbar=  1.01170232264069E+05
 cg2d: Sum(rhs),rhsMax =  -1.29109738029119E+02  1.20155188427694E+00
(PID.TID 0000.0001)  ploadbar=  1.01169486560577E+05
 cg2d: Sum(rhs),rhsMax =  -1.30201241737491E+02  1.19166742340937E+00
(PID.TID 0000.0001)  ploadbar=  1.01168740857086E+05
 cg2d: Sum(rhs),rhsMax =  -1.31441651474783E+02  1.18059871244718E+00
(PID.TID 0000.0001)  ploadbar=  1.01167995153594E+05
 cg2d: Sum(rhs),rhsMax =  -1.32793939261884E+02  1.16873919229805E+00
(PID.TID 0000.0001)  ploadbar=  1.01167249450102E+05
 cg2d: Sum(rhs),rhsMax =  -1.34157205393365E+02  1.15700980751385E+00
(PID.TID 0000.0001)  ploadbar=  1.01166503746610E+05
 cg2d: Sum(rhs),rhsMax =  -1.35454968063943E+02  1.14604857740961E+00
(PID.TID 0000.0001)  ploadbar=  1.01165742249217E+05
 cg2d: Sum(rhs),rhsMax =  -1.32736518282810E+02  1.16962139281840E+00
(PID.TID 0000.0001)  ploadbar=  1.01164980751824E+05
 cg2d: Sum(rhs),rhsMax =  -1.27646718719052E+02  1.21633705638158E+00
(PID.TID 0000.0001)  ploadbar=  1.01164219254431E+05
 cg2d: Sum(rhs),rhsMax =  -1.23359566797677E+02  1.25865987059522E+00
(PID.TID 0000.0001)  ploadbar=  1.01163457757038E+05
 cg2d: Sum(rhs),rhsMax =  -1.19803113651260E+02  1.29604566774421E+00
(PID.TID 0000.0001)  ploadbar=  1.01162696259645E+05
 cg2d: Sum(rhs),rhsMax =  -1.16831365215653E+02  1.32900071971436E+00
(PID.TID 0000.0001)  ploadbar=  1.01161934762252E+05
 cg2d: Sum(rhs),rhsMax =  -1.14271756487293E+02  1.35879156509814E+00
(PID.TID 0000.0001)  ploadbar=  1.01162567495822E+05
 cg2d: Sum(rhs),rhsMax =  -1.12005175949115E+02  1.38634364985986E+00
(PID.TID 0000.0001)  ploadbar=  1.01163200229392E+05
 cg2d: Sum(rhs),rhsMax =  -1.09950247802840E+02  1.41233920314394E+00
(PID.TID 0000.0001)  ploadbar=  1.01163832962962E+05
 cg2d: Sum(rhs),rhsMax =  -1.08071733616024E+02  1.43700223334430E+00
(PID.TID 0000.0001)  ploadbar=  1.01164465696531E+05
 cg2d: Sum(rhs),rhsMax =  -1.06384837910565E+02  1.45992606002939E+00
(PID.TID 0000.0001)  ploadbar=  1.01165098430101E+05
 cg2d: Sum(rhs),rhsMax =  -1.04945341062654E+02  1.48010958612495E+00
(PID.TID 0000.0001)  ploadbar=  1.01165731163671E+05
 cg2d: Sum(rhs),rhsMax =  -1.03863819099768E+02  1.49568062470990E+00
(PID.TID 0000.0001)  ploadbar=  1.01165676707698E+05
 cg2d: Sum(rhs),rhsMax =  -1.03173334393708E+02  1.50584649642005E+00
(PID.TID 0000.0001)  ploadbar=  1.01165622251724E+05
 cg2d: Sum(rhs),rhsMax =  -1.02802420283927E+02  1.51143040097400E+00
(PID.TID 0000.0001)  ploadbar=  1.01165567795751E+05
 cg2d: Sum(rhs),rhsMax =  -1.02587658446721E+02  1.51473492350963E+00
(PID.TID 0000.0001)  ploadbar=  1.01165513339778E+05
 cg2d: Sum(rhs),rhsMax =  -1.02390140425113E+02  1.51778278691526E+00
(PID.TID 0000.0001)  ploadbar=  1.01165458883805E+05
 cg2d: Sum(rhs),rhsMax =  -1.02157580005744E+02  1.52134424469169E+00
(PID.TID 0000.0001)  ploadbar=  1.01165404427832E+05
 cg2d: Sum(rhs),rhsMax =  -1.01835439109423E+02  1.52624028445107E+00
(PID.TID 0000.0001)  ploadbar=  1.01165800804172E+05
 cg2d: Sum(rhs),rhsMax =  -1.01473831057539E+02  1.53173635704995E+00
(PID.TID 0000.0001)  ploadbar=  1.01166197180513E+05
 cg2d: Sum(rhs),rhsMax =  -1.01152176134466E+02  1.53663453031487E+00
(PID.TID 0000.0001)  ploadbar=  1.01166593556854E+05
 cg2d: Sum(rhs),rhsMax =  -1.00931301248623E+02  1.53999146921759E+00
(PID.TID 0000.0001)  ploadbar=  1.01166989933194E+05
 cg2d: Sum(rhs),rhsMax =  -1.00840122149894E+02  1.54134045587763E+00
(PID.TID 0000.0001)  ploadbar=  1.01167386309535E+05
 cg2d: Sum(rhs),rhsMax =  -1.00892645103232E+02  1.54045434114847E+00
(PID.TID 0000.0001)  ploadbar=  1.01167782685876E+05
 cg2d: Sum(rhs),rhsMax =  -1.01062100703848E+02  1.53775385656031E+00
(PID.TID 0000.0001)  ploadbar=  1.01168027412818E+05
 cg2d: Sum(rhs),rhsMax =  -1.01331013468643E+02  1.53351925469525E+00
(PID.TID 0000.0001)  ploadbar=  1.01168272139760E+05
 cg2d: Sum(rhs),rhsMax =  -1.01621526901529E+02  1.52894386219733E+00
(PID.TID 0000.0001)  ploadbar=  1.01168516866702E+05
 cg2d: Sum(rhs),rhsMax =  -1.00547395605656E+02  1.54504319561332E+00
(PID.TID 0000.0001)  ploadbar=  1.01168761593644E+05
 cg2d: Sum(rhs),rhsMax =  -9.93217546951536E+01  1.56382896047840E+00
(PID.TID 0000.0001)  ploadbar=  1.01169006320586E+05
 cg2d: Sum(rhs),rhsMax =  -9.81727075582087E+01  1.58180362716431E+00
(PID.TID 0000.0001)  ploadbar=  1.01169251047528E+05
 cg2d: Sum(rhs),rhsMax =  -9.69548704171036E+01  1.60138386256598E+00
(PID.TID 0000.0001)  ploadbar=  1.01168905842618E+05
 cg2d: Sum(rhs),rhsMax =  -9.55856095592944E+01  1.62407301293041E+00
(PID.TID 0000.0001)  ploadbar=  1.01168560637708E+05
 cg2d: Sum(rhs),rhsMax =  -9.40492740733810E+01  1.65038819461789E+00
(PID.TID 0000.0001)  ploadbar=  1.01168215432798E+05
 cg2d: Sum(rhs),rhsMax =  -9.24029394131694E+01  1.67961214000332E+00
(PID.TID 0000.0001)  ploadbar=  1.01167870227888E+05
 cg2d: Sum(rhs),rhsMax =  -9.06995971334700E+01  1.71100319551238E+00
(PID.TID 0000.0001)  ploadbar=  1.01167525022978E+05
 cg2d: Sum(rhs),rhsMax =  -8.89932020814313E+01  1.74368249300195E+00
(PID.TID 0000.0001)  ploadbar=  1.01167179818068E+05
 cg2d: Sum(rhs),rhsMax =  -8.74042514710857E+01  1.77526534406508E+00
(PID.TID 0000.0001)  ploadbar=  1.01168518806873E+05
 cg2d: Sum(rhs),rhsMax =  -8.59950026443593E+01  1.80425192559287E+00
(PID.TID 0000.0001)  ploadbar=  1.01169857795678E+05
 cg2d: Sum(rhs),rhsMax =  -8.47709841494668E+01  1.83020252357710E+00
(PID.TID 0000.0001)  ploadbar=  1.01171196784484E+05
 cg2d: Sum(rhs),rhsMax =  -8.36882220462562E+01  1.85377991617673E+00
(PID.TID 0000.0001)  ploadbar=  1.01172535773289E+05
 cg2d: Sum(rhs),rhsMax =  -8.26841157506913E+01  1.87618443710222E+00
(PID.TID 0000.0001)  ploadbar=  1.01173874762094E+05
 cg2d: Sum(rhs),rhsMax =  -8.17177928641918E+01  1.89825125080290E+00
(PID.TID 0000.0001)  ploadbar=  1.01175213750899E+05
 cg2d: Sum(rhs),rhsMax =  -8.08141189514132E+01  1.91938635129962E+00
(PID.TID 0000.0001)  ploadbar=  1.01176143335039E+05
 cg2d: Sum(rhs),rhsMax =  -8.00118565260788E+01  1.93856360626817E+00
(PID.TID 0000.0001)  ploadbar=  1.01177072919179E+05
 cg2d: Sum(rhs),rhsMax =  -7.93571992757003E+01  1.95450438647804E+00
(PID.TID 0000.0001)  ploadbar=  1.01178002503319E+05
 cg2d: Sum(rhs),rhsMax =  -7.88515028151369E+01  1.96699723558157E+00
(PID.TID 0000.0001)  ploadbar=  1.01178932087458E+05
 cg2d: Sum(rhs),rhsMax =  -7.84808283142474E+01  1.97624891934867E+00
(PID.TID 0000.0001)  ploadbar=  1.01179861671598E+05
 cg2d: Sum(rhs),rhsMax =  -7.82488907183104E+01  1.98206271133483E+00
(PID.TID 0000.0001)  ploadbar=  1.01180791255738E+05
 cg2d: Sum(rhs),rhsMax =  -7.81737860772839E+01  1.98390350992054E+00
(PID.TID 0000.0001)  ploadbar=  1.01181729305013E+05
 cg2d: Sum(rhs),rhsMax =  -7.82706284793787E+01  1.98136219107995E+00
(PID.TID 0000.0001)  ploadbar=  1.01182667354287E+05
 cg2d: Sum(rhs),rhsMax =  -7.84960474546749E+01  1.97555939451152E+00
(PID.TID 0000.0001)  ploadbar=  1.01183605403562E+05
 cg2d: Sum(rhs),rhsMax =  -7.86132105044902E+01  1.97247145152836E+00
(PID.TID 0000.0001)  ploadbar=  1.01184543452837E+05
 cg2d: Sum(rhs),rhsMax =  -7.87556492830812E+01  1.96872378204198E+00
(PID.TID 0000.0001)  ploadbar=  1.01185481502111E+05
 cg2d: Sum(rhs),rhsMax =  -7.89931294035367E+01  1.96258423299865E+00
(PID.TID 0000.0001)  ploadbar=  1.01186419551386E+05
 cg2d: Sum(rhs),rhsMax =  -7.92413601503231E+01  1.95627216276030E+00
(PID.TID 0000.0001)  ploadbar=  1.01186481377537E+05
 cg2d: Sum(rhs),rhsMax =  -7.94629971630447E+01  1.95070559860603E+00
(PID.TID 0000.0001)  ploadbar=  1.01186543203688E+05
 cg2d: Sum(rhs),rhsMax =  -7.96517274432188E+01  1.94602147149668E+00
(PID.TID 0000.0001)  ploadbar=  1.01186605029839E+05
 cg2d: Sum(rhs),rhsMax =  -7.98214094142702E+01  1.94186537507674E+00
(PID.TID 0000.0001)  ploadbar=  1.01186666855990E+05
 cg2d: Sum(rhs),rhsMax =  -7.99889316484591E+01  1.93781470469256E+00
(PID.TID 0000.0001)  ploadbar=  1.01186728682141E+05
 cg2d: Sum(rhs),rhsMax =  -8.01700981988991E+01  1.93348131998343E+00
(PID.TID 0000.0001)  ploadbar=  1.01186790508292E+05
 cg2d: Sum(rhs),rhsMax =  -8.03868974279618E+01  1.92828150400429E+00
(PID.TID 0000.0001)  ploadbar=  1.01187572484857E+05
 cg2d: Sum(rhs),rhsMax =  -8.06495585170396E+01  1.92198501579296E+00
(PID.TID 0000.0001)  ploadbar=  1.01188354461421E+05
 cg2d: Sum(rhs),rhsMax =  -8.09555653069760E+01  1.91466731202273E+00
(PID.TID 0000.0001)  ploadbar=  1.01189136437985E+05
 cg2d: Sum(rhs),rhsMax =  -8.12916449990179E+01  1.90665898253688E+00
(PID.TID 0000.0001)  ploadbar=  1.01189918414549E+05
 cg2d: Sum(rhs),rhsMax =  -8.16331846017487E+01  1.89854467785322E+00
(PID.TID 0000.0001)  ploadbar=  1.01190700391114E+05
 cg2d: Sum(rhs),rhsMax =  -8.19812660630922E+01  1.89029702368126E+00
(PID.TID 0000.0001)  ploadbar=  1.01191482367678E+05
 cg2d: Sum(rhs),rhsMax =  -8.23426434282141E+01  1.88181939199012E+00
(PID.TID 0000.0001)  ploadbar=  1.01191512919352E+05
 cg2d: Sum(rhs),rhsMax =  -8.27211407726614E+01  1.87303081206123E+00
(PID.TID 0000.0001)  ploadbar=  1.01191543471026E+05
 cg2d: Sum(rhs),rhsMax =  -8.31229294984942E+01  1.86379975937694E+00
(PID.TID 0000.0001)  ploadbar=  1.01191574022700E+05
 cg2d: Sum(rhs),rhsMax =  -8.35539178409615E+01  1.85400570076782E+00
(PID.TID 0000.0001)  ploadbar=  1.01191604574374E+05
 cg2d: Sum(rhs),rhsMax =  -8.40168435336569E+01  1.84360267126930E+00
(PID.TID 0000.0001)  ploadbar=  1.01191635126048E+05
 cg2d: Sum(rhs),rhsMax =  -8.45118080098440E+01  1.83260587587803E+00
(PID.TID 0000.0001)  ploadbar=  1.01191665677721E+05
 cg2d: Sum(rhs),rhsMax =  -8.50652943056128E+01  1.82047887268107E+00
(PID.TID 0000.0001)  ploadbar=  1.01192301557463E+05
 cg2d: Sum(rhs),rhsMax =  -8.56479299765345E+01  1.80788716893696E+00
(PID.TID 0000.0001)  ploadbar=  1.01192937437204E+05
 cg2d: Sum(rhs),rhsMax =  -8.62487759181520E+01  1.79507761474037E+00
(PID.TID 0000.0001)  ploadbar=  1.01193573316945E+05
 cg2d: Sum(rhs),rhsMax =  -8.68556487692868E+01  1.78231006748148E+00
(PID.TID 0000.0001)  ploadbar=  1.01194209196685E+05
 cg2d: Sum(rhs),rhsMax =  -8.74521724298674E+01  1.76991628180321E+00
(PID.TID 0000.0001)  ploadbar=  1.01194845076426E+05
 cg2d: Sum(rhs),rhsMax =  -8.80256975788549E+01  1.75813366689853E+00
(PID.TID 0000.0001)  ploadbar=  1.01195480956168E+05
 cg2d: Sum(rhs),rhsMax =  -8.85740752465382E+01  1.74704728181497E+00
(PID.TID 0000.0001)  ploadbar=  1.01196952637147E+05
 cg2d: Sum(rhs),rhsMax =  -8.90651513138159E+01  1.73725990586590E+00
(PID.TID 0000.0001)  ploadbar=  1.01198424318126E+05
 cg2d: Sum(rhs),rhsMax =  -8.95024138191063E+01  1.72866014756133E+00
(PID.TID 0000.0001)  ploadbar=  1.01199895999105E+05
 cg2d: Sum(rhs),rhsMax =  -8.98931092647018E+01  1.72107270383555E+00
(PID.TID 0000.0001)  ploadbar=  1.01201367680084E+05
 cg2d: Sum(rhs),rhsMax =  -8.93907331038764E+01  1.73070541653772E+00
(PID.TID 0000.0001)  ploadbar=  1.01202839361063E+05
 cg2d: Sum(rhs),rhsMax =  -8.87365036383210E+01  1.74345608507909E+00
(PID.TID 0000.0001)  ploadbar=  1.01204311042042E+05
 cg2d: Sum(rhs),rhsMax =  -8.83747301395903E+01  1.75057741180397E+00
(PID.TID 0000.0001)  ploadbar=  1.01204238641180E+05
 cg2d: Sum(rhs),rhsMax =  -8.82457421229640E+01  1.75311264799817E+00
(PID.TID 0000.0001)  ploadbar=  1.01204166240319E+05
 cg2d: Sum(rhs),rhsMax =  -8.82617031734823E+01  1.75276094997672E+00
(PID.TID 0000.0001)  ploadbar=  1.01204093839457E+05
 cg2d: Sum(rhs),rhsMax =  -8.83473591807459E+01  1.75101272203429E+00
(PID.TID 0000.0001)  ploadbar=  1.01204021438595E+05
 cg2d: Sum(rhs),rhsMax =  -8.84485606674010E+01  1.74894253198044E+00
(PID.TID 0000.0001)  ploadbar=  1.01203949037734E+05
 cg2d: Sum(rhs),rhsMax =  -8.85377282158316E+01  1.74709203181854E+00
(PID.TID 0000.0001)  ploadbar=  1.01203876636872E+05
 cg2d: Sum(rhs),rhsMax =  -8.85913159912738E+01  1.74595480319944E+00
(PID.TID 0000.0001)  ploadbar=  1.01204406680634E+05
 cg2d: Sum(rhs),rhsMax =  -8.86362413246287E+01  1.74499646527304E+00
(PID.TID 0000.0001)  ploadbar=  1.01204936724397E+05
 cg2d: Sum(rhs),rhsMax =  -8.87184491944969E+01  1.74331069111632E+00
(PID.TID 0000.0001)  ploadbar=  1.01205466768159E+05
 cg2d: Sum(rhs),rhsMax =  -8.88717817342573E+01  1.74023752414853E+00
(PID.TID 0000.0001)  ploadbar=  1.01205996811922E+05
 cg2d: Sum(rhs),rhsMax =  -8.91196229932666E+01  1.73533159711742E+00
(PID.TID 0000.0001)  ploadbar=  1.01206526855685E+05
 cg2d: Sum(rhs),rhsMax =  -8.94641350776113E+01  1.72857645225165E+00
(PID.TID 0000.0001)  ploadbar=  1.01207056899447E+05
 cg2d: Sum(rhs),rhsMax =  -8.98899870773626E+01  1.72027916148817E+00
(PID.TID 0000.0001)  ploadbar=  1.01206941238241E+05
 cg2d: Sum(rhs),rhsMax =  -9.03783726837562E+01  1.71083781217059E+00
(PID.TID 0000.0001)  ploadbar=  1.01206825577034E+05
 cg2d: Sum(rhs),rhsMax =  -9.06336782896307E+01  1.70583438223534E+00
(PID.TID 0000.0001)  ploadbar=  1.01206709915828E+05
 cg2d: Sum(rhs),rhsMax =  -9.11137434668036E+01  1.69662448730191E+00
(PID.TID 0000.0001)  ploadbar=  1.01206594254621E+05
 cg2d: Sum(rhs),rhsMax =  -9.18943543936696E+01  1.68195316464934E+00
(PID.TID 0000.0001)  ploadbar=  1.01206478593415E+05
 cg2d: Sum(rhs),rhsMax =  -9.28710930358529E+01  1.66396673186193E+00
(PID.TID 0000.0001)  ploadbar=  1.01206362932209E+05
 cg2d: Sum(rhs),rhsMax =  -9.37930862641088E+01  1.64737937330216E+00
(PID.TID 0000.0001)  ploadbar=  1.01206233291942E+05
 cg2d: Sum(rhs),rhsMax =  -9.44252159981398E+01  1.63618264323184E+00
(PID.TID 0000.0001)  ploadbar=  1.01206103651676E+05
 cg2d: Sum(rhs),rhsMax =  -9.49414252922572E+01  1.62717400504202E+00
(PID.TID 0000.0001)  ploadbar=  1.01205974011409E+05
 cg2d: Sum(rhs),rhsMax =  -9.53358278023532E+01  1.62038372608898E+00
(PID.TID 0000.0001)  ploadbar=  1.01205844371143E+05
 cg2d: Sum(rhs),rhsMax =  -9.56174125651836E+01  1.61560132010861E+00
(PID.TID 0000.0001)  ploadbar=  1.01205714730877E+05
 cg2d: Sum(rhs),rhsMax =  -9.58010382345504E+01  1.61253784998706E+00
(PID.TID 0000.0001)  ploadbar=  1.01205585090610E+05
 cg2d: Sum(rhs),rhsMax =  -9.58775793253576E+01  1.61126536585748E+00
(PID.TID 0000.0001)  ploadbar=  1.01205013698394E+05
 cg2d: Sum(rhs),rhsMax =  -9.58620265079552E+01  1.61152149779481E+00
(PID.TID 0000.0001)  ploadbar=  1.01204442306178E+05
 cg2d: Sum(rhs),rhsMax =  -9.57826767849511E+01  1.61282858016662E+00
(PID.TID 0000.0001)  ploadbar=  1.01203870913961E+05
 cg2d: Sum(rhs),rhsMax =  -9.56759211832522E+01  1.61457716237499E+00
(PID.TID 0000.0001)  ploadbar=  1.01203299521745E+05
 cg2d: Sum(rhs),rhsMax =  -9.55772665975945E+01  1.61616715784457E+00
(PID.TID 0000.0001)  ploadbar=  1.01202728129529E+05
 cg2d: Sum(rhs),rhsMax =  -9.55264566125677E+01  1.61691990194764E+00
(PID.TID 0000.0001)  ploadbar=  1.01202156737312E+05
 cg2d: Sum(rhs),rhsMax =  -9.55370201672292E+01  1.61663712250139E+00
(PID.TID 0000.0001)  ploadbar=  1.01200652132872E+05
 cg2d: Sum(rhs),rhsMax =  -9.56067593680491E+01  1.61535338024614E+00
(PID.TID 0000.0001)  ploadbar=  1.01199147528431E+05
 cg2d: Sum(rhs),rhsMax =  -9.57385028949499E+01  1.61302233680026E+00
(PID.TID 0000.0001)  ploadbar=  1.01197642923991E+05
 cg2d: Sum(rhs),rhsMax =  -9.59339545420460E+01  1.60961989893808E+00
(PID.TID 0000.0001)  ploadbar=  1.01196138319550E+05
 cg2d: Sum(rhs),rhsMax =  -9.61942048281627E+01  1.60513890784751E+00
(PID.TID 0000.0001)  ploadbar=  1.01194633715109E+05
 cg2d: Sum(rhs),rhsMax =  -9.65112831297404E+01  1.59972321357447E+00
(PID.TID 0000.0001)  ploadbar=  1.01193129110669E+05
 cg2d: Sum(rhs),rhsMax =  -9.68633812992750E+01  1.59377257966058E+00
(PID.TID 0000.0001)  ploadbar=  1.01191482327677E+05
 cg2d: Sum(rhs),rhsMax =  -9.72241288619729E+01  1.58772714359108E+00
(PID.TID 0000.0001)  ploadbar=  1.01189835544685E+05
 cg2d: Sum(rhs),rhsMax =  -9.75854214397258E+01  1.58172195920138E+00
(PID.TID 0000.0001)  ploadbar=  1.01188188761693E+05
 cg2d: Sum(rhs),rhsMax =  -9.79587509231977E+01  1.57557218920416E+00
(PID.TID 0000.0001)  ploadbar=  1.01186541978701E+05
 cg2d: Sum(rhs),rhsMax =  -9.82313468058770E+01  1.57108282264925E+00
(PID.TID 0000.0001)  ploadbar=  1.01184895195709E+05
 cg2d: Sum(rhs),rhsMax =  -9.83858840126741E+01  1.56850103242233E+00
(PID.TID 0000.0001)  ploadbar=  1.01183248412718E+05
 cg2d: Sum(rhs),rhsMax =  -9.84629559335840E+01  1.56720995427965E+00
(PID.TID 0000.0001)  ploadbar=  1.01182072498622E+05
 cg2d: Sum(rhs),rhsMax =  -9.77637522455051E+01  1.57840319902112E+00
(PID.TID 0000.0001)  ploadbar=  1.01180896584526E+05
 cg2d: Sum(rhs),rhsMax =  -9.59954752217010E+01  1.60751113483388E+00
(PID.TID 0000.0001)  ploadbar=  1.01179720670430E+05
 cg2d: Sum(rhs),rhsMax =  -9.42619243332562E+01  1.63715439711707E+00
(PID.TID 0000.0001)  ploadbar=  1.01178544756335E+05
 cg2d: Sum(rhs),rhsMax =  -9.26396350630529E+01  1.66594843570175E+00
(PID.TID 0000.0001)  ploadbar=  1.01177368842239E+05
 cg2d: Sum(rhs),rhsMax =  -9.11840748336797E+01  1.69270822939864E+00
(PID.TID 0000.0001)  ploadbar=  1.01176192928143E+05
 cg2d: Sum(rhs),rhsMax =  -8.99279995637357E+01  1.71653118025361E+00
(PID.TID 0000.0001)  ploadbar=  1.01175351630068E+05
 cg2d: Sum(rhs),rhsMax =  -8.88847048118513E+01  1.73687056045945E+00
(PID.TID 0000.0001)  ploadbar=  1.01174510331994E+05
 cg2d: Sum(rhs),rhsMax =  -8.79927757651069E+01  1.75467698981367E+00
(PID.TID 0000.0001)  ploadbar=  1.01173669033920E+05
 cg2d: Sum(rhs),rhsMax =  -8.71877771714600E+01  1.77108769919293E+00
(PID.TID 0000.0001)  ploadbar=  1.01172827735845E+05
 cg2d: Sum(rhs),rhsMax =  -8.64220252682780E+01  1.78699930628757E+00
(PID.TID 0000.0001)  ploadbar=  1.01171986437771E+05
 cg2d: Sum(rhs),rhsMax =  -8.56484721823342E+01  1.80336485033405E+00
(PID.TID 0000.0001)  ploadbar=  1.01171145139696E+05
 cg2d: Sum(rhs),rhsMax =  -8.48737438821117E+01  1.82004522372179E+00
(PID.TID 0000.0001)  ploadbar=  1.01169549095544E+05
 cg2d: Sum(rhs),rhsMax =  -8.41264485138006E+01  1.83642354419440E+00
(PID.TID 0000.0001)  ploadbar=  1.01167953051392E+05
 cg2d: Sum(rhs),rhsMax =  -8.34116748334101E+01  1.85236067858213E+00
(PID.TID 0000.0001)  ploadbar=  1.01166357007240E+05
 cg2d: Sum(rhs),rhsMax =  -8.27411797014482E+01  1.86755752455497E+00
(PID.TID 0000.0001)  ploadbar=  1.01164760963088E+05
 cg2d: Sum(rhs),rhsMax =  -8.21272212570073E+01  1.88168747963149E+00
(PID.TID 0000.0001)  ploadbar=  1.01163164918936E+05
 cg2d: Sum(rhs),rhsMax =  -8.15835844896809E+01  1.89437355361837E+00
(PID.TID 0000.0001)  ploadbar=  1.01161568874784E+05
 cg2d: Sum(rhs),rhsMax =  -8.11169719760905E+01  1.90540669233966E+00
(PID.TID 0000.0001)  ploadbar=  1.01161575649683E+05
 cg2d: Sum(rhs),rhsMax =  -8.07236986401183E+01  1.91481369808014E+00
(PID.TID 0000.0001)  ploadbar=  1.01161582424583E+05
 cg2d: Sum(rhs),rhsMax =  -8.03844468878061E+01  1.92300494512689E+00
(PID.TID 0000.0001)  ploadbar=  1.01161589199483E+05
 cg2d: Sum(rhs),rhsMax =  -8.00814316590820E+01  1.93037648981946E+00
(PID.TID 0000.0001)  ploadbar=  1.01161595974383E+05
 cg2d: Sum(rhs),rhsMax =  -7.97948887915954E+01  1.93738636757340E+00
(PID.TID 0000.0001)  ploadbar=  1.01161602749283E+05
 cg2d: Sum(rhs),rhsMax =  -7.95110372300569E+01  1.94435861393952E+00
(PID.TID 0000.0001)  ploadbar=  1.01161609524183E+05
 cg2d: Sum(rhs),rhsMax =  -7.91519871446858E+01  1.95327590886805E+00
(PID.TID 0000.0001)  ploadbar=  1.01163097249859E+05
 cg2d: Sum(rhs),rhsMax =  -7.87377002179520E+01  1.96369156093092E+00
(PID.TID 0000.0001)  ploadbar=  1.01164584975535E+05
 cg2d: Sum(rhs),rhsMax =  -7.82755509887848E+01  1.97546469102338E+00
(PID.TID 0000.0001)  ploadbar=  1.01166072701211E+05
 cg2d: Sum(rhs),rhsMax =  -7.77842931603868E+01  1.98815647731222E+00
(PID.TID 0000.0001)  ploadbar=  1.01167560426887E+05
 cg2d: Sum(rhs),rhsMax =  -7.72988384857859E+01  2.00089169593403E+00
(PID.TID 0000.0001)  ploadbar=  1.01169048152563E+05
 cg2d: Sum(rhs),rhsMax =  -7.68431596568925E+01  2.01303648400166E+00
(PID.TID 0000.0001)  ploadbar=  1.01170535878240E+05
 cg2d: Sum(rhs),rhsMax =  -7.64368374475416E+01  2.02400220455872E+00
(PID.TID 0000.0001)  ploadbar=  1.01169720993552E+05
 cg2d: Sum(rhs),rhsMax =  -7.60373471256418E+01  2.03488560265475E+00
(PID.TID 0000.0001)  ploadbar=  1.01168906108865E+05
 cg2d: Sum(rhs),rhsMax =  -7.56464962897649E+01  2.04562940099649E+00
(PID.TID 0000.0001)  ploadbar=  1.01168091224178E+05
 cg2d: Sum(rhs),rhsMax =  -7.52617718093747E+01  2.05629424322594E+00
(PID.TID 0000.0001)  ploadbar=  1.01167276339491E+05
 cg2d: Sum(rhs),rhsMax =  -7.48766984023754E+01  2.06705368523134E+00
(PID.TID 0000.0001)  ploadbar=  1.01166461454803E+05
 cg2d: Sum(rhs),rhsMax =  -7.44786146440247E+01  2.07826032256157E+00
(PID.TID 0000.0001)  ploadbar=  1.01165646570116E+05
 cg2d: Sum(rhs),rhsMax =  -7.40702155853364E+01  2.08986599112163E+00
(PID.TID 0000.0001)  ploadbar=  1.01164563160885E+05
 cg2d: Sum(rhs),rhsMax =  -7.36338170913777E+01  2.10238337419243E+00
(PID.TID 0000.0001)  ploadbar=  1.01163479751654E+05
 cg2d: Sum(rhs),rhsMax =  -7.31557577207193E+01  2.11623430053728E+00
(PID.TID 0000.0001)  ploadbar=  1.01162396342422E+05
 cg2d: Sum(rhs),rhsMax =  -7.26433540242193E+01  2.13124856805690E+00
(PID.TID 0000.0001)  ploadbar=  1.01161312933191E+05
 cg2d: Sum(rhs),rhsMax =  -7.21183752335761E+01  2.14681625478090E+00
(PID.TID 0000.0001)  ploadbar=  1.01160229523960E+05
 cg2d: Sum(rhs),rhsMax =  -7.16083403965185E+01  2.16212258431995E+00
(PID.TID 0000.0001)  ploadbar=  1.01159146114729E+05
 cg2d: Sum(rhs),rhsMax =  -7.10932619693845E+01  2.17781237618741E+00
(PID.TID 0000.0001)  ploadbar=  1.01159041163316E+05
 cg2d: Sum(rhs),rhsMax =  -7.06046852614068E+01  2.19291423969241E+00
(PID.TID 0000.0001)  ploadbar=  1.01158936211902E+05
 cg2d: Sum(rhs),rhsMax =  -7.01350617960978E+01  2.20763048044987E+00
(PID.TID 0000.0001)  ploadbar=  1.01158831260489E+05
 cg2d: Sum(rhs),rhsMax =  -6.96805242260642E+01  2.22205995165802E+00
(PID.TID 0000.0001)  ploadbar=  1.01158726309076E+05
 cg2d: Sum(rhs),rhsMax =  -6.92442980594983E+01  2.23607743154499E+00
(PID.TID 0000.0001)  ploadbar=  1.01158621357662E+05
 cg2d: Sum(rhs),rhsMax =  -6.88380275388619E+01  2.24927908490348E+00
(PID.TID 0000.0001)  ploadbar=  1.01158516406249E+05
 cg2d: Sum(rhs),rhsMax =  -6.85892101925898E+01  2.25751491411393E+00
(PID.TID 0000.0001)  ploadbar=  1.01158855513615E+05
 cg2d: Sum(rhs),rhsMax =  -6.84755693075244E+01  2.26140539658047E+00
(PID.TID 0000.0001)  ploadbar=  1.01159194620980E+05
 cg2d: Sum(rhs),rhsMax =  -6.84864390051336E+01  2.26125260156779E+00
(PID.TID 0000.0001)  ploadbar=  1.01159533728346E+05
 cg2d: Sum(rhs),rhsMax =  -6.85946231928057E+01  2.25794808108961E+00
(PID.TID 0000.0001)  ploadbar=  1.01159872835712E+05
 cg2d: Sum(rhs),rhsMax =  -6.87743696710962E+01  2.25235492882238E+00
(PID.TID 0000.0001)  ploadbar=  1.01160211943077E+05
 cg2d: Sum(rhs),rhsMax =  -6.90021073555242E+01  2.24526839698024E+00
(PID.TID 0000.0001)  ploadbar=  1.01160551050443E+05
 cg2d: Sum(rhs),rhsMax =  -6.91212938380070E+01  2.24173337843419E+00
(PID.TID 0000.0001)  ploadbar=  1.01160401096401E+05
 cg2d: Sum(rhs),rhsMax =  -6.91911071189485E+01  2.23979169274142E+00
(PID.TID 0000.0001)  ploadbar=  1.01160251142360E+05
 cg2d: Sum(rhs),rhsMax =  -6.92059654178021E+01  2.23961378597504E+00
(PID.TID 0000.0001)  ploadbar=  1.01160101188318E+05
 cg2d: Sum(rhs),rhsMax =  -6.91756821552135E+01  2.24087832110901E+00
(PID.TID 0000.0001)  ploadbar=  1.01159951234277E+05
 cg2d: Sum(rhs),rhsMax =  -6.91259009433310E+01  2.24275648977493E+00
(PID.TID 0000.0001)  ploadbar=  1.01159801280235E+05
 cg2d: Sum(rhs),rhsMax =  -6.90843328126416E+01  2.24434451888073E+00
(PID.TID 0000.0001)  ploadbar=  1.01159651326194E+05
 cg2d: Sum(rhs),rhsMax =  -6.90683694118140E+01  2.24509712480214E+00
(PID.TID 0000.0001)  ploadbar=  1.01157930106130E+05
 cg2d: Sum(rhs),rhsMax =  -6.90315239803382E+01  2.24651967158580E+00
(PID.TID 0000.0001)  ploadbar=  1.01156208886067E+05
 cg2d: Sum(rhs),rhsMax =  -6.89960737576241E+01  2.24788372996335E+00
(PID.TID 0000.0001)  ploadbar=  1.01154487666004E+05
 cg2d: Sum(rhs),rhsMax =  -6.90252193283455E+01  2.24712631647208E+00
(PID.TID 0000.0001)  ploadbar=  1.01152766445940E+05
 cg2d: Sum(rhs),rhsMax =  -6.91414804868599E+01  2.24351856426142E+00
(PID.TID 0000.0001)  ploadbar=  1.01151045225877E+05
 cg2d: Sum(rhs),rhsMax =  -6.93778222687660E+01  2.23601962785354E+00
(PID.TID 0000.0001)  ploadbar=  1.01149324005813E+05
 cg2d: Sum(rhs),rhsMax =  -6.97989159704757E+01  2.22267382038864E+00
(PID.TID 0000.0001)  ploadbar=  1.01147875815637E+05
 cg2d: Sum(rhs),rhsMax =  -7.03472351316696E+01  2.20548925042037E+00
(PID.TID 0000.0001)  ploadbar=  1.01146427625460E+05
 cg2d: Sum(rhs),rhsMax =  -7.09761990560683E+01  2.18607935286004E+00
(PID.TID 0000.0001)  ploadbar=  1.01144979435283E+05
 cg2d: Sum(rhs),rhsMax =  -7.16415483716637E+01  2.16590042519753E+00
(PID.TID 0000.0001)  ploadbar=  1.01143531245107E+05
 cg2d: Sum(rhs),rhsMax =  -7.23122360303377E+01  2.14592079469871E+00
(PID.TID 0000.0001)  ploadbar=  1.01142083054930E+05
 cg2d: Sum(rhs),rhsMax =  -7.30009986082165E+01  2.12576447531483E+00
(PID.TID 0000.0001)  ploadbar=  1.01140634864754E+05
 cg2d: Sum(rhs),rhsMax =  -7.37185310560920E+01  2.10520199930604E+00
(PID.TID 0000.0001)  ploadbar=  1.01139900387208E+05
 cg2d: Sum(rhs),rhsMax =  -7.45133427453015E+01  2.08290595132755E+00
(PID.TID 0000.0001)  ploadbar=  1.01139165909663E+05
 cg2d: Sum(rhs),rhsMax =  -7.54076894333415E+01  2.05838890439583E+00
(PID.TID 0000.0001)  ploadbar=  1.01138431432118E+05
 cg2d: Sum(rhs),rhsMax =  -7.64289428504616E+01  2.03109306286221E+00
(PID.TID 0000.0001)  ploadbar=  1.01137696954573E+05
 cg2d: Sum(rhs),rhsMax =  -7.75806401421201E+01  2.00116702743945E+00
(PID.TID 0000.0001)  ploadbar=  1.01136962477028E+05
 cg2d: Sum(rhs),rhsMax =  -7.88495073057440E+01  1.96919936532720E+00
(PID.TID 0000.0001)  ploadbar=  1.01136227999483E+05
 cg2d: Sum(rhs),rhsMax =  -8.02074875269113E+01  1.93609373936194E+00
(PID.TID 0000.0001)  ploadbar=  1.01136213456646E+05
 cg2d: Sum(rhs),rhsMax =  -8.15957466843607E+01  1.90338312274735E+00
(PID.TID 0000.0001)  ploadbar=  1.01136198913809E+05
 cg2d: Sum(rhs),rhsMax =  -8.29458199312991E+01  1.87262281753142E+00
(PID.TID 0000.0001)  ploadbar=  1.01136184370972E+05
 cg2d: Sum(rhs),rhsMax =  -8.42836140097596E+01  1.84310561326297E+00
(PID.TID 0000.0001)  ploadbar=  1.01136169828136E+05
 cg2d: Sum(rhs),rhsMax =  -8.55613622342987E+01  1.81576986730033E+00
(PID.TID 0000.0001)  ploadbar=  1.01136155285299E+05
 cg2d: Sum(rhs),rhsMax =  -8.68314796695866E+01  1.78938130014184E+00
(PID.TID 0000.0001)  ploadbar=  1.01136140742462E+05
 cg2d: Sum(rhs),rhsMax =  -8.80390469198426E+01  1.76498960579128E+00
(PID.TID 0000.0001)  ploadbar=  1.01133373279269E+05
 cg2d: Sum(rhs),rhsMax =  -8.92531584346350E+01  1.74110442249289E+00
(PID.TID 0000.0001)  ploadbar=  1.01130605816076E+05
 cg2d: Sum(rhs),rhsMax =  -9.04492528850522E+01  1.71817138438309E+00
(PID.TID 0000.0001)  ploadbar=  1.01127838352883E+05
 cg2d: Sum(rhs),rhsMax =  -9.16014578611606E+01  1.69661375721981E+00
(PID.TID 0000.0001)  ploadbar=  1.01125070889690E+05
 cg2d: Sum(rhs),rhsMax =  -9.26732720189466E+01  1.67700416073578E+00
(PID.TID 0000.0001)  ploadbar=  1.01122303426497E+05
 cg2d: Sum(rhs),rhsMax =  -9.36321461157119E+01  1.65979842124217E+00
(PID.TID 0000.0001)  ploadbar=  1.01119535963304E+05
 cg2d: Sum(rhs),rhsMax =  -9.44943851368688E+01  1.64461231815276E+00
(PID.TID 0000.0001)  ploadbar=  1.01119047836168E+05
 cg2d: Sum(rhs),rhsMax =  -9.52984855517656E+01  1.63068431995475E+00
(PID.TID 0000.0001)  ploadbar=  1.01118559709032E+05
 cg2d: Sum(rhs),rhsMax =  -9.61162350875589E+01  1.61674487727975E+00
(PID.TID 0000.0001)  ploadbar=  1.01118071581896E+05
 cg2d: Sum(rhs),rhsMax =  -9.70214932344341E+01  1.60157169416526E+00
(PID.TID 0000.0001)  ploadbar=  1.01117583454761E+05
 cg2d: Sum(rhs),rhsMax =  -9.81012156206401E+01  1.58382582439342E+00
(PID.TID 0000.0001)  ploadbar=  1.01117095327625E+05
 cg2d: Sum(rhs),rhsMax =  -9.94301323988048E+01  1.56250635389244E+00
(PID.TID 0000.0001)  ploadbar=  1.01116607200489E+05
 cg2d: Sum(rhs),rhsMax =  -1.01047516064091E+02  1.53736836555832E+00
(PID.TID 0000.0001)  ploadbar=  1.01116563310833E+05
 cg2d: Sum(rhs),rhsMax =  -1.02795446987501E+02  1.51111990953478E+00
(PID.TID 0000.0001)  ploadbar=  1.01116519421178E+05
 cg2d: Sum(rhs),rhsMax =  -1.03394843560547E+02  1.50226912547762E+00
(PID.TID 0000.0001)  ploadbar=  1.01116475531522E+05
 cg2d: Sum(rhs),rhsMax =  -1.02265995260286E+02  1.51877271921151E+00
(PID.TID 0000.0001)  ploadbar=  1.01116431641866E+05
 cg2d: Sum(rhs),rhsMax =  -1.01097083295552E+02  1.53626102908744E+00
(PID.TID 0000.0001)  ploadbar=  1.01116387752210E+05
 cg2d: Sum(rhs),rhsMax =  -9.98581947181828E+01  1.55525097630118E+00
(PID.TID 0000.0001)  ploadbar=  1.01116343862555E+05
 cg2d: Sum(rhs),rhsMax =  -9.87289133940158E+01  1.57298177062509E+00
(PID.TID 0000.0001)  ploadbar=  1.01115528977040E+05
 cg2d: Sum(rhs),rhsMax =  -9.78921711573548E+01  1.58637752105485E+00
(PID.TID 0000.0001)  ploadbar=  1.01114714091525E+05
 cg2d: Sum(rhs),rhsMax =  -9.73176424648008E+01  1.59569871463903E+00
(PID.TID 0000.0001)  ploadbar=  1.01113899206010E+05
 cg2d: Sum(rhs),rhsMax =  -9.69253538249977E+01  1.60211453716569E+00
(PID.TID 0000.0001)  ploadbar=  1.01113084320495E+05
 cg2d: Sum(rhs),rhsMax =  -9.66268997588696E+01  1.60701724809846E+00
(PID.TID 0000.0001)  ploadbar=  1.01112269434980E+05
 cg2d: Sum(rhs),rhsMax =  -9.63549733993640E+01  1.61150072438162E+00
(PID.TID 0000.0001)  ploadbar=  1.01111454549465E+05
 cg2d: Sum(rhs),rhsMax =  -9.60634706676463E+01  1.61633974470828E+00
(PID.TID 0000.0001)  ploadbar=  1.01109355735158E+05
 cg2d: Sum(rhs),rhsMax =  -9.58098129184154E+01  1.62056641243111E+00
(PID.TID 0000.0001)  ploadbar=  1.01107256920851E+05
 cg2d: Sum(rhs),rhsMax =  -9.56837867530231E+01  1.62264502780711E+00
(PID.TID 0000.0001)  ploadbar=  1.01105158106545E+05
 cg2d: Sum(rhs),rhsMax =  -9.57615107479979E+01  1.62126297170900E+00
(PID.TID 0000.0001)  ploadbar=  1.01103059292238E+05
 cg2d: Sum(rhs),rhsMax =  -9.60482061930015E+01  1.61634414346771E+00
(PID.TID 0000.0001)  ploadbar=  1.01100960477932E+05
 cg2d: Sum(rhs),rhsMax =  -9.64955676012414E+01  1.60875123705831E+00
(PID.TID 0000.0001)  ploadbar=  1.01098861663625E+05
 cg2d: Sum(rhs),rhsMax =  -9.69864335201560E+01  1.60049291843758E+00
(PID.TID 0000.0001)  ploadbar=  1.01097105164350E+05
 cg2d: Sum(rhs),rhsMax =  -9.74826284492540E+01  1.59221097766371E+00
(PID.TID 0000.0001)  ploadbar=  1.01095348665074E+05
 cg2d: Sum(rhs),rhsMax =  -9.79656331961882E+01  1.58420420386609E+00
(PID.TID 0000.0001)  ploadbar=  1.01093592165798E+05
 cg2d: Sum(rhs),rhsMax =  -9.84564544479930E+01  1.57612871098380E+00
(PID.TID 0000.0001)  ploadbar=  1.01091835666523E+05
 cg2d: Sum(rhs),rhsMax =  -9.90114817651946E+01  1.56709045587565E+00
(PID.TID 0000.0001)  ploadbar=  1.01090079167247E+05
 cg2d: Sum(rhs),rhsMax =  -9.96232140379400E+01  1.55723665547103E+00
(PID.TID 0000.0001)  ploadbar=  1.01088322667971E+05
 cg2d: Sum(rhs),rhsMax =  -1.00281335893629E+02  1.54680944454974E+00
(PID.TID 0000.0001)  ploadbar=  1.01086709248591E+05
 cg2d: Sum(rhs),rhsMax =  -1.01008551404910E+02  1.53548789632173E+00
(PID.TID 0000.0001)  ploadbar=  1.01085095829212E+05
 cg2d: Sum(rhs),rhsMax =  -1.01797343595810E+02  1.52342508404958E+00
(PID.TID 0000.0001)  ploadbar=  1.01083482409832E+05
 cg2d: Sum(rhs),rhsMax =  -1.02633198839712E+02  1.51086871738410E+00
(PID.TID 0000.0001)  ploadbar=  1.01081868990452E+05
 cg2d: Sum(rhs),rhsMax =  -1.03505359007772E+02  1.49799868186553E+00
(PID.TID 0000.0001)  ploadbar=  1.01080255571072E+05
 cg2d: Sum(rhs),rhsMax =  -1.04389271751818E+02  1.48518311527626E+00
(PID.TID 0000.0001)  ploadbar=  1.01078642151692E+05
 cg2d: Sum(rhs),rhsMax =  -1.05270188811858E+02  1.47263361399814E+00
(PID.TID 0000.0001)  ploadbar=  1.01078170061839E+05
 cg2d: Sum(rhs),rhsMax =  -1.06118252805740E+02  1.46074963708237E+00
(PID.TID 0000.0001)  ploadbar=  1.01077697971987E+05
 cg2d: Sum(rhs),rhsMax =  -1.06995241871022E+02  1.44866309651270E+00
(PID.TID 0000.0001)  ploadbar=  1.01077225882135E+05
 cg2d: Sum(rhs),rhsMax =  -1.07986283549277E+02  1.43525337180361E+00
(PID.TID 0000.0001)  ploadbar=  1.01076753792283E+05
 cg2d: Sum(rhs),rhsMax =  -1.09155549656857E+02  1.41975833824982E+00
(PID.TID 0000.0001)  ploadbar=  1.01076281702431E+05
 cg2d: Sum(rhs),rhsMax =  -1.10515208808724E+02  1.40215999225029E+00
(PID.TID 0000.0001)  ploadbar=  1.01075809612579E+05
 cg2d: Sum(rhs),rhsMax =  -1.12053335294756E+02  1.38279913949266E+00
(PID.TID 0000.0001)  ploadbar=  1.01075149106478E+05
 cg2d: Sum(rhs),rhsMax =  -1.11455629824729E+02  1.39011303707749E+00
(PID.TID 0000.0001)  ploadbar=  1.01074488600378E+05
 cg2d: Sum(rhs),rhsMax =  -1.09857391797485E+02  1.41024297970007E+00
(PID.TID 0000.0001)  ploadbar=  1.01073828094277E+05
 cg2d: Sum(rhs),rhsMax =  -1.08596762387385E+02  1.42652456273458E+00
(PID.TID 0000.0001)  ploadbar=  1.01073167588176E+05
 cg2d: Sum(rhs),rhsMax =  -1.07739054834950E+02  1.43779455909275E+00
(PID.TID 0000.0001)  ploadbar=  1.01072507082075E+05
 cg2d: Sum(rhs),rhsMax =  -1.07402412110303E+02  1.44221374986417E+00
(PID.TID 0000.0001)  ploadbar=  1.01071846575975E+05
 cg2d: Sum(rhs),rhsMax =  -1.07648856723645E+02  1.43880201905362E+00
(PID.TID 0000.0001)  ploadbar=  1.01072390244075E+05
 cg2d: Sum(rhs),rhsMax =  -1.07904923577966E+02  1.43525521481965E+00
(PID.TID 0000.0001)  ploadbar=  1.01072933912175E+05
 cg2d: Sum(rhs),rhsMax =  -1.08173755163935E+02  1.43153493033492E+00
(PID.TID 0000.0001)  ploadbar=  1.01073477580275E+05
 cg2d: Sum(rhs),rhsMax =  -1.08442286669252E+02  1.42781358015002E+00
(PID.TID 0000.0001)  ploadbar=  1.01074021248376E+05
 cg2d: Sum(rhs),rhsMax =  -1.08704020234160E+02  1.42417312316014E+00
(PID.TID 0000.0001)  ploadbar=  1.01074564916476E+05
 cg2d: Sum(rhs),rhsMax =  -1.08950848442187E+02  1.42071611112339E+00
(PID.TID 0000.0001)  ploadbar=  1.01075108584576E+05
 cg2d: Sum(rhs),rhsMax =  -1.09118157411191E+02  1.41834333712250E+00
(PID.TID 0000.0001)  ploadbar=  1.01075899665052E+05
 cg2d: Sum(rhs),rhsMax =  -1.09265552399234E+02  1.41626918847982E+00
(PID.TID 0000.0001)  ploadbar=  1.01076690745529E+05
 cg2d: Sum(rhs),rhsMax =  -1.09400946710236E+02  1.41438685614290E+00
(PID.TID 0000.0001)  ploadbar=  1.01077481826005E+05
 cg2d: Sum(rhs),rhsMax =  -1.09537330988301E+02  1.41252477984446E+00
(PID.TID 0000.0001)  ploadbar=  1.01078272906482E+05
 cg2d: Sum(rhs),rhsMax =  -1.09691821284950E+02  1.41046183018021E+00
(PID.TID 0000.0001)  ploadbar=  1.01079063986958E+05
 cg2d: Sum(rhs),rhsMax =  -1.09883895789554E+02  1.40794622479189E+00
(PID.TID 0000.0001)  ploadbar=  1.01079855067435E+05
 cg2d: Sum(rhs),rhsMax =  -1.10064459760400E+02  1.40557985739917E+00
(PID.TID 0000.0001)  ploadbar=  1.01081114073955E+05
 cg2d: Sum(rhs),rhsMax =  -1.10276736715568E+02  1.40281241450777E+00
(PID.TID 0000.0001)  ploadbar=  1.01082373080476E+05
 cg2d: Sum(rhs),rhsMax =  -1.10526619374857E+02  1.39957185343587E+00
(PID.TID 0000.0001)  ploadbar=  1.01083632086997E+05
 cg2d: Sum(rhs),rhsMax =  -1.10785860756864E+02  1.39621870011619E+00
(PID.TID 0000.0001)  ploadbar=  1.01084891093517E+05
 cg2d: Sum(rhs),rhsMax =  -1.09368143920407E+02  1.41422705618529E+00
(PID.TID 0000.0001)  ploadbar=  1.01086150100038E+05
 cg2d: Sum(rhs),rhsMax =  -1.07456972932476E+02  1.43927415127635E+00
(PID.TID 0000.0001)  ploadbar=  1.01087409106559E+05
 cg2d: Sum(rhs),rhsMax =  -1.04727412664643E+02  1.47668252082831E+00
(PID.TID 0000.0001)  ploadbar=  1.01088909182810E+05
 cg2d: Sum(rhs),rhsMax =  -1.01454241610766E+02  1.52421812730714E+00
(PID.TID 0000.0001)  ploadbar=  1.01090409259061E+05
 cg2d: Sum(rhs),rhsMax =  -9.83660766515671E+01  1.57195934917444E+00
(PID.TID 0000.0001)  ploadbar=  1.01091909335312E+05
 cg2d: Sum(rhs),rhsMax =  -9.56973475388633E+01  1.61567876884655E+00
(PID.TID 0000.0001)  ploadbar=  1.01093409411563E+05
 cg2d: Sum(rhs),rhsMax =  -9.36397629159500E+01  1.65105129665976E+00
(PID.TID 0000.0001)  ploadbar=  1.01094909487814E+05
 cg2d: Sum(rhs),rhsMax =  -9.22068908939462E+01  1.67656440812696E+00
(PID.TID 0000.0001)  ploadbar=  1.01096409564065E+05
 cg2d: Sum(rhs),rhsMax =  -9.14383696898215E+01  1.69051241246514E+00
(PID.TID 0000.0001)  ploadbar=  1.01096510419475E+05
 cg2d: Sum(rhs),rhsMax =  -9.10118075515589E+01  1.69829164546222E+00
(PID.TID 0000.0001)  ploadbar=  1.01096611274885E+05
 cg2d: Sum(rhs),rhsMax =  -9.08657461437841E+01  1.70087318371744E+00
(PID.TID 0000.0001)  ploadbar=  1.01096712130295E+05
 cg2d: Sum(rhs),rhsMax =  -9.10536397701444E+01  1.69720902133932E+00
(PID.TID 0000.0001)  ploadbar=  1.01096812985705E+05
 cg2d: Sum(rhs),rhsMax =  -9.14258124366031E+01  1.69013674391395E+00
(PID.TID 0000.0001)  ploadbar=  1.01096913841115E+05
 cg2d: Sum(rhs),rhsMax =  -9.18396888998123E+01  1.68234592093990E+00
(PID.TID 0000.0001)  ploadbar=  1.01097014696525E+05
 cg2d: Sum(rhs),rhsMax =  -9.22154953915278E+01  1.67535477537143E+00
(PID.TID 0000.0001)  ploadbar=  1.01096653501868E+05
 cg2d: Sum(rhs),rhsMax =  -9.25134961920365E+01  1.66986051488008E+00
(PID.TID 0000.0001)  ploadbar=  1.01096292307212E+05
 cg2d: Sum(rhs),rhsMax =  -9.27425924607986E+01  1.66566992437462E+00
(PID.TID 0000.0001)  ploadbar=  1.01095931112556E+05
 cg2d: Sum(rhs),rhsMax =  -9.30618850051984E+01  1.65991879823231E+00
(PID.TID 0000.0001)  ploadbar=  1.01095569917900E+05
 cg2d: Sum(rhs),rhsMax =  -9.34222973937067E+01  1.65350494161125E+00
(PID.TID 0000.0001)  ploadbar=  1.01095208723243E+05
 cg2d: Sum(rhs),rhsMax =  -9.39147707893292E+01  1.64484444529975E+00
(PID.TID 0000.0001)  ploadbar=  1.01094847528587E+05
 cg2d: Sum(rhs),rhsMax =  -9.44396450006392E+01  1.63572389484558E+00
(PID.TID 0000.0001)  ploadbar=  1.01095354837519E+05
 cg2d: Sum(rhs),rhsMax =  -9.49536623994690E+01  1.62689870903122E+00
(PID.TID 0000.0001)  ploadbar=  1.01095862146451E+05
 cg2d: Sum(rhs),rhsMax =  -9.54219087224232E+01  1.61895078009488E+00
(PID.TID 0000.0001)  ploadbar=  1.01096369455383E+05
 cg2d: Sum(rhs),rhsMax =  -9.57997914473467E+01  1.61260464794180E+00
(PID.TID 0000.0001)  ploadbar=  1.01096876764316E+05
 cg2d: Sum(rhs),rhsMax =  -9.60327121457109E+01  1.60873393392856E+00
(PID.TID 0000.0001)  ploadbar=  1.01097384073248E+05
 cg2d: Sum(rhs),rhsMax =  -9.60582545853335E+01  1.60834414907486E+00
(PID.TID 0000.0001)  ploadbar=  1.01097891382180E+05
 cg2d: Sum(rhs),rhsMax =  -9.58977931459695E+01  1.61107285731759E+00
(PID.TID 0000.0001)  ploadbar=  1.01098282041830E+05
 cg2d: Sum(rhs),rhsMax =  -9.55737567232862E+01  1.61656759236255E+00
(PID.TID 0000.0001)  ploadbar=  1.01098672701481E+05
 cg2d: Sum(rhs),rhsMax =  -9.51492899580634E+01  1.62380288573452E+00
(PID.TID 0000.0001)  ploadbar=  1.01099063361132E+05
 cg2d: Sum(rhs),rhsMax =  -9.47119606132960E+01  1.63131262805001E+00
(PID.TID 0000.0001)  ploadbar=  1.01099454020782E+05
 cg2d: Sum(rhs),rhsMax =  -9.43346590287939E+01  1.63783358048740E+00
(PID.TID 0000.0001)  ploadbar=  1.01099844680433E+05
 cg2d: Sum(rhs),rhsMax =  -9.40442370417487E+01  1.64286743532663E+00
(PID.TID 0000.0001)  ploadbar=  1.01100235340084E+05
 cg2d: Sum(rhs),rhsMax =  -9.38774867870580E+01  1.64576070723047E+00
(PID.TID 0000.0001)  ploadbar=  1.01100460565464E+05
 cg2d: Sum(rhs),rhsMax =  -9.37814164452220E+01  1.64742042768789E+00
(PID.TID 0000.0001)  ploadbar=  1.01100685790844E+05
 cg2d: Sum(rhs),rhsMax =  -9.37045807009429E+01  1.64874098788140E+00
(PID.TID 0000.0001)  ploadbar=  1.01100911016225E+05
 cg2d: Sum(rhs),rhsMax =  -9.34762249176306E+01  1.65273129219129E+00
(PID.TID 0000.0001)  ploadbar=  1.01101136241605E+05
 cg2d: Sum(rhs),rhsMax =  -9.31144648254513E+01  1.65910439645359E+00
(PID.TID 0000.0001)  ploadbar=  1.01101361466985E+05
 cg2d: Sum(rhs),rhsMax =  -9.27304272517533E+01  1.66591403364619E+00
(PID.TID 0000.0001)  ploadbar=  1.01101586692365E+05
 cg2d: Sum(rhs),rhsMax =  -9.23359881615925E+01  1.67301158705667E+00
(PID.TID 0000.0001)  ploadbar=  1.01101489157571E+05
 cg2d: Sum(rhs),rhsMax =  -9.19530377988305E+01  1.68000120409497E+00
(PID.TID 0000.0001)  ploadbar=  1.01101391622776E+05
 cg2d: Sum(rhs),rhsMax =  -9.16047087022950E+01  1.68645000792501E+00
(PID.TID 0000.0001)  ploadbar=  1.01101294087981E+05
 cg2d: Sum(rhs),rhsMax =  -9.13163139681350E+01  1.69187343062427E+00
(PID.TID 0000.0001)  ploadbar=  1.01101196553187E+05
 cg2d: Sum(rhs),rhsMax =  -9.11037177190276E+01  1.69595239054337E+00
(PID.TID 0000.0001)  ploadbar=  1.01101099018392E+05
 cg2d: Sum(rhs),rhsMax =  -9.09737168552399E+01  1.69853803606567E+00
(PID.TID 0000.0001)  ploadbar=  1.01101001483597E+05
 cg2d: Sum(rhs),rhsMax =  -9.09057421987177E+01  1.69997036309343E+00
(PID.TID 0000.0001)  ploadbar=  1.01100909485033E+05
 cg2d: Sum(rhs),rhsMax =  -9.08901453306792E+01  1.70042084374023E+00
(PID.TID 0000.0001)  ploadbar=  1.01100817486468E+05
 cg2d: Sum(rhs),rhsMax =  -9.08915826294031E+01  1.70054615537319E+00
(PID.TID 0000.0001)  ploadbar=  1.01100725487904E+05
 cg2d: Sum(rhs),rhsMax =  -9.08902152616052E+01  1.70071659123399E+00
(PID.TID 0000.0001)  ploadbar=  1.01100633489339E+05
 cg2d: Sum(rhs),rhsMax =  -9.08401696367375E+01  1.70178664582926E+00
(PID.TID 0000.0001)  ploadbar=  1.01100541490774E+05
 cg2d: Sum(rhs),rhsMax =  -9.07915399330215E+01  1.70281750335153E+00
(PID.TID 0000.0001)  ploadbar=  1.01100449492210E+05
 cg2d: Sum(rhs),rhsMax =  -9.02399903161648E+01  1.71334529513461E+00
(PID.TID 0000.0001)  ploadbar=  1.01099182721959E+05
 cg2d: Sum(rhs),rhsMax =  -8.96097384162058E+01  1.72551353072724E+00
(PID.TID 0000.0001)  ploadbar=  1.01097915951709E+05
 cg2d: Sum(rhs),rhsMax =  -8.90425262995527E+01  1.73661706489626E+00
(PID.TID 0000.0001)  ploadbar=  1.01096649181458E+05
 cg2d: Sum(rhs),rhsMax =  -8.85250661468823E+01  1.74686931259776E+00
(PID.TID 0000.0001)  ploadbar=  1.01095382411208E+05
 cg2d: Sum(rhs),rhsMax =  -8.80277186546959E+01  1.75682343267684E+00
(PID.TID 0000.0001)  ploadbar=  1.01094115640957E+05
 cg2d: Sum(rhs),rhsMax =  -8.75152581233819E+01  1.76717332257169E+00
(PID.TID 0000.0001)  ploadbar=  1.01092848870706E+05
 cg2d: Sum(rhs),rhsMax =  -8.69925841368939E+01  1.77784492280285E+00
(PID.TID 0000.0001)  ploadbar=  1.01093164881845E+05
 cg2d: Sum(rhs),rhsMax =  -8.64926535149709E+01  1.78816262869323E+00
(PID.TID 0000.0001)  ploadbar=  1.01093480892983E+05
 cg2d: Sum(rhs),rhsMax =  -8.60264814333187E+01  1.79788036548530E+00
(PID.TID 0000.0001)  ploadbar=  1.01093796904121E+05
 cg2d: Sum(rhs),rhsMax =  -8.55938067336294E+01  1.80697928045325E+00
(PID.TID 0000.0001)  ploadbar=  1.01094112915259E+05
 cg2d: Sum(rhs),rhsMax =  -8.51955221892282E+01  1.81541772991117E+00
(PID.TID 0000.0001)  ploadbar=  1.01094428926397E+05
 cg2d: Sum(rhs),rhsMax =  -8.48353621428293E+01  1.82309274710395E+00
(PID.TID 0000.0001)  ploadbar=  1.01094744937536E+05
 cg2d: Sum(rhs),rhsMax =  -8.45204282155811E+01  1.82989723462904E+00
(PID.TID 0000.0001)  ploadbar=  1.01095236471893E+05
 cg2d: Sum(rhs),rhsMax =  -8.42367228194880E+01  1.83611339657396E+00
(PID.TID 0000.0001)  ploadbar=  1.01095728006250E+05
 cg2d: Sum(rhs),rhsMax =  -8.39821872184532E+01  1.84177133075157E+00
(PID.TID 0000.0001)  ploadbar=  1.01096219540608E+05
 cg2d: Sum(rhs),rhsMax =  -8.37372905540904E+01  1.84728547139300E+00
(PID.TID 0000.0001)  ploadbar=  1.01096711074965E+05
 cg2d: Sum(rhs),rhsMax =  -8.34955556509772E+01  1.85279222025017E+00
(PID.TID 0000.0001)  ploadbar=  1.01097202609322E+05
 cg2d: Sum(rhs),rhsMax =  -8.32864812897054E+01  1.85763070590920E+00
(PID.TID 0000.0001)  ploadbar=  1.01097694143680E+05
 cg2d: Sum(rhs),rhsMax =  -8.31468519422124E+01  1.86092915454383E+00
(PID.TID 0000.0001)  ploadbar=  1.01097644218405E+05
 cg2d: Sum(rhs),rhsMax =  -8.30983597323605E+01  1.86218355973815E+00
(PID.TID 0000.0001)  ploadbar=  1.01097594293130E+05
 cg2d: Sum(rhs),rhsMax =  -8.31259445905666E+01  1.86171937701745E+00
(PID.TID 0000.0001)  ploadbar=  1.01097544367854E+05
 cg2d: Sum(rhs),rhsMax =  -8.31752361665534E+01  1.86075229684281E+00
(PID.TID 0000.0001)  ploadbar=  1.01097494442579E+05
 cg2d: Sum(rhs),rhsMax =  -8.32261970821280E+01  1.85972800782285E+00
(PID.TID 0000.0001)  ploadbar=  1.01097444517304E+05
 cg2d: Sum(rhs),rhsMax =  -8.32593444932415E+01  1.85907569028767E+00
(PID.TID 0000.0001)  ploadbar=  1.01097394592029E+05
 cg2d: Sum(rhs),rhsMax =  -8.32807809766263E+01  1.85869280047201E+00
(PID.TID 0000.0001)  ploadbar=  1.01097645548668E+05
 cg2d: Sum(rhs),rhsMax =  -8.32744834934381E+01  1.85893426202151E+00
(PID.TID 0000.0001)  ploadbar=  1.01097896505308E+05
 cg2d: Sum(rhs),rhsMax =  -8.32422277931865E+01  1.85975788478348E+00
(PID.TID 0000.0001)  ploadbar=  1.01098147461947E+05
 cg2d: Sum(rhs),rhsMax =  -8.31913547759714E+01  1.86099824648612E+00
(PID.TID 0000.0001)  ploadbar=  1.01098398418586E+05
 cg2d: Sum(rhs),rhsMax =  -8.31240698615001E+01  1.86260217196627E+00
(PID.TID 0000.0001)  ploadbar=  1.01098649375225E+05
 cg2d: Sum(rhs),rhsMax =  -8.30423531259452E+01  1.86452014446588E+00
(PID.TID 0000.0001)  ploadbar=  1.01098900331865E+05
 cg2d: Sum(rhs),rhsMax =  -8.29634721238317E+01  1.86635808535174E+00
(PID.TID 0000.0001)  ploadbar=  1.01100089074953E+05
 cg2d: Sum(rhs),rhsMax =  -8.29156681925609E+01  1.86747688745861E+00
(PID.TID 0000.0001)  ploadbar=  1.01101277818041E+05
 cg2d: Sum(rhs),rhsMax =  -8.29020232192974E+01  1.86780047981724E+00
(PID.TID 0000.0001)  ploadbar=  1.01102466561129E+05
 cg2d: Sum(rhs),rhsMax =  -8.29123296966713E+01  1.86755545432257E+00
(PID.TID 0000.0001)  ploadbar=  1.01103655304217E+05
 cg2d: Sum(rhs),rhsMax =  -8.29333552670891E+01  1.86703711798979E+00
(PID.TID 0000.0001)  ploadbar=  1.01104844047305E+05
 cg2d: Sum(rhs),rhsMax =  -8.29547045698956E+01  1.86647449917063E+00
(PID.TID 0000.0001)  ploadbar=  1.01106032790393E+05
 cg2d: Sum(rhs),rhsMax =  -8.29777914356132E+01  1.86590847214453E+00
(PID.TID 0000.0001)  ploadbar=  1.01107494665371E+05
 cg2d: Sum(rhs),rhsMax =  -8.29918116805985E+01  1.86558030444694E+00
(PID.TID 0000.0001)  ploadbar=  1.01108956540348E+05
 cg2d: Sum(rhs),rhsMax =  -8.29892622139863E+01  1.86565590008401E+00
(PID.TID 0000.0001)  ploadbar=  1.01110418415326E+05
 cg2d: Sum(rhs),rhsMax =  -8.29583742433995E+01  1.86639595574311E+00
(PID.TID 0000.0001)  ploadbar=  1.01111880290304E+05
 cg2d: Sum(rhs),rhsMax =  -8.28938195452506E+01  1.86791813012067E+00
(PID.TID 0000.0001)  ploadbar=  1.01113342165282E+05
 cg2d: Sum(rhs),rhsMax =  -8.27984447503400E+01  1.87015906228021E+00
(PID.TID 0000.0001)  ploadbar=  1.01114804040260E+05
 cg2d: Sum(rhs),rhsMax =  -8.26948997010934E+01  1.87256577933006E+00
(PID.TID 0000.0001)  ploadbar=  1.01115772848129E+05
 cg2d: Sum(rhs),rhsMax =  -8.25872779997079E+01  1.87504520099961E+00
(PID.TID 0000.0001)  ploadbar=  1.01116741655997E+05
 cg2d: Sum(rhs),rhsMax =  -8.24888981505304E+01  1.87728803520120E+00
(PID.TID 0000.0001)  ploadbar=  1.01117710463866E+05
 cg2d: Sum(rhs),rhsMax =  -8.24112248936863E+01  1.87902592970738E+00
(PID.TID 0000.0001)  ploadbar=  1.01118679271735E+05
 cg2d: Sum(rhs),rhsMax =  -8.23591460291874E+01  1.88014380011953E+00
(PID.TID 0000.0001)  ploadbar=  1.01119648079604E+05
 cg2d: Sum(rhs),rhsMax =  -8.23282668487000E+01  1.88073626837306E+00
(PID.TID 0000.0001)  ploadbar=  1.01120616887473E+05
 cg2d: Sum(rhs),rhsMax =  -8.23244016982470E+01  1.88073180606399E+00
(PID.TID 0000.0001)  ploadbar=  1.01122098466434E+05
 cg2d: Sum(rhs),rhsMax =  -8.23207250697760E+01  1.88073831147147E+00
(PID.TID 0000.0001)  ploadbar=  1.01123580045396E+05
 cg2d: Sum(rhs),rhsMax =  -8.23009532965090E+01  1.88112325497447E+00
(PID.TID 0000.0001)  ploadbar=  1.01125061624357E+05
 cg2d: Sum(rhs),rhsMax =  -8.22511432173114E+01  1.88220251737986E+00
(PID.TID 0000.0001)  ploadbar=  1.01126543203319E+05
 cg2d: Sum(rhs),rhsMax =  -8.21657462932353E+01  1.88410047967177E+00
(PID.TID 0000.0001)  ploadbar=  1.01128024782280E+05
 cg2d: Sum(rhs),rhsMax =  -8.20555438820162E+01  1.88656837630846E+00
(PID.TID 0000.0001)  ploadbar=  1.01129506361241E+05
 cg2d: Sum(rhs),rhsMax =  -8.19382036542139E+01  1.88920825646631E+00
(PID.TID 0000.0001)  ploadbar=  1.01130531132215E+05
 cg2d: Sum(rhs),rhsMax =  -8.18416001798606E+01  1.89137339461384E+00
(PID.TID 0000.0001)  ploadbar=  1.01131555903188E+05
 cg2d: Sum(rhs),rhsMax =  -8.17653590675648E+01  1.89306446875753E+00
(PID.TID 0000.0001)  ploadbar=  1.01132580674162E+05
 cg2d: Sum(rhs),rhsMax =  -8.17200649084050E+01  1.89403015920807E+00
(PID.TID 0000.0001)  ploadbar=  1.01133605445136E+05
 cg2d: Sum(rhs),rhsMax =  -8.17228480962138E+01  1.89386419103865E+00
(PID.TID 0000.0001)  ploadbar=  1.01134630216109E+05
 cg2d: Sum(rhs),rhsMax =  -8.18002827588605E+01  1.89194518584722E+00
(PID.TID 0000.0001)  ploadbar=  1.01135654987083E+05
 cg2d: Sum(rhs),rhsMax =  -8.20213161676929E+01  1.88675746261724E+00
(PID.TID 0000.0001)  ploadbar=  1.01136191457675E+05
 cg2d: Sum(rhs),rhsMax =  -8.24870157731072E+01  1.87605047996826E+00
(PID.TID 0000.0001)  ploadbar=  1.01136727928268E+05
 cg2d: Sum(rhs),rhsMax =  -8.31202713142306E+01  1.86173479172682E+00
(PID.TID 0000.0001)  ploadbar=  1.01137264398860E+05
 cg2d: Sum(rhs),rhsMax =  -8.37750998155825E+01  1.84719184222028E+00
(PID.TID 0000.0001)  ploadbar=  1.01137800869453E+05
 cg2d: Sum(rhs),rhsMax =  -8.44095029851309E+01  1.83334751083564E+00
(PID.TID 0000.0001)  ploadbar=  1.01138337340045E+05
 cg2d: Sum(rhs),rhsMax =  -8.49697932354033E+01  1.82132099761931E+00
(PID.TID 0000.0001)  ploadbar=  1.01138873810638E+05
 cg2d: Sum(rhs),rhsMax =  -8.54170828372760E+01  1.81183449991044E+00
(PID.TID 0000.0001)  ploadbar=  1.01139421878085E+05
 cg2d: Sum(rhs),rhsMax =  -8.58613315454367E+01  1.80249824217186E+00
(PID.TID 0000.0001)  ploadbar=  1.01139969945532E+05
 cg2d: Sum(rhs),rhsMax =  -8.63161443265678E+01  1.79302478049909E+00
(PID.TID 0000.0001)  ploadbar=  1.01140518012980E+05
 cg2d: Sum(rhs),rhsMax =  -8.68182030211609E+01  1.78266343138477E+00
(PID.TID 0000.0001)  ploadbar=  1.01141066080427E+05
 cg2d: Sum(rhs),rhsMax =  -8.74426682972332E+01  1.76992101200551E+00
(PID.TID 0000.0001)  ploadbar=  1.01141614147874E+05
 cg2d: Sum(rhs),rhsMax =  -8.81498754196798E+01  1.75568621939434E+00
(PID.TID 0000.0001)  ploadbar=  1.01142162215322E+05
 cg2d: Sum(rhs),rhsMax =  -8.87177546622541E+01  1.74443157039619E+00
(PID.TID 0000.0001)  ploadbar=  1.01142196199026E+05
 cg2d: Sum(rhs),rhsMax =  -8.88536804654540E+01  1.74176196937276E+00
(PID.TID 0000.0001)  ploadbar=  1.01142230182731E+05
 cg2d: Sum(rhs),rhsMax =  -8.84733722638196E+01  1.74926077633434E+00
(PID.TID 0000.0001)  ploadbar=  1.01142264166436E+05
 cg2d: Sum(rhs),rhsMax =  -8.76717771383363E+01  1.76527893551727E+00
(PID.TID 0000.0001)  ploadbar=  1.01142298150141E+05
 cg2d: Sum(rhs),rhsMax =  -8.66490829412603E+01  1.78614858249750E+00
(PID.TID 0000.0001)  ploadbar=  1.01142332133846E+05
 cg2d: Sum(rhs),rhsMax =  -8.55637748546312E+01  1.80884437997118E+00
(PID.TID 0000.0001)  ploadbar=  1.01142366117551E+05
 cg2d: Sum(rhs),rhsMax =  -8.46043477577767E+01  1.82938711126922E+00
(PID.TID 0000.0001)  ploadbar=  1.01141658589230E+05
 cg2d: Sum(rhs),rhsMax =  -8.38317111459761E+01  1.84626646787930E+00
(PID.TID 0000.0001)  ploadbar=  1.01140951060910E+05
 cg2d: Sum(rhs),rhsMax =  -8.32772457096923E+01  1.85856311762566E+00
(PID.TID 0000.0001)  ploadbar=  1.01140243532590E+05
 cg2d: Sum(rhs),rhsMax =  -8.29491959849556E+01  1.86590128700219E+00
(PID.TID 0000.0001)  ploadbar=  1.01139536004269E+05
 cg2d: Sum(rhs),rhsMax =  -8.28268685271740E+01  1.86862456404333E+00
(PID.TID 0000.0001)  ploadbar=  1.01138828475949E+05
 cg2d: Sum(rhs),rhsMax =  -8.28242204765281E+01  1.86862817655643E+00
(PID.TID 0000.0001)  ploadbar=  1.01138120947628E+05
 cg2d: Sum(rhs),rhsMax =  -8.28532902985708E+01  1.86795825629225E+00
(PID.TID 0000.0001)  ploadbar=  1.01137826229347E+05
 cg2d: Sum(rhs),rhsMax =  -8.29617944089343E+01  1.86554211396142E+00
(PID.TID 0000.0001)  ploadbar=  1.01137531511067E+05
 cg2d: Sum(rhs),rhsMax =  -8.32049219199292E+01  1.86015589910640E+00
(PID.TID 0000.0001)  ploadbar=  1.01137236792786E+05
 cg2d: Sum(rhs),rhsMax =  -8.35907178535307E+01  1.85166904336335E+00
(PID.TID 0000.0001)  ploadbar=  1.01136942074505E+05
 cg2d: Sum(rhs),rhsMax =  -8.41030307214871E+01  1.84051759991832E+00
(PID.TID 0000.0001)  ploadbar=  1.01136647356224E+05
 cg2d: Sum(rhs),rhsMax =  -8.47033616185008E+01  1.82762760187393E+00
(PID.TID 0000.0001)  ploadbar=  1.01136352637943E+05
 cg2d: Sum(rhs),rhsMax =  -8.52951801083268E+01  1.81510158643004E+00
(PID.TID 0000.0001)  ploadbar=  1.01135267393502E+05
 cg2d: Sum(rhs),rhsMax =  -8.58069602109181E+01  1.80442845705317E+00
(PID.TID 0000.0001)  ploadbar=  1.01134182149061E+05
 cg2d: Sum(rhs),rhsMax =  -8.62125309491374E+01  1.79608691332166E+00
(PID.TID 0000.0001)  ploadbar=  1.01133096904619E+05
 cg2d: Sum(rhs),rhsMax =  -8.65051952670912E+01  1.79015252729546E+00
(PID.TID 0000.0001)  ploadbar=  1.01132011660178E+05
 cg2d: Sum(rhs),rhsMax =  -8.67143044617512E+01  1.78597024009378E+00
(PID.TID 0000.0001)  ploadbar=  1.01130926415737E+05
 cg2d: Sum(rhs),rhsMax =  -8.68725402936009E+01  1.78284281118932E+00
(PID.TID 0000.0001)  ploadbar=  1.01129841171295E+05
 cg2d: Sum(rhs),rhsMax =  -8.69977425735073E+01  1.78040294443596E+00
(PID.TID 0000.0001)  ploadbar=  1.01128855471939E+05
 cg2d: Sum(rhs),rhsMax =  -8.71114355485418E+01  1.77820385318196E+00
(PID.TID 0000.0001)  ploadbar=  1.01127869772582E+05
 cg2d: Sum(rhs),rhsMax =  -8.72254492169002E+01  1.77600136775308E+00
(PID.TID 0000.0001)  ploadbar=  1.01126884073225E+05
 cg2d: Sum(rhs),rhsMax =  -8.73341248033115E+01  1.77390635315549E+00
(PID.TID 0000.0001)  ploadbar=  1.01125898373868E+05
 cg2d: Sum(rhs),rhsMax =  -8.74416742140653E+01  1.77183032767076E+00
(PID.TID 0000.0001)  ploadbar=  1.01124912674512E+05
 cg2d: Sum(rhs),rhsMax =  -8.75305698797492E+01  1.77012284496129E+00
(PID.TID 0000.0001)  ploadbar=  1.01123926975155E+05
 cg2d: Sum(rhs),rhsMax =  -8.75484388040819E+01  1.76983455169823E+00
(PID.TID 0000.0001)  ploadbar=  1.01122239417931E+05
 cg2d: Sum(rhs),rhsMax =  -8.75009708934296E+01  1.77084827760807E+00
(PID.TID 0000.0001)  ploadbar=  1.01120551860707E+05
 cg2d: Sum(rhs),rhsMax =  -8.73770037004465E+01  1.77339305628832E+00
(PID.TID 0000.0001)  ploadbar=  1.01118864303483E+05
 cg2d: Sum(rhs),rhsMax =  -8.71945595859305E+01  1.77711168894545E+00
(PID.TID 0000.0001)  ploadbar=  1.01117176746259E+05
 cg2d: Sum(rhs),rhsMax =  -8.69772507869862E+01  1.78153325290165E+00
(PID.TID 0000.0001)  ploadbar=  1.01115489189035E+05
 cg2d: Sum(rhs),rhsMax =  -8.67467837048473E+01  1.78621787697539E+00
(PID.TID 0000.0001)  ploadbar=  1.01113801631811E+05
 cg2d: Sum(rhs),rhsMax =  -8.64954849191241E+01  1.79139718391664E+00
(PID.TID 0000.0001)  ploadbar=  1.01112924634693E+05
 cg2d: Sum(rhs),rhsMax =  -8.62300165102977E+01  1.79694091576835E+00
(PID.TID 0000.0001)  ploadbar=  1.01112047637575E+05
 cg2d: Sum(rhs),rhsMax =  -8.60011803040741E+01  1.80178615602532E+00
(PID.TID 0000.0001)  ploadbar=  1.01111170640457E+05
 cg2d: Sum(rhs),rhsMax =  -8.58547361908102E+01  1.80495436815897E+00
(PID.TID 0000.0001)  ploadbar=  1.01110293643339E+05
 cg2d: Sum(rhs),rhsMax =  -8.57105604757856E+01  1.80811331051605E+00
(PID.TID 0000.0001)  ploadbar=  1.01109416646221E+05
 cg2d: Sum(rhs),rhsMax =  -8.55007543442983E+01  1.81269239031009E+00
(PID.TID 0000.0001)  ploadbar=  1.01108539649103E+05
 cg2d: Sum(rhs),rhsMax =  -8.53218010888841E+01  1.81664284333201E+00
(PID.TID 0000.0001)  ploadbar=  1.01107580109288E+05
 cg2d: Sum(rhs),rhsMax =  -8.51930295063078E+01  1.81953960349367E+00
(PID.TID 0000.0001)  ploadbar=  1.01106620569474E+05
 cg2d: Sum(rhs),rhsMax =  -8.50924805547587E+01  1.82184011897742E+00
(PID.TID 0000.0001)  ploadbar=  1.01105661029659E+05
 cg2d: Sum(rhs),rhsMax =  -8.50057564863818E+01  1.82384379653580E+00
(PID.TID 0000.0001)  ploadbar=  1.01104701489845E+05
 cg2d: Sum(rhs),rhsMax =  -8.49182579134056E+01  1.82585678941410E+00
(PID.TID 0000.0001)  ploadbar=  1.01103741950030E+05
 cg2d: Sum(rhs),rhsMax =  -8.45466044566496E+01  1.83400199463503E+00
(PID.TID 0000.0001)  ploadbar=  1.01102782410216E+05
 cg2d: Sum(rhs),rhsMax =  -8.41623695059353E+01  1.84250339221318E+00
(PID.TID 0000.0001)  ploadbar=  1.01102659078988E+05
 cg2d: Sum(rhs),rhsMax =  -8.38208391308936E+01  1.85014586879928E+00
(PID.TID 0000.0001)  ploadbar=  1.01102535747760E+05
 cg2d: Sum(rhs),rhsMax =  -8.35562378156603E+01  1.85614505209290E+00
(PID.TID 0000.0001)  ploadbar=  1.01102412416532E+05
 cg2d: Sum(rhs),rhsMax =  -8.33866650101716E+01  1.86006021611937E+00
(PID.TID 0000.0001)  ploadbar=  1.01102289085304E+05
 cg2d: Sum(rhs),rhsMax =  -8.33141701127207E+01  1.86181658276623E+00
(PID.TID 0000.0001)  ploadbar=  1.01102165754076E+05
 cg2d: Sum(rhs),rhsMax =  -8.33290456443863E+01  1.86161379388970E+00
(PID.TID 0000.0001)  ploadbar=  1.01102042422848E+05
 cg2d: Sum(rhs),rhsMax =  -8.33976408899351E+01  1.86019592475391E+00
(PID.TID 0000.0001)  ploadbar=  1.01102374661914E+05
 cg2d: Sum(rhs),rhsMax =  -8.34717531986673E+01  1.85863931613072E+00
(PID.TID 0000.0001)  ploadbar=  1.01102706900981E+05
 cg2d: Sum(rhs),rhsMax =  -8.31583624979546E+01  1.86571753183939E+00
(PID.TID 0000.0001)  ploadbar=  1.01103039140047E+05
 cg2d: Sum(rhs),rhsMax =  -8.28293168435015E+01  1.87317693198361E+00
(PID.TID 0000.0001)  ploadbar=  1.01103371379113E+05
 cg2d: Sum(rhs),rhsMax =  -8.25413128121777E+01  1.87972907166063E+00
(PID.TID 0000.0001)  ploadbar=  1.01103703618179E+05
 cg2d: Sum(rhs),rhsMax =  -8.23071543491879E+01  1.88505387324851E+00
(PID.TID 0000.0001)  ploadbar=  1.01104035857246E+05
 cg2d: Sum(rhs),rhsMax =  -8.21336368097567E+01  1.88905184378426E+00
(PID.TID 0000.0001)  ploadbar=  1.01104386685685E+05
 cg2d: Sum(rhs),rhsMax =  -8.19927711175463E+01  1.89234784876703E+00
(PID.TID 0000.0001)  ploadbar=  1.01104737514123E+05
 cg2d: Sum(rhs),rhsMax =  -8.18689542978034E+01  1.89529005587317E+00
(PID.TID 0000.0001)  ploadbar=  1.01105088342562E+05
 cg2d: Sum(rhs),rhsMax =  -8.17430731091470E+01  1.89831074299943E+00
(PID.TID 0000.0001)  ploadbar=  1.01105439171001E+05
 cg2d: Sum(rhs),rhsMax =  -8.16058549660664E+01  1.90162382245139E+00
(PID.TID 0000.0001)  ploadbar=  1.01105789999440E+05
 cg2d: Sum(rhs),rhsMax =  -8.14535299333350E+01  1.90531594496029E+00
(PID.TID 0000.0001)  ploadbar=  1.01106140827879E+05
 cg2d: Sum(rhs),rhsMax =  -8.12824778581249E+01  1.90947660421617E+00
(PID.TID 0000.0001)  ploadbar=  1.01107159383190E+05
 cg2d: Sum(rhs),rhsMax =  -8.10886794052080E+01  1.91420078285670E+00
(PID.TID 0000.0001)  ploadbar=  1.01108177938501E+05
 cg2d: Sum(rhs),rhsMax =  -8.08817684465361E+01  1.91926167298930E+00
(PID.TID 0000.0001)  ploadbar=  1.01109196493812E+05
 cg2d: Sum(rhs),rhsMax =  -8.06814048428919E+01  1.92419323172704E+00
(PID.TID 0000.0001)  ploadbar=  1.01110215049123E+05
 cg2d: Sum(rhs),rhsMax =  -8.05020772557059E+01  1.92864550959410E+00
(PID.TID 0000.0001)  ploadbar=  1.01111233604434E+05
 cg2d: Sum(rhs),rhsMax =  -8.03558330853929E+01  1.93231876122371E+00
(PID.TID 0000.0001)  ploadbar=  1.01112252159745E+05
 cg2d: Sum(rhs),rhsMax =  -8.02601110215933E+01  1.93479441510958E+00
(PID.TID 0000.0001)  ploadbar=  1.01113756856212E+05
 cg2d: Sum(rhs),rhsMax =  -8.02074962458459E+01  1.93623829045553E+00
(PID.TID 0000.0001)  ploadbar=  1.01115261552679E+05
 cg2d: Sum(rhs),rhsMax =  -8.01857564039048E+01  1.93693634811391E+00
(PID.TID 0000.0001)  ploadbar=  1.01116766249146E+05
 cg2d: Sum(rhs),rhsMax =  -8.01851004466341E+01  1.93711913296363E+00
(PID.TID 0000.0001)  ploadbar=  1.01118270945613E+05
 cg2d: Sum(rhs),rhsMax =  -8.01959269522099E+01  1.93701482268141E+00
(PID.TID 0000.0001)  ploadbar=  1.01119775642081E+05
 cg2d: Sum(rhs),rhsMax =  -8.02126216072857E+01  1.93675427304594E+00
(PID.TID 0000.0001)  ploadbar=  1.01121280338548E+05
 cg2d: Sum(rhs),rhsMax =  -8.02229823257444E+01  1.93661156772476E+00
(PID.TID 0000.0001)  ploadbar=  1.01122866766253E+05
 cg2d: Sum(rhs),rhsMax =  -8.02326952402323E+01  1.93644833540722E+00
(PID.TID 0000.0001)  ploadbar=  1.01124453193958E+05
 cg2d: Sum(rhs),rhsMax =  -8.02441370836741E+01  1.93620462792530E+00
(PID.TID 0000.0001)  ploadbar=  1.01126039621663E+05
 cg2d: Sum(rhs),rhsMax =  -8.02671487098299E+01  1.93563741647029E+00
(PID.TID 0000.0001)  ploadbar=  1.01127626049368E+05
 cg2d: Sum(rhs),rhsMax =  -8.03115981986210E+01  1.93450596154672E+00
(PID.TID 0000.0001)  ploadbar=  1.01129212477073E+05
 cg2d: Sum(rhs),rhsMax =  -8.03893839693446E+01  1.93252081586021E+00
(PID.TID 0000.0001)  ploadbar=  1.01130798904778E+05
 cg2d: Sum(rhs),rhsMax =  -8.05219038784026E+01  1.92925387413434E+00
(PID.TID 0000.0001)  ploadbar=  1.01132346184771E+05
 cg2d: Sum(rhs),rhsMax =  -8.07242757290972E+01  1.92435521668516E+00
(PID.TID 0000.0001)  ploadbar=  1.01133893464763E+05
 cg2d: Sum(rhs),rhsMax =  -8.10118510879792E+01  1.91748547837129E+00
(PID.TID 0000.0001)  ploadbar=  1.01135440744755E+05
 cg2d: Sum(rhs),rhsMax =  -8.13954646791563E+01  1.90843034377576E+00
(PID.TID 0000.0001)  ploadbar=  1.01136988024747E+05
 cg2d: Sum(rhs),rhsMax =  -8.18790875432319E+01  1.89715804810193E+00
(PID.TID 0000.0001)  ploadbar=  1.01138535304740E+05
 cg2d: Sum(rhs),rhsMax =  -8.24528257565279E+01  1.88397150591705E+00
(PID.TID 0000.0001)  ploadbar=  1.01140082584732E+05
 cg2d: Sum(rhs),rhsMax =  -8.30587685909969E+01  1.87024279663322E+00
(PID.TID 0000.0001)  ploadbar=  1.01140379818495E+05
 cg2d: Sum(rhs),rhsMax =  -8.36396552190213E+01  1.85726739047391E+00
(PID.TID 0000.0001)  ploadbar=  1.01140677052258E+05
 cg2d: Sum(rhs),rhsMax =  -8.41533571851710E+01  1.84594029344588E+00
(PID.TID 0000.0001)  ploadbar=  1.01140974286020E+05
 cg2d: Sum(rhs),rhsMax =  -8.45980258208739E+01  1.83624018822988E+00
(PID.TID 0000.0001)  ploadbar=  1.01141271519783E+05
 cg2d: Sum(rhs),rhsMax =  -8.49870721752908E+01  1.82782581910261E+00
(PID.TID 0000.0001)  ploadbar=  1.01141568753546E+05
 cg2d: Sum(rhs),rhsMax =  -8.53319669193947E+01  1.82041287437881E+00
(PID.TID 0000.0001)  ploadbar=  1.01141865987309E+05
 cg2d: Sum(rhs),rhsMax =  -8.56573373943718E+01  1.81347190268010E+00
(PID.TID 0000.0001)  ploadbar=  1.01141480746920E+05
 cg2d: Sum(rhs),rhsMax =  -8.59821735444516E+01  1.80658953647020E+00
(PID.TID 0000.0001)  ploadbar=  1.01141095506530E+05
 cg2d: Sum(rhs),rhsMax =  -8.63118320373463E+01  1.79965146172705E+00
(PID.TID 0000.0001)  ploadbar=  1.01140710266141E+05
 cg2d: Sum(rhs),rhsMax =  -8.66464963361972E+01  1.79265225051941E+00
(PID.TID 0000.0001)  ploadbar=  1.01140325025752E+05
 cg2d: Sum(rhs),rhsMax =  -8.69774005930250E+01  1.78576679767695E+00
(PID.TID 0000.0001)  ploadbar=  1.01139939785362E+05
 cg2d: Sum(rhs),rhsMax =  -8.71831774392585E+01  1.78146357658587E+00
(PID.TID 0000.0001)  ploadbar=  1.01139554544973E+05
 cg2d: Sum(rhs),rhsMax =  -8.71518122795820E+01  1.78201752226244E+00
(PID.TID 0000.0001)  ploadbar=  1.01139264226588E+05
 cg2d: Sum(rhs),rhsMax =  -8.71589500857821E+01  1.78178445301748E+00
(PID.TID 0000.0001)  ploadbar=  1.01138973908202E+05
 cg2d: Sum(rhs),rhsMax =  -8.72071419496424E+01  1.78070866632076E+00
(PID.TID 0000.0001)  ploadbar=  1.01138683589817E+05
 cg2d: Sum(rhs),rhsMax =  -8.72954295614256E+01  1.77880624823248E+00
(PID.TID 0000.0001)  ploadbar=  1.01138393271431E+05
 cg2d: Sum(rhs),rhsMax =  -8.74270406405995E+01  1.77601242096326E+00
(PID.TID 0000.0001)  ploadbar=  1.01138102953046E+05
 cg2d: Sum(rhs),rhsMax =  -8.76048309724655E+01  1.77227486949167E+00
(PID.TID 0000.0001)  ploadbar=  1.01137812634660E+05
 cg2d: Sum(rhs),rhsMax =  -8.78195503572495E+01  1.76784474719745E+00
(PID.TID 0000.0001)  ploadbar=  1.01137570665798E+05
 cg2d: Sum(rhs),rhsMax =  -8.80604124707584E+01  1.76294443407064E+00
(PID.TID 0000.0001)  ploadbar=  1.01137328696936E+05
 cg2d: Sum(rhs),rhsMax =  -8.80513119546287E+01  1.76308915261691E+00
(PID.TID 0000.0001)  ploadbar=  1.01137086728074E+05
 cg2d: Sum(rhs),rhsMax =  -8.77909825461750E+01  1.76830326005755E+00
(PID.TID 0000.0001)  ploadbar=  1.01136844759211E+05
 cg2d: Sum(rhs),rhsMax =  -8.74473206460321E+01  1.77525738695765E+00
(PID.TID 0000.0001)  ploadbar=  1.01136602790349E+05
 cg2d: Sum(rhs),rhsMax =  -8.70561008425884E+01  1.78325651336001E+00
(PID.TID 0000.0001)  ploadbar=  1.01136360821487E+05
 cg2d: Sum(rhs),rhsMax =  -8.66353146901388E+01  1.79195073538085E+00
(PID.TID 0000.0001)  ploadbar=  1.01135925177493E+05
 cg2d: Sum(rhs),rhsMax =  -8.62307232171336E+01  1.80039757999025E+00
(PID.TID 0000.0001)  ploadbar=  1.01135489533500E+05
 cg2d: Sum(rhs),rhsMax =  -8.58475276033344E+01  1.80847260389884E+00
(PID.TID 0000.0001)  ploadbar=  1.01135053889507E+05
 cg2d: Sum(rhs),rhsMax =  -8.54845012883049E+01  1.81618704539507E+00
(PID.TID 0000.0001)  ploadbar=  1.01134618245514E+05
 cg2d: Sum(rhs),rhsMax =  -8.51363778509598E+01  1.82363752840416E+00
(PID.TID 0000.0001)  ploadbar=  1.01134182601520E+05
 cg2d: Sum(rhs),rhsMax =  -8.47927011033592E+01  1.83103916146276E+00
(PID.TID 0000.0001)  ploadbar=  1.01133746957527E+05
 cg2d: Sum(rhs),rhsMax =  -8.44390728794577E+01  1.83873658013671E+00
(PID.TID 0000.0001)  ploadbar=  1.01132466444807E+05
 cg2d: Sum(rhs),rhsMax =  -8.40843081186425E+01  1.84653594627352E+00
(PID.TID 0000.0001)  ploadbar=  1.01131185932088E+05
 cg2d: Sum(rhs),rhsMax =  -8.37296256398149E+01  1.85441167928481E+00
(PID.TID 0000.0001)  ploadbar=  1.01129905419368E+05
 cg2d: Sum(rhs),rhsMax =  -8.33779010210695E+01  1.86229639548552E+00
(PID.TID 0000.0001)  ploadbar=  1.01128624906648E+05
 cg2d: Sum(rhs),rhsMax =  -8.30341460114062E+01  1.87006916354171E+00
(PID.TID 0000.0001)  ploadbar=  1.01127344393928E+05
 cg2d: Sum(rhs),rhsMax =  -8.27054249158884E+01  1.87756029620307E+00
(PID.TID 0000.0001)  ploadbar=  1.01126063881208E+05
 cg2d: Sum(rhs),rhsMax =  -8.24088749019255E+01  1.88435847256300E+00
(PID.TID 0000.0001)  ploadbar=  1.01126127400098E+05
 cg2d: Sum(rhs),rhsMax =  -8.21481202330062E+01  1.89036349241877E+00
(PID.TID 0000.0001)  ploadbar=  1.01126190918988E+05
 cg2d: Sum(rhs),rhsMax =  -8.19219987365632E+01  1.89558455597164E+00
(PID.TID 0000.0001)  ploadbar=  1.01126254437877E+05
 cg2d: Sum(rhs),rhsMax =  -8.17229365730706E+01  1.90017756926635E+00
(PID.TID 0000.0001)  ploadbar=  1.01126317956767E+05
 cg2d: Sum(rhs),rhsMax =  -8.15458327121970E+01  1.90424505873016E+00
(PID.TID 0000.0001)  ploadbar=  1.01126381475657E+05
 cg2d: Sum(rhs),rhsMax =  -8.13826732718825E+01  1.90796316038483E+00
(PID.TID 0000.0001)  ploadbar=  1.01126444994547E+05
 cg2d: Sum(rhs),rhsMax =  -8.12513097256039E+01  1.91098811581592E+00
(PID.TID 0000.0001)  ploadbar=  1.01125709719917E+05
 cg2d: Sum(rhs),rhsMax =  -8.11178370006313E+01  1.91410672379651E+00
(PID.TID 0000.0001)  ploadbar=  1.01124974445288E+05
 cg2d: Sum(rhs),rhsMax =  -8.09952152415191E+01  1.91700227400462E+00
(PID.TID 0000.0001)  ploadbar=  1.01124239170659E+05
 cg2d: Sum(rhs),rhsMax =  -8.08977198706023E+01  1.91932347023534E+00
(PID.TID 0000.0001)  ploadbar=  1.01123503896029E+05
 cg2d: Sum(rhs),rhsMax =  -8.08396855375928E+01  1.92071939028673E+00
(PID.TID 0000.0001)  ploadbar=  1.01122768621400E+05
 cg2d: Sum(rhs),rhsMax =  -8.08274981369908E+01  1.92102691074097E+00
(PID.TID 0000.0001)  ploadbar=  1.01122033346771E+05
 cg2d: Sum(rhs),rhsMax =  -8.08764559810081E+01  1.91989823043608E+00
(PID.TID 0000.0001)  ploadbar=  1.01120472338312E+05
 cg2d: Sum(rhs),rhsMax =  -8.09882828155120E+01  1.91729441457277E+00
(PID.TID 0000.0001)  ploadbar=  1.01118911329854E+05
 cg2d: Sum(rhs),rhsMax =  -8.11723491267093E+01  1.91300308056983E+00
(PID.TID 0000.0001)  ploadbar=  1.01117350321396E+05
 cg2d: Sum(rhs),rhsMax =  -8.14466401671342E+01  1.90662209620735E+00
(PID.TID 0000.0001)  ploadbar=  1.01115789312938E+05
 cg2d: Sum(rhs),rhsMax =  -8.18134924606671E+01  1.89813509722701E+00
(PID.TID 0000.0001)  ploadbar=  1.01114228304479E+05
 cg2d: Sum(rhs),rhsMax =  -8.22693914026919E+01  1.88767427918884E+00
(PID.TID 0000.0001)  ploadbar=  1.01112667296021E+05
 cg2d: Sum(rhs),rhsMax =  -8.28390705239271E+01  1.87475929476626E+00
(PID.TID 0000.0001)  ploadbar=  1.01111649680713E+05
 cg2d: Sum(rhs),rhsMax =  -8.35069697912719E+01  1.85983551056108E+00
(PID.TID 0000.0001)  ploadbar=  1.01110632065404E+05
 cg2d: Sum(rhs),rhsMax =  -8.42196682182380E+01  1.84416824496922E+00
(PID.TID 0000.0001)  ploadbar=  1.01109614450096E+05
 cg2d: Sum(rhs),rhsMax =  -8.49013137935344E+01  1.82943086095291E+00
(PID.TID 0000.0001)  ploadbar=  1.01108596834788E+05
 cg2d: Sum(rhs),rhsMax =  -8.54875327297689E+01  1.81694544645859E+00
(PID.TID 0000.0001)  ploadbar=  1.01107579219480E+05
 cg2d: Sum(rhs),rhsMax =  -8.59580400154360E+01  1.80704293470109E+00
(PID.TID 0000.0001)  ploadbar=  1.01106561604171E+05
 cg2d: Sum(rhs),rhsMax =  -8.63298400973485E+01  1.79927855096147E+00
(PID.TID 0000.0001)  ploadbar=  1.01106183224004E+05
 cg2d: Sum(rhs),rhsMax =  -8.65807720517547E+01  1.79405424438159E+00
(PID.TID 0000.0001)  ploadbar=  1.01105804843837E+05
 cg2d: Sum(rhs),rhsMax =  -8.66708748750348E+01  1.79214807545372E+00
(PID.TID 0000.0001)  ploadbar=  1.01105426463669E+05
 cg2d: Sum(rhs),rhsMax =  -8.67076382887981E+01  1.79130972244476E+00
(PID.TID 0000.0001)  ploadbar=  1.01105048083502E+05
 cg2d: Sum(rhs),rhsMax =  -8.68449116368993E+01  1.78836087753186E+00
(PID.TID 0000.0001)  ploadbar=  1.01104669703335E+05
 cg2d: Sum(rhs),rhsMax =  -8.71344764893279E+01  1.78225720934284E+00
(PID.TID 0000.0001)  ploadbar=  1.01104291323167E+05
 cg2d: Sum(rhs),rhsMax =  -8.73727368342758E+01  1.77726231629811E+00
(PID.TID 0000.0001)  ploadbar=  1.01103957587280E+05
 cg2d: Sum(rhs),rhsMax =  -8.76579789265712E+01  1.77136528356506E+00
(PID.TID 0000.0001)  ploadbar=  1.01103623851393E+05
 cg2d: Sum(rhs),rhsMax =  -8.79490627097382E+01  1.76540777121556E+00
(PID.TID 0000.0001)  ploadbar=  1.01103290115506E+05
 cg2d: Sum(rhs),rhsMax =  -8.81989350138729E+01  1.76032758904855E+00
(PID.TID 0000.0001)  ploadbar=  1.01102956379618E+05
 cg2d: Sum(rhs),rhsMax =  -8.84026273250577E+01  1.75620679987854E+00
(PID.TID 0000.0001)  ploadbar=  1.01102622643731E+05
 cg2d: Sum(rhs),rhsMax =  -8.85855542322014E+01  1.75252591399939E+00
(PID.TID 0000.0001)  ploadbar=  1.01102288907844E+05
 cg2d: Sum(rhs),rhsMax =  -8.87931348462224E+01  1.74836860546303E+00
(PID.TID 0000.0001)  ploadbar=  1.01101898568095E+05
 cg2d: Sum(rhs),rhsMax =  -8.87642013584791E+01  1.74887046316557E+00
(PID.TID 0000.0001)  ploadbar=  1.01101508228347E+05
 cg2d: Sum(rhs),rhsMax =  -8.84831393427803E+01  1.75434410931207E+00
(PID.TID 0000.0001)  ploadbar=  1.01101117888599E+05
 cg2d: Sum(rhs),rhsMax =  -8.80221497830782E+01  1.76343457161947E+00
(PID.TID 0000.0001)  ploadbar=  1.01100727548851E+05
 cg2d: Sum(rhs),rhsMax =  -8.74988153735285E+01  1.77386556188135E+00
(PID.TID 0000.0001)  ploadbar=  1.01100337209103E+05
 cg2d: Sum(rhs),rhsMax =  -8.69734228582592E+01  1.78444104424010E+00
(PID.TID 0000.0001)  ploadbar=  1.01099946869355E+05
 cg2d: Sum(rhs),rhsMax =  -8.64275897928021E+01  1.79556820376341E+00
(PID.TID 0000.0001)  ploadbar=  1.01099321508883E+05
 cg2d: Sum(rhs),rhsMax =  -8.58788917805741E+01  1.80689203828428E+00
(PID.TID 0000.0001)  ploadbar=  1.01098696148411E+05
 cg2d: Sum(rhs),rhsMax =  -8.52487132577231E+01  1.82009065508760E+00
(PID.TID 0000.0001)  ploadbar=  1.01098070787938E+05
 cg2d: Sum(rhs),rhsMax =  -8.44738868735694E+01  1.83661218003864E+00
(PID.TID 0000.0001)  ploadbar=  1.01097445427466E+05
 cg2d: Sum(rhs),rhsMax =  -8.35587894576100E+01  1.85653430597866E+00
(PID.TID 0000.0001)  ploadbar=  1.01096820066994E+05
 cg2d: Sum(rhs),rhsMax =  -8.25304909858293E+01  1.87944984278207E+00
(PID.TID 0000.0001)  ploadbar=  1.01096194706521E+05
 cg2d: Sum(rhs),rhsMax =  -8.14493962981359E+01  1.90416177510239E+00
(PID.TID 0000.0001)  ploadbar=  1.01095769431838E+05
 cg2d: Sum(rhs),rhsMax =  -8.03713159520665E+01  1.92944787129166E+00
(PID.TID 0000.0001)  ploadbar=  1.01095344157155E+05
 cg2d: Sum(rhs),rhsMax =  -7.93597588785974E+01  1.95375992339653E+00
(PID.TID 0000.0001)  ploadbar=  1.01094918882472E+05
 cg2d: Sum(rhs),rhsMax =  -7.84681498079321E+01  1.97564846177576E+00
(PID.TID 0000.0001)  ploadbar=  1.01094493607789E+05
 cg2d: Sum(rhs),rhsMax =  -7.77358951235720E+01  1.99391533269889E+00
(PID.TID 0000.0001)  ploadbar=  1.01094068333106E+05
 cg2d: Sum(rhs),rhsMax =  -7.71969076365913E+01  2.00745657289037E+00
(PID.TID 0000.0001)  ploadbar=  1.01093643058423E+05
 cg2d: Sum(rhs),rhsMax =  -7.68269065413520E+01  2.01680692516259E+00
(PID.TID 0000.0001)  ploadbar=  1.01092902975532E+05
 cg2d: Sum(rhs),rhsMax =  -7.66319446699532E+01  2.02167882264848E+00
(PID.TID 0000.0001)  ploadbar=  1.01092162892641E+05
 cg2d: Sum(rhs),rhsMax =  -7.66101860923830E+01  2.02205229603695E+00
(PID.TID 0000.0001)  ploadbar=  1.01091422809750E+05
 cg2d: Sum(rhs),rhsMax =  -7.67994543724293E+01  2.01692299871033E+00
(PID.TID 0000.0001)  ploadbar=  1.01090682726860E+05
 cg2d: Sum(rhs),rhsMax =  -7.72240130405370E+01  2.00574174552078E+00
(PID.TID 0000.0001)  ploadbar=  1.01089942643969E+05
 cg2d: Sum(rhs),rhsMax =  -7.79037509545447E+01  1.98819590177585E+00
(PID.TID 0000.0001)  ploadbar=  1.01089202561078E+05
 cg2d: Sum(rhs),rhsMax =  -7.88280564527884E+01  1.96482514078470E+00
(PID.TID 0000.0001)  ploadbar=  1.01088497319894E+05
 cg2d: Sum(rhs),rhsMax =  -8.00068117501832E+01  1.93580182022014E+00
(PID.TID 0000.0001)  ploadbar=  1.01087792078710E+05
 cg2d: Sum(rhs),rhsMax =  -8.14284157072403E+01  1.90191009676706E+00
(PID.TID 0000.0001)  ploadbar=  1.01087086837526E+05
 cg2d: Sum(rhs),rhsMax =  -8.30149636673150E+01  1.86544233367159E+00
(PID.TID 0000.0001)  ploadbar=  1.01086381596342E+05
 cg2d: Sum(rhs),rhsMax =  -8.44389533762671E+01  1.83383866041563E+00
(PID.TID 0000.0001)  ploadbar=  1.01085676355158E+05
 cg2d: Sum(rhs),rhsMax =  -8.57271569327989E+01  1.80611178413148E+00
(PID.TID 0000.0001)  ploadbar=  1.01084971113975E+05
 cg2d: Sum(rhs),rhsMax =  -8.69618010567216E+01  1.78031390224997E+00
(PID.TID 0000.0001)  ploadbar=  1.01084179331509E+05
 cg2d: Sum(rhs),rhsMax =  -8.82166351852825E+01  1.75484358896105E+00
(PID.TID 0000.0001)  ploadbar=  1.01083387549044E+05
 cg2d: Sum(rhs),rhsMax =  -8.94357496357421E+01  1.73078222288599E+00
(PID.TID 0000.0001)  ploadbar=  1.01082595766579E+05
 cg2d: Sum(rhs),rhsMax =  -9.06114962896511E+01  1.70818367276671E+00
(PID.TID 0000.0001)  ploadbar=  1.01081803984114E+05
 cg2d: Sum(rhs),rhsMax =  -9.18197856112509E+01  1.68556293603901E+00
(PID.TID 0000.0001)  ploadbar=  1.01081012201649E+05
 cg2d: Sum(rhs),rhsMax =  -9.34544234560458E+01  1.65593354086554E+00
(PID.TID 0000.0001)  ploadbar=  1.01080220419184E+05
 cg2d: Sum(rhs),rhsMax =  -9.56161463882351E+01  1.61835449321340E+00
(PID.TID 0000.0001)  ploadbar=  1.01078893475254E+05
 cg2d: Sum(rhs),rhsMax =  -9.82367844500683E+01  1.57504677712417E+00
(PID.TID 0000.0001)  ploadbar=  1.01077566531324E+05
 cg2d: Sum(rhs),rhsMax =  -1.00699566024897E+02  1.53639342892468E+00
(PID.TID 0000.0001)  ploadbar=  1.01076239587394E+05
 cg2d: Sum(rhs),rhsMax =  -1.02190688990270E+02  1.51384232366343E+00
(PID.TID 0000.0001)  ploadbar=  1.01074912643464E+05
 cg2d: Sum(rhs),rhsMax =  -1.02434956180862E+02  1.51009406501429E+00
(PID.TID 0000.0001)  ploadbar=  1.01073585699534E+05
 cg2d: Sum(rhs),rhsMax =  -1.01970042407305E+02  1.51683339743743E+00
(PID.TID 0000.0001)  ploadbar=  1.01072258755604E+05
 cg2d: Sum(rhs),rhsMax =  -1.01649028460363E+02  1.52150512913608E+00
(PID.TID 0000.0001)  ploadbar=  1.01071251530683E+05
 cg2d: Sum(rhs),rhsMax =  -1.01569980439423E+02  1.52259597765840E+00
(PID.TID 0000.0001)  ploadbar=  1.01070244305762E+05
 cg2d: Sum(rhs),rhsMax =  -1.01693086716612E+02  1.52068303046047E+00
(PID.TID 0000.0001)  ploadbar=  1.01069237080841E+05
 cg2d: Sum(rhs),rhsMax =  -1.01892238233382E+02  1.51765712510326E+00
(PID.TID 0000.0001)  ploadbar=  1.01068229855920E+05
 cg2d: Sum(rhs),rhsMax =  -1.02034714337865E+02  1.51549950653243E+00
(PID.TID 0000.0001)  ploadbar=  1.01067222630999E+05
 cg2d: Sum(rhs),rhsMax =  -1.02032537520239E+02  1.51550952504340E+00
(PID.TID 0000.0001)  ploadbar=  1.01066215406077E+05
 cg2d: Sum(rhs),rhsMax =  -1.01891929867931E+02  1.51754082455135E+00
(PID.TID 0000.0001)  ploadbar=  1.01064839522011E+05
 cg2d: Sum(rhs),rhsMax =  -1.01653965890093E+02  1.52099205991594E+00
(PID.TID 0000.0001)  ploadbar=  1.01063463637945E+05
 cg2d: Sum(rhs),rhsMax =  -1.01369939896935E+02  1.52510788484492E+00
(PID.TID 0000.0001)  ploadbar=  1.01062087753879E+05
 cg2d: Sum(rhs),rhsMax =  -1.01125728529401E+02  1.52859666905346E+00
(PID.TID 0000.0001)  ploadbar=  1.01060711869813E+05
 cg2d: Sum(rhs),rhsMax =  -1.01001798153226E+02  1.53022468196642E+00
(PID.TID 0000.0001)  ploadbar=  1.01059335985746E+05
 cg2d: Sum(rhs),rhsMax =  -9.80155913319437E+01  1.57653237407561E+00
(PID.TID 0000.0001)  ploadbar=  1.01057960101680E+05
 cg2d: Sum(rhs),rhsMax =  -9.54811354298849E+01  1.61808619629219E+00
(PID.TID 0000.0001)  ploadbar=  1.01057083543256E+05
 cg2d: Sum(rhs),rhsMax =  -9.34021319440279E+01  1.65382655391855E+00
(PID.TID 0000.0001)  ploadbar=  1.01056206984832E+05
 cg2d: Sum(rhs),rhsMax =  -9.17329451768605E+01  1.68365911252408E+00
(PID.TID 0000.0001)  ploadbar=  1.01055330426408E+05
 cg2d: Sum(rhs),rhsMax =  -9.04660027327128E+01  1.70698940292932E+00
(PID.TID 0000.0001)  ploadbar=  1.01054453867984E+05
 cg2d: Sum(rhs),rhsMax =  -8.95458315057478E+01  1.72429100198052E+00
(PID.TID 0000.0001)  ploadbar=  1.01053577309560E+05
 cg2d: Sum(rhs),rhsMax =  -8.89114962718917E+01  1.73635795976349E+00
(PID.TID 0000.0001)  ploadbar=  1.01052700751136E+05
 cg2d: Sum(rhs),rhsMax =  -8.86066781136380E+01  1.74210500434125E+00
(PID.TID 0000.0001)  ploadbar=  1.01053137811517E+05
 cg2d: Sum(rhs),rhsMax =  -8.84852871703767E+01  1.74427401972709E+00
(PID.TID 0000.0001)  ploadbar=  1.01053574871899E+05
 cg2d: Sum(rhs),rhsMax =  -8.84566656782853E+01  1.74462255094738E+00
(PID.TID 0000.0001)  ploadbar=  1.01054011932280E+05
 cg2d: Sum(rhs),rhsMax =  -8.85377325166850E+01  1.74280846000701E+00
(PID.TID 0000.0001)  ploadbar=  1.01054448992661E+05
 cg2d: Sum(rhs),rhsMax =  -8.87550676639610E+01  1.73832089383461E+00
(PID.TID 0000.0001)  ploadbar=  1.01054886053042E+05
 cg2d: Sum(rhs),rhsMax =  -8.91137080441070E+01  1.73110123928008E+00
(PID.TID 0000.0001)  ploadbar=  1.01055323113424E+05
 cg2d: Sum(rhs),rhsMax =  -8.95748780107455E+01  1.72201118375158E+00
(PID.TID 0000.0001)  ploadbar=  1.01055728141227E+05
 cg2d: Sum(rhs),rhsMax =  -9.01396050611067E+01  1.71108601458924E+00
(PID.TID 0000.0001)  ploadbar=  1.01056133169030E+05
 cg2d: Sum(rhs),rhsMax =  -9.07435302730057E+01  1.69959950093872E+00
(PID.TID 0000.0001)  ploadbar=  1.01056538196833E+05
 cg2d: Sum(rhs),rhsMax =  -9.13845585348716E+01  1.68761246160194E+00
(PID.TID 0000.0001)  ploadbar=  1.01056943224636E+05
 cg2d: Sum(rhs),rhsMax =  -9.20638907838796E+01  1.67512644435313E+00
(PID.TID 0000.0001)  ploadbar=  1.01057348252439E+05
 cg2d: Sum(rhs),rhsMax =  -9.27651987768022E+01  1.66245612947885E+00
(PID.TID 0000.0001)  ploadbar=  1.01057753280242E+05
 cg2d: Sum(rhs),rhsMax =  -9.34876354745700E+01  1.64960034102751E+00
(PID.TID 0000.0001)  ploadbar=  1.01058589965601E+05
 cg2d: Sum(rhs),rhsMax =  -9.43558220710692E+01  1.63440858028142E+00
(PID.TID 0000.0001)  ploadbar=  1.01059426650959E+05
 cg2d: Sum(rhs),rhsMax =  -9.54927568148449E+01  1.61492681558289E+00
(PID.TID 0000.0001)  ploadbar=  1.01060263336318E+05
 cg2d: Sum(rhs),rhsMax =  -9.66014432478890E+01  1.59635882238618E+00
(PID.TID 0000.0001)  ploadbar=  1.01061100021676E+05
 cg2d: Sum(rhs),rhsMax =  -9.76640822412212E+01  1.57894154817477E+00
(PID.TID 0000.0001)  ploadbar=  1.01061936707034E+05
 cg2d: Sum(rhs),rhsMax =  -9.86083335840754E+01  1.56375703434998E+00
(PID.TID 0000.0001)  ploadbar=  1.01062773392393E+05
 cg2d: Sum(rhs),rhsMax =  -9.94824174250134E+01  1.54997719485882E+00
(PID.TID 0000.0001)  ploadbar=  1.01063575913474E+05
 cg2d: Sum(rhs),rhsMax =  -1.00260356109804E+02  1.53792785541256E+00
(PID.TID 0000.0001)  ploadbar=  1.01064378434556E+05
 cg2d: Sum(rhs),rhsMax =  -1.00924669201229E+02  1.52779367009273E+00
(PID.TID 0000.0001)  ploadbar=  1.01065180955637E+05
 cg2d: Sum(rhs),rhsMax =  -1.01463773836202E+02  1.51967125903260E+00
(PID.TID 0000.0001)  ploadbar=  1.01065983476719E+05
 cg2d: Sum(rhs),rhsMax =  -1.01955999844238E+02  1.51233293168348E+00
(PID.TID 0000.0001)  ploadbar=  1.01066785997800E+05
 cg2d: Sum(rhs),rhsMax =  -1.02526373064396E+02  1.50391837230412E+00
(PID.TID 0000.0001)  ploadbar=  1.01067588518882E+05
 cg2d: Sum(rhs),rhsMax =  -1.03222104677876E+02  1.49379104154972E+00
(PID.TID 0000.0001)  ploadbar=  1.01069771228039E+05
 cg2d: Sum(rhs),rhsMax =  -1.04040167757821E+02  1.48206087982898E+00
(PID.TID 0000.0001)  ploadbar=  1.01071953937195E+05
 cg2d: Sum(rhs),rhsMax =  -1.04959136735111E+02  1.46910310415868E+00
(PID.TID 0000.0001)  ploadbar=  1.01074136646352E+05
 cg2d: Sum(rhs),rhsMax =  -1.05993910447365E+02  1.45477724194179E+00
(PID.TID 0000.0001)  ploadbar=  1.01076319355508E+05
 cg2d: Sum(rhs),rhsMax =  -1.07356491654361E+02  1.43632342107102E+00
(PID.TID 0000.0001)  ploadbar=  1.01078502064665E+05
 cg2d: Sum(rhs),rhsMax =  -1.09089698210221E+02  1.41350499301560E+00
(PID.TID 0000.0001)  ploadbar=  1.01080684773822E+05
 cg2d: Sum(rhs),rhsMax =  -1.11092221416564E+02  1.38806569094965E+00
(PID.TID 0000.0001)  ploadbar=  1.01082665736174E+05
 cg2d: Sum(rhs),rhsMax =  -1.13630969772782E+02  1.35712824229800E+00
(PID.TID 0000.0001)  ploadbar=  1.01084646698526E+05
 cg2d: Sum(rhs),rhsMax =  -1.16675361666088E+02  1.32181901335550E+00
(PID.TID 0000.0001)  ploadbar=  1.01086627660879E+05
 cg2d: Sum(rhs),rhsMax =  -1.20142636899256E+02  1.28379664591588E+00
(PID.TID 0000.0001)  ploadbar=  1.01088608623231E+05
 cg2d: Sum(rhs),rhsMax =  -1.20307733700728E+02  1.28218155251349E+00
(PID.TID 0000.0001)  ploadbar=  1.01090589585583E+05
 cg2d: Sum(rhs),rhsMax =  -1.19187415178265E+02  1.29439903883017E+00
(PID.TID 0000.0001)  ploadbar=  1.01092570547935E+05
 cg2d: Sum(rhs),rhsMax =  -1.18347212623950E+02  1.30375090485546E+00
(PID.TID 0000.0001)  ploadbar=  1.01094953647880E+05
 cg2d: Sum(rhs),rhsMax =  -1.17870463350322E+02  1.30918109202721E+00
(PID.TID 0000.0001)  ploadbar=  1.01097336747825E+05
 cg2d: Sum(rhs),rhsMax =  -1.17678592211442E+02  1.31146264646685E+00
(PID.TID 0000.0001)  ploadbar=  1.01099719847770E+05
 cg2d: Sum(rhs),rhsMax =  -1.17633610234626E+02  1.31209796555398E+00
(PID.TID 0000.0001)  ploadbar=  1.01102102947715E+05
 cg2d: Sum(rhs),rhsMax =  -1.17366863499433E+02  1.31519883385000E+00
(PID.TID 0000.0001)  ploadbar=  1.01104486047660E+05
 cg2d: Sum(rhs),rhsMax =  -1.15759028438221E+02  1.33356612525784E+00
(PID.TID 0000.0001)  ploadbar=  1.01106869147605E+05
 cg2d: Sum(rhs),rhsMax =  -1.14073924636017E+02  1.35338700989182E+00
(PID.TID 0000.0001)  ploadbar=  1.01107096269921E+05
 cg2d: Sum(rhs),rhsMax =  -1.12362019078576E+02  1.37414531929814E+00
(PID.TID 0000.0001)  ploadbar=  1.01107323392237E+05
 cg2d: Sum(rhs),rhsMax =  -1.10647058954668E+02  1.39559708824154E+00
(PID.TID 0000.0001)  ploadbar=  1.01107550514553E+05
 cg2d: Sum(rhs),rhsMax =  -1.08954441561901E+02  1.41744236561897E+00
(PID.TID 0000.0001)  ploadbar=  1.01107777636869E+05
 cg2d: Sum(rhs),rhsMax =  -1.07321454084597E+02  1.43917933361107E+00
(PID.TID 0000.0001)  ploadbar=  1.01108004759185E+05
 cg2d: Sum(rhs),rhsMax =  -1.05789331883193E+02  1.46019177835490E+00
(PID.TID 0000.0001)  ploadbar=  1.01108231881501E+05
 cg2d: Sum(rhs),rhsMax =  -1.04290819529200E+02  1.48133827947244E+00
(PID.TID 0000.0001)  ploadbar=  1.01107473926622E+05
 cg2d: Sum(rhs),rhsMax =  -1.02770157643937E+02  1.50341516110290E+00
(PID.TID 0000.0001)  ploadbar=  1.01106715971743E+05
 cg2d: Sum(rhs),rhsMax =  -1.01226774387109E+02  1.52648498541787E+00
(PID.TID 0000.0001)  ploadbar=  1.01105958016864E+05
 cg2d: Sum(rhs),rhsMax =  -9.96868227622330E+01  1.55019790021062E+00
(PID.TID 0000.0001)  ploadbar=  1.01105200061985E+05
 cg2d: Sum(rhs),rhsMax =  -9.81714777745890E+01  1.57423777122083E+00
(PID.TID 0000.0001)  ploadbar=  1.01104442107107E+05
 cg2d: Sum(rhs),rhsMax =  -9.66980036390645E+01  1.59831094523954E+00
(PID.TID 0000.0001)  ploadbar=  1.01103684152228E+05
 cg2d: Sum(rhs),rhsMax =  -9.52621110776468E+01  1.62253127756954E+00
(PID.TID 0000.0001)  ploadbar=  1.01103293558000E+05
 cg2d: Sum(rhs),rhsMax =  -9.38794979827355E+01  1.64659892528026E+00
(PID.TID 0000.0001)  ploadbar=  1.01102902963771E+05
 cg2d: Sum(rhs),rhsMax =  -9.25979462387908E+01  1.66959845885139E+00
(PID.TID 0000.0001)  ploadbar=  1.01102512369543E+05
 cg2d: Sum(rhs),rhsMax =  -9.14954978434219E+01  1.68996227959509E+00
(PID.TID 0000.0001)  ploadbar=  1.01102121775315E+05
 cg2d: Sum(rhs),rhsMax =  -9.06666012238905E+01  1.70569094867667E+00
(PID.TID 0000.0001)  ploadbar=  1.01101731181087E+05
 cg2d: Sum(rhs),rhsMax =  -9.01885592837281E+01  1.71503762443697E+00
(PID.TID 0000.0001)  ploadbar=  1.01101340586859E+05
 cg2d: Sum(rhs),rhsMax =  -9.01833520281309E+01  1.71542368029940E+00
(PID.TID 0000.0001)  ploadbar=  1.01100324242943E+05
 cg2d: Sum(rhs),rhsMax =  -9.06169303718594E+01  1.70747993670555E+00
(PID.TID 0000.0001)  ploadbar=  1.01099307899027E+05
 cg2d: Sum(rhs),rhsMax =  -9.12750092113380E+01  1.69539983055301E+00
(PID.TID 0000.0001)  ploadbar=  1.01098291555111E+05
 cg2d: Sum(rhs),rhsMax =  -9.19100226750840E+01  1.68387230944846E+00
(PID.TID 0000.0001)  ploadbar=  1.01097275211196E+05
 cg2d: Sum(rhs),rhsMax =  -9.25068011708734E+01  1.67314505412013E+00
(PID.TID 0000.0001)  ploadbar=  1.01096258867280E+05
 cg2d: Sum(rhs),rhsMax =  -9.30984940386058E+01  1.66258980579646E+00
(PID.TID 0000.0001)  ploadbar=  1.01095242523364E+05
 cg2d: Sum(rhs),rhsMax =  -9.36858586823946E+01  1.65226618855632E+00
(PID.TID 0000.0001)  ploadbar=  1.01094228134144E+05
 cg2d: Sum(rhs),rhsMax =  -9.42615916427933E+01  1.64229011196731E+00
(PID.TID 0000.0001)  ploadbar=  1.01093213744924E+05
 cg2d: Sum(rhs),rhsMax =  -9.48124993978246E+01  1.63287005071789E+00
(PID.TID 0000.0001)  ploadbar=  1.01092199355703E+05
 cg2d: Sum(rhs),rhsMax =  -9.35920121414677E+01  1.65428825724759E+00
(PID.TID 0000.0001)  ploadbar=  1.01091184966483E+05
 cg2d: Sum(rhs),rhsMax =  -9.24316048871061E+01  1.67517641857614E+00
(PID.TID 0000.0001)  ploadbar=  1.01090170577263E+05
 cg2d: Sum(rhs),rhsMax =  -9.14788384308766E+01  1.69273060023958E+00
(PID.TID 0000.0001)  ploadbar=  1.01089156188043E+05
 cg2d: Sum(rhs),rhsMax =  -9.06973960830784E+01  1.70739744132360E+00
(PID.TID 0000.0001)  ploadbar=  1.01087888161960E+05
 cg2d: Sum(rhs),rhsMax =  -9.00552173396059E+01  1.71962894227338E+00
(PID.TID 0000.0001)  ploadbar=  1.01086620135877E+05
 cg2d: Sum(rhs),rhsMax =  -8.95306149661947E+01  1.72972957009332E+00
(PID.TID 0000.0001)  ploadbar=  1.01085352109794E+05
 cg2d: Sum(rhs),rhsMax =  -8.91008824765346E+01  1.73806102885777E+00
(PID.TID 0000.0001)  ploadbar=  1.01084084083711E+05
 cg2d: Sum(rhs),rhsMax =  -8.87438756897550E+01  1.74500487401593E+00
(PID.TID 0000.0001)  ploadbar=  1.01082816057628E+05
 cg2d: Sum(rhs),rhsMax =  -8.84390864380259E+01  1.75093169052589E+00
(PID.TID 0000.0001)  ploadbar=  1.01081548031545E+05
 cg2d: Sum(rhs),rhsMax =  -8.81788940561166E+01  1.75606048871879E+00
(PID.TID 0000.0001)  ploadbar=  1.01081315833012E+05
 cg2d: Sum(rhs),rhsMax =  -8.79469809243109E+01  1.76069915911438E+00
(PID.TID 0000.0001)  ploadbar=  1.01081083634479E+05
 cg2d: Sum(rhs),rhsMax =  -8.77396416664023E+01  1.76491104272650E+00
(PID.TID 0000.0001)  ploadbar=  1.01080851435946E+05
 cg2d: Sum(rhs),rhsMax =  -8.75705655388079E+01  1.76840502631523E+00
(PID.TID 0000.0001)  ploadbar=  1.01080619237413E+05
 cg2d: Sum(rhs),rhsMax =  -8.74545124300791E+01  1.77086932670113E+00
(PID.TID 0000.0001)  ploadbar=  1.01080387038880E+05
 cg2d: Sum(rhs),rhsMax =  -8.74109129908554E+01  1.77189390247172E+00
(PID.TID 0000.0001)  ploadbar=  1.01080154840347E+05
 cg2d: Sum(rhs),rhsMax =  -8.74655941074994E+01  1.77092930359345E+00
(PID.TID 0000.0001)  ploadbar=  1.01079870038218E+05
 cg2d: Sum(rhs),rhsMax =  -8.76519302603853E+01  1.76730579796684E+00
(PID.TID 0000.0001)  ploadbar=  1.01079585236089E+05
 cg2d: Sum(rhs),rhsMax =  -8.79625361545351E+01  1.76120047772345E+00
(PID.TID 0000.0001)  ploadbar=  1.01079300433960E+05
 cg2d: Sum(rhs),rhsMax =  -8.83715439152582E+01  1.75317341983394E+00
(PID.TID 0000.0001)  ploadbar=  1.01079015631832E+05
 cg2d: Sum(rhs),rhsMax =  -8.83165119845453E+01  1.75437524079962E+00
(PID.TID 0000.0001)  ploadbar=  1.01078730829703E+05
 cg2d: Sum(rhs),rhsMax =  -8.77886476306216E+01  1.76501364309025E+00
(PID.TID 0000.0001)  ploadbar=  1.01078446027574E+05
 cg2d: Sum(rhs),rhsMax =  -8.74417943362511E+01  1.77212128173556E+00
(PID.TID 0000.0001)  ploadbar=  1.01077352045043E+05
 cg2d: Sum(rhs),rhsMax =  -8.71916393098983E+01  1.77732581865243E+00
(PID.TID 0000.0001)  ploadbar=  1.01076258062513E+05
 cg2d: Sum(rhs),rhsMax =  -8.69530375449968E+01  1.78233211024309E+00
(PID.TID 0000.0001)  ploadbar=  1.01075164079982E+05
 cg2d: Sum(rhs),rhsMax =  -8.65852431734893E+01  1.79003562917299E+00
(PID.TID 0000.0001)  ploadbar=  1.01074070097451E+05
 cg2d: Sum(rhs),rhsMax =  -8.64371087475230E+01  1.79323385697007E+00
(PID.TID 0000.0001)  ploadbar=  1.01072976114921E+05
 cg2d: Sum(rhs),rhsMax =  -8.67359510627306E+01  1.78717641494506E+00
(PID.TID 0000.0001)  ploadbar=  1.01071882132390E+05
 cg2d: Sum(rhs),rhsMax =  -8.68757172681149E+01  1.78437478697977E+00
(PID.TID 0000.0001)  ploadbar=  1.01071417516979E+05
 cg2d: Sum(rhs),rhsMax =  -8.69908306049349E+01  1.78203832290729E+00
(PID.TID 0000.0001)  ploadbar=  1.01070952901568E+05
 cg2d: Sum(rhs),rhsMax =  -8.70838672465702E+01  1.78010869168397E+00
(PID.TID 0000.0001)  ploadbar=  1.01070488286158E+05
 cg2d: Sum(rhs),rhsMax =  -8.71701384286683E+01  1.77826801253568E+00
(PID.TID 0000.0001)  ploadbar=  1.01070023670747E+05
 cg2d: Sum(rhs),rhsMax =  -8.72674209525538E+01  1.77615287915380E+00
(PID.TID 0000.0001)  ploadbar=  1.01069559055336E+05
 cg2d: Sum(rhs),rhsMax =  -8.73610453712881E+01  1.77406129561533E+00
(PID.TID 0000.0001)  ploadbar=  1.01069094439925E+05
 cg2d: Sum(rhs),rhsMax =  -8.74782936575550E+01  1.77155527132093E+00
(PID.TID 0000.0001)  ploadbar=  1.01068007170967E+05
 cg2d: Sum(rhs),rhsMax =  -8.76741432806155E+01  1.76752483446034E+00
(PID.TID 0000.0001)  ploadbar=  1.01066919902008E+05
 cg2d: Sum(rhs),rhsMax =  -8.79223955763587E+01  1.76251190738573E+00
(PID.TID 0000.0001)  ploadbar=  1.01065832633050E+05
 cg2d: Sum(rhs),rhsMax =  -8.82202063991594E+01  1.75658488519891E+00
(PID.TID 0000.0001)  ploadbar=  1.01064745364091E+05
 cg2d: Sum(rhs),rhsMax =  -8.85811827788584E+01  1.74948954792299E+00
(PID.TID 0000.0001)  ploadbar=  1.01063658095133E+05
 cg2d: Sum(rhs),rhsMax =  -8.89760491089292E+01  1.74182477586774E+00
(PID.TID 0000.0001)  ploadbar=  1.01062570826175E+05
 cg2d: Sum(rhs),rhsMax =  -8.92110466659522E+01  1.73735176849674E+00
(PID.TID 0000.0001)  ploadbar=  1.01061999676642E+05
 cg2d: Sum(rhs),rhsMax =  -8.93397805503762E+01  1.73497578710187E+00
(PID.TID 0000.0001)  ploadbar=  1.01061428527109E+05
 cg2d: Sum(rhs),rhsMax =  -8.94095657148169E+01  1.73375372979231E+00
(PID.TID 0000.0001)  ploadbar=  1.01060857377576E+05
 cg2d: Sum(rhs),rhsMax =  -8.94625283593735E+01  1.73285894917855E+00
(PID.TID 0000.0001)  ploadbar=  1.01060286228042E+05
 cg2d: Sum(rhs),rhsMax =  -8.95024533340667E+01  1.73221168584256E+00
(PID.TID 0000.0001)  ploadbar=  1.01059715078509E+05
 cg2d: Sum(rhs),rhsMax =  -8.95306605091484E+01  1.73178252386090E+00
(PID.TID 0000.0001)  ploadbar=  1.01059143928976E+05
 cg2d: Sum(rhs),rhsMax =  -8.95952882046904E+01  1.73062717576707E+00
(PID.TID 0000.0001)  ploadbar=  1.01058081444773E+05
 cg2d: Sum(rhs),rhsMax =  -8.96491234923152E+01  1.72965576376317E+00
(PID.TID 0000.0001)  ploadbar=  1.01057018960570E+05
 cg2d: Sum(rhs),rhsMax =  -8.97040057143768E+01  1.72863522640180E+00
(PID.TID 0000.0001)  ploadbar=  1.01055956476367E+05
 cg2d: Sum(rhs),rhsMax =  -8.97706868406131E+01  1.72735327605277E+00
(PID.TID 0000.0001)  ploadbar=  1.01054893992164E+05
 cg2d: Sum(rhs),rhsMax =  -8.98512212253902E+01  1.72576672008393E+00
(PID.TID 0000.0001)  ploadbar=  1.01053831507961E+05
 cg2d: Sum(rhs),rhsMax =  -8.99444928282717E+01  1.72389347624652E+00
(PID.TID 0000.0001)  ploadbar=  1.01052769023758E+05
 cg2d: Sum(rhs),rhsMax =  -9.00849661066353E+01  1.72111385658321E+00
(PID.TID 0000.0001)  ploadbar=  1.01052717604141E+05
 cg2d: Sum(rhs),rhsMax =  -9.02312278967599E+01  1.71822204188450E+00
(PID.TID 0000.0001)  ploadbar=  1.01052666184525E+05
 cg2d: Sum(rhs),rhsMax =  -9.03813833172243E+01  1.71525446093670E+00
(PID.TID 0000.0001)  ploadbar=  1.01052614764909E+05
 cg2d: Sum(rhs),rhsMax =  -9.05346248274503E+01  1.71222412147858E+00
(PID.TID 0000.0001)  ploadbar=  1.01052563345292E+05
 cg2d: Sum(rhs),rhsMax =  -9.06919847559593E+01  1.70910772936596E+00
(PID.TID 0000.0001)  ploadbar=  1.01052511925676E+05
 cg2d: Sum(rhs),rhsMax =  -9.08356530995163E+01  1.70623753641914E+00
(PID.TID 0000.0001)  ploadbar=  1.01052460506060E+05
 cg2d: Sum(rhs),rhsMax =  -9.09698507640373E+01  1.70361313731152E+00
(PID.TID 0000.0001)  ploadbar=  1.01054453376066E+05
 cg2d: Sum(rhs),rhsMax =  -9.10918734865278E+01  1.70127700411838E+00
(PID.TID 0000.0001)  ploadbar=  1.01056446246072E+05
 cg2d: Sum(rhs),rhsMax =  -9.11787953032076E+01  1.69964826741307E+00
(PID.TID 0000.0001)  ploadbar=  1.01058439116078E+05
 cg2d: Sum(rhs),rhsMax =  -9.12296096776457E+01  1.69873241718932E+00
(PID.TID 0000.0001)  ploadbar=  1.01060431986084E+05
 cg2d: Sum(rhs),rhsMax =  -9.12550463800383E+01  1.69831858023793E+00
(PID.TID 0000.0001)  ploadbar=  1.01062424856091E+05
 cg2d: Sum(rhs),rhsMax =  -9.12617545293087E+01  1.69827604807249E+00
(PID.TID 0000.0001)  ploadbar=  1.01064417726097E+05
 cg2d: Sum(rhs),rhsMax =  -9.12057381532311E+01  1.69940880940072E+00
(PID.TID 0000.0001)  ploadbar=  1.01065280003619E+05
 cg2d: Sum(rhs),rhsMax =  -9.11589067319717E+01  1.70037482974275E+00
(PID.TID 0000.0001)  ploadbar=  1.01066142281142E+05
 cg2d: Sum(rhs),rhsMax =  -9.11367265216811E+01  1.70088071019708E+00
(PID.TID 0000.0001)  ploadbar=  1.01067004558664E+05
 cg2d: Sum(rhs),rhsMax =  -9.11358902682775E+01  1.70098166851850E+00
(PID.TID 0000.0001)  ploadbar=  1.01067866836186E+05
 cg2d: Sum(rhs),rhsMax =  -9.11550792929471E+01  1.70069850590073E+00
(PID.TID 0000.0001)  ploadbar=  1.01068729113709E+05
 cg2d: Sum(rhs),rhsMax =  -9.11993226548401E+01  1.69993442651342E+00
(PID.TID 0000.0001)  ploadbar=  1.01069591391231E+05
 cg2d: Sum(rhs),rhsMax =  -9.12458451549469E+01  1.69913651119763E+00
(PID.TID 0000.0001)  ploadbar=  1.01070256067289E+05
 cg2d: Sum(rhs),rhsMax =  -9.13140742616214E+01  1.69793988994280E+00
(PID.TID 0000.0001)  ploadbar=  1.01070920743348E+05
 cg2d: Sum(rhs),rhsMax =  -9.13965623290023E+01  1.69648124828732E+00
(PID.TID 0000.0001)  ploadbar=  1.01071585419406E+05
 cg2d: Sum(rhs),rhsMax =  -9.14918136347783E+01  1.69478458822880E+00
(PID.TID 0000.0001)  ploadbar=  1.01072250095464E+05
 cg2d: Sum(rhs),rhsMax =  -9.15959927499307E+01  1.69291829978347E+00
(PID.TID 0000.0001)  ploadbar=  1.01072914771522E+05
 cg2d: Sum(rhs),rhsMax =  -9.17082865588160E+01  1.69089340330084E+00
(PID.TID 0000.0001)  ploadbar=  1.01073579447580E+05
 cg2d: Sum(rhs),rhsMax =  -9.18043427653661E+01  1.68915071896605E+00
(PID.TID 0000.0001)  ploadbar=  1.01073995447196E+05
 cg2d: Sum(rhs),rhsMax =  -9.19105845764182E+01  1.68720108015428E+00
(PID.TID 0000.0001)  ploadbar=  1.01074411446812E+05
 cg2d: Sum(rhs),rhsMax =  -9.20207509362149E+01  1.68515800741378E+00
(PID.TID 0000.0001)  ploadbar=  1.01074827446428E+05
 cg2d: Sum(rhs),rhsMax =  -9.21337904634895E+01  1.68303940309198E+00
(PID.TID 0000.0001)  ploadbar=  1.01075243446045E+05
 cg2d: Sum(rhs),rhsMax =  -9.22503345179089E+01  1.68083258631841E+00
(PID.TID 0000.0001)  ploadbar=  1.01075659445661E+05
 cg2d: Sum(rhs),rhsMax =  -9.23697672538164E+01  1.67854847088422E+00
(PID.TID 0000.0001)  ploadbar=  1.01076075445277E+05
 cg2d: Sum(rhs),rhsMax =  -9.24580620686532E+01  1.67687512752499E+00
(PID.TID 0000.0001)  ploadbar=  1.01076238289868E+05
 cg2d: Sum(rhs),rhsMax =  -9.25497887847949E+01  1.67517996530540E+00
(PID.TID 0000.0001)  ploadbar=  1.01076401134460E+05
 cg2d: Sum(rhs),rhsMax =  -9.26480120057718E+01  1.67340213715965E+00
(PID.TID 0000.0001)  ploadbar=  1.01076563979051E+05
 cg2d: Sum(rhs),rhsMax =  -9.27482240156797E+01  1.67161221595820E+00
(PID.TID 0000.0001)  ploadbar=  1.01076726823643E+05
 cg2d: Sum(rhs),rhsMax =  -9.28559208228089E+01  1.66970418068248E+00
(PID.TID 0000.0001)  ploadbar=  1.01076889668234E+05
 cg2d: Sum(rhs),rhsMax =  -9.29792847232915E+01  1.66752675787663E+00
(PID.TID 0000.0001)  ploadbar=  1.01077052512826E+05
 cg2d: Sum(rhs),rhsMax =  -9.31196105564187E+01  1.66503054961242E+00
(PID.TID 0000.0001)  ploadbar=  1.01077283145712E+05
 cg2d: Sum(rhs),rhsMax =  -9.33134676514846E+01  1.66155982278238E+00
(PID.TID 0000.0001)  ploadbar=  1.01077513778599E+05
 cg2d: Sum(rhs),rhsMax =  -9.35361365130087E+01  1.65755921543639E+00
(PID.TID 0000.0001)  ploadbar=  1.01077744411486E+05
 cg2d: Sum(rhs),rhsMax =  -9.38346231344222E+01  1.65220531540606E+00
(PID.TID 0000.0001)  ploadbar=  1.01077975044373E+05
 cg2d: Sum(rhs),rhsMax =  -9.42098001335038E+01  1.64550387389802E+00
(PID.TID 0000.0001)  ploadbar=  1.01078205677260E+05
 cg2d: Sum(rhs),rhsMax =  -9.46522193037144E+01  1.63764716881776E+00
(PID.TID 0000.0001)  ploadbar=  1.01078436310146E+05
 cg2d: Sum(rhs),rhsMax =  -9.51494252742940E+01  1.62893597400115E+00
(PID.TID 0000.0001)  ploadbar=  1.01078920437520E+05
 cg2d: Sum(rhs),rhsMax =  -9.56791031175806E+01  1.61977302685452E+00
(PID.TID 0000.0001)  ploadbar=  1.01079404564894E+05
 cg2d: Sum(rhs),rhsMax =  -9.62240892154602E+01  1.61045815364135E+00
(PID.TID 0000.0001)  ploadbar=  1.01079888692268E+05
 cg2d: Sum(rhs),rhsMax =  -9.67599793074665E+01  1.60139880133851E+00
(PID.TID 0000.0001)  ploadbar=  1.01080372819642E+05
 cg2d: Sum(rhs),rhsMax =  -9.73010184490085E+01  1.59234876028602E+00
(PID.TID 0000.0001)  ploadbar=  1.01080856947016E+05
 cg2d: Sum(rhs),rhsMax =  -9.78092994959624E+01  1.58391665546214E+00
(PID.TID 0000.0001)  ploadbar=  1.01081341074390E+05
 cg2d: Sum(rhs),rhsMax =  -9.82797069835066E+01  1.57614797156321E+00
(PID.TID 0000.0001)  ploadbar=  1.01081870710104E+05
 cg2d: Sum(rhs),rhsMax =  -9.86860335854760E+01  1.56943697903578E+00
(PID.TID 0000.0001)  ploadbar=  1.01082400345818E+05
 cg2d: Sum(rhs),rhsMax =  -9.89980047386031E+01  1.56423319164594E+00
(PID.TID 0000.0001)  ploadbar=  1.01082929981531E+05
 cg2d: Sum(rhs),rhsMax =  -9.92168271027250E+01  1.56048565271397E+00
(PID.TID 0000.0001)  ploadbar=  1.01083459617245E+05
 cg2d: Sum(rhs),rhsMax =  -9.93418222679029E+01  1.55818129136795E+00
(PID.TID 0000.0001)  ploadbar=  1.01083989252958E+05
 cg2d: Sum(rhs),rhsMax =  -9.93831919396900E+01  1.55714671326631E+00
(PID.TID 0000.0001)  ploadbar=  1.01084518888672E+05
 cg2d: Sum(rhs),rhsMax =  -9.94277908989958E+01  1.55610056289245E+00
(PID.TID 0000.0001)  ploadbar=  1.01085528399222E+05
 cg2d: Sum(rhs),rhsMax =  -9.94430143692896E+01  1.55554947272076E+00
(PID.TID 0000.0001)  ploadbar=  1.01086537909772E+05
 cg2d: Sum(rhs),rhsMax =  -9.94612473146420E+01  1.55498070101421E+00
(PID.TID 0000.0001)  ploadbar=  1.01087547420321E+05
 cg2d: Sum(rhs),rhsMax =  -9.95238113670053E+01  1.55373854382577E+00
(PID.TID 0000.0001)  ploadbar=  1.01088556930871E+05
 cg2d: Sum(rhs),rhsMax =  -9.96230036122727E+01  1.55193733123954E+00
(PID.TID 0000.0001)  ploadbar=  1.01089566441421E+05
 cg2d: Sum(rhs),rhsMax =  -9.94260485650039E+01  1.55476448367224E+00
(PID.TID 0000.0001)  ploadbar=  1.01090575951971E+05
 cg2d: Sum(rhs),rhsMax =  -9.93773733932830E+01  1.55528650146077E+00
(PID.TID 0000.0001)  ploadbar=  1.01089720497563E+05
 cg2d: Sum(rhs),rhsMax =  -9.95159143489575E+01  1.55288692689328E+00
(PID.TID 0000.0001)  ploadbar=  1.01088865043155E+05
 cg2d: Sum(rhs),rhsMax =  -9.96290078751807E+01  1.55088918257969E+00
(PID.TID 0000.0001)  ploadbar=  1.01088009588747E+05
 cg2d: Sum(rhs),rhsMax =  -9.97725425645003E+01  1.54841977612199E+00
(PID.TID 0000.0001)  ploadbar=  1.01087154134339E+05
 cg2d: Sum(rhs),rhsMax =  -9.99252593611454E+01  1.54580826388181E+00
(PID.TID 0000.0001)  ploadbar=  1.01086298679930E+05
 cg2d: Sum(rhs),rhsMax =  -1.00070875652734E+02  1.54330120521236E+00
(PID.TID 0000.0001)  ploadbar=  1.01085443225522E+05
 cg2d: Sum(rhs),rhsMax =  -1.00270320464985E+02  1.53998099789124E+00
(PID.TID 0000.0001)  ploadbar=  1.01085818707880E+05
 cg2d: Sum(rhs),rhsMax =  -1.00483175663572E+02  1.53647179725097E+00
(PID.TID 0000.0001)  ploadbar=  1.01086194190238E+05
 cg2d: Sum(rhs),rhsMax =  -1.00718076480644E+02  1.53264102886775E+00
(PID.TID 0000.0001)  ploadbar=  1.01086569672595E+05
 cg2d: Sum(rhs),rhsMax =  -1.00989072739583E+02  1.52827572610982E+00
(PID.TID 0000.0001)  ploadbar=  1.01086945154953E+05
 cg2d: Sum(rhs),rhsMax =  -1.01302797313874E+02  1.52328161025243E+00
(PID.TID 0000.0001)  ploadbar=  1.01087320637310E+05
 cg2d: Sum(rhs),rhsMax =  -1.01656688765382E+02  1.51770401761422E+00
(PID.TID 0000.0001)  ploadbar=  1.01087696119668E+05
 cg2d: Sum(rhs),rhsMax =  -1.02090161720904E+02  1.51097112897701E+00
(PID.TID 0000.0001)  ploadbar=  1.01088959518954E+05
 cg2d: Sum(rhs),rhsMax =  -1.02559328466853E+02  1.50375387627032E+00
(PID.TID 0000.0001)  ploadbar=  1.01090222918240E+05
 cg2d: Sum(rhs),rhsMax =  -1.03033836981680E+02  1.49650439762511E+00
(PID.TID 0000.0001)  ploadbar=  1.01091486317526E+05
 cg2d: Sum(rhs),rhsMax =  -1.03490780608222E+02  1.48955143867915E+00
(PID.TID 0000.0001)  ploadbar=  1.01092749716812E+05
 cg2d: Sum(rhs),rhsMax =  -1.03913492936530E+02  1.48312310876176E+00
(PID.TID 0000.0001)  ploadbar=  1.01094013116098E+05
 cg2d: Sum(rhs),rhsMax =  -1.04290443731913E+02  1.47736710242976E+00
(PID.TID 0000.0001)  ploadbar=  1.01095276515384E+05
 cg2d: Sum(rhs),rhsMax =  -1.04654069636460E+02  1.47188683983245E+00
(PID.TID 0000.0001)  ploadbar=  1.01095807395800E+05
 cg2d: Sum(rhs),rhsMax =  -1.04966722244322E+02  1.46719897173721E+00
(PID.TID 0000.0001)  ploadbar=  1.01096338276217E+05
 cg2d: Sum(rhs),rhsMax =  -1.05235826765683E+02  1.46318200839330E+00
(PID.TID 0000.0001)  ploadbar=  1.01096869156634E+05
 cg2d: Sum(rhs),rhsMax =  -1.05462605454872E+02  1.45980418957706E+00
(PID.TID 0000.0001)  ploadbar=  1.01097400037050E+05
 cg2d: Sum(rhs),rhsMax =  -1.05656722651787E+02  1.45692250263512E+00
(PID.TID 0000.0001)  ploadbar=  1.01097930917467E+05
 cg2d: Sum(rhs),rhsMax =  -1.05831410808802E+02  1.45434430041364E+00
(PID.TID 0000.0001)  ploadbar=  1.01098461797884E+05
 cg2d: Sum(rhs),rhsMax =  -1.06066518925735E+02  1.45096062354564E+00
(PID.TID 0000.0001)  ploadbar=  1.01098579509595E+05
 cg2d: Sum(rhs),rhsMax =  -1.06351097555737E+02  1.44692802543564E+00
(PID.TID 0000.0001)  ploadbar=  1.01098697221307E+05
 cg2d: Sum(rhs),rhsMax =  -1.06732778636459E+02  1.44160860795328E+00
(PID.TID 0000.0001)  ploadbar=  1.01098814933018E+05
 cg2d: Sum(rhs),rhsMax =  -1.07225855227638E+02  1.43483561730266E+00
(PID.TID 0000.0001)  ploadbar=  1.01098932644730E+05
 cg2d: Sum(rhs),rhsMax =  -1.07828531488720E+02  1.42667105955802E+00
(PID.TID 0000.0001)  ploadbar=  1.01099050356441E+05
 cg2d: Sum(rhs),rhsMax =  -1.08630300597309E+02  1.41599007533747E+00
(PID.TID 0000.0001)  ploadbar=  1.01099168068153E+05
 cg2d: Sum(rhs),rhsMax =  -1.09616776540467E+02  1.40308963591345E+00
(PID.TID 0000.0001)  ploadbar=  1.01099116729285E+05
 cg2d: Sum(rhs),rhsMax =  -1.10845813745410E+02  1.38736625979363E+00
(PID.TID 0000.0001)  ploadbar=  1.01099065390416E+05
 cg2d: Sum(rhs),rhsMax =  -1.12264005046255E+02  1.36966284089076E+00
(PID.TID 0000.0001)  ploadbar=  1.01099014051548E+05
 cg2d: Sum(rhs),rhsMax =  -1.13872297321252E+02  1.35012594559894E+00
(PID.TID 0000.0001)  ploadbar=  1.01098962712680E+05
 cg2d: Sum(rhs),rhsMax =  -1.15664286046109E+02  1.32899776997062E+00
(PID.TID 0000.0001)  ploadbar=  1.01098911373812E+05
 cg2d: Sum(rhs),rhsMax =  -1.17616947754799E+02  1.30670165806931E+00
(PID.TID 0000.0001)  ploadbar=  1.01098860034944E+05
 cg2d: Sum(rhs),rhsMax =  -1.19579689294006E+02  1.28501198589506E+00
(PID.TID 0000.0001)  ploadbar=  1.01098438579943E+05
 cg2d: Sum(rhs),rhsMax =  -1.21636062875703E+02  1.26303534108783E+00
(PID.TID 0000.0001)  ploadbar=  1.01098017124942E+05
 cg2d: Sum(rhs),rhsMax =  -1.23742711636066E+02  1.24126867931266E+00
(PID.TID 0000.0001)  ploadbar=  1.01097595669941E+05
 cg2d: Sum(rhs),rhsMax =  -1.25899986135590E+02  1.21972135684552E+00
(PID.TID 0000.0001)  ploadbar=  1.01097174214940E+05
 cg2d: Sum(rhs),rhsMax =  -1.28103533064695E+02  1.19844592076431E+00
(PID.TID 0000.0001)  ploadbar=  1.01096752759939E+05
 cg2d: Sum(rhs),rhsMax =  -1.30312296800345E+02  1.17781973259734E+00
(PID.TID 0000.0001)  ploadbar=  1.01096331304938E+05
 cg2d: Sum(rhs),rhsMax =  -1.32349129178353E+02  1.15942068473775E+00
(PID.TID 0000.0001)  ploadbar=  1.01096592513568E+05
 cg2d: Sum(rhs),rhsMax =  -1.34155752783844E+02  1.14356936759500E+00
(PID.TID 0000.0001)  ploadbar=  1.01096853722198E+05
 cg2d: Sum(rhs),rhsMax =  -1.35631676153892E+02  1.13092048998415E+00
(PID.TID 0000.0001)  ploadbar=  1.01097114930828E+05
 cg2d: Sum(rhs),rhsMax =  -1.36735495041146E+02  1.12161551827714E+00
(PID.TID 0000.0001)  ploadbar=  1.01097376139458E+05
 cg2d: Sum(rhs),rhsMax =  -1.37437603438023E+02  1.11573278042488E+00
(PID.TID 0000.0001)  ploadbar=  1.01097637348087E+05
 cg2d: Sum(rhs),rhsMax =  -1.37721223479972E+02  1.11330233236537E+00
(PID.TID 0000.0001)  ploadbar=  1.01097898556717E+05
 cg2d: Sum(rhs),rhsMax =  -1.36857748034092E+02  1.12018228664581E+00
(PID.TID 0000.0001)  ploadbar=  1.01097745152400E+05
 cg2d: Sum(rhs),rhsMax =  -1.36137793991598E+02  1.12594742250999E+00
(PID.TID 0000.0001)  ploadbar=  1.01097591748082E+05
 cg2d: Sum(rhs),rhsMax =  -1.36099172279233E+02  1.12609151122610E+00
(PID.TID 0000.0001)  ploadbar=  1.01097438343765E+05
 cg2d: Sum(rhs),rhsMax =  -1.36325529268348E+02  1.12402861937713E+00
(PID.TID 0000.0001)  ploadbar=  1.01097284939448E+05
 cg2d: Sum(rhs),rhsMax =  -1.36195640111552E+02  1.12488653570628E+00
(PID.TID 0000.0001)  ploadbar=  1.01097131535130E+05
 cg2d: Sum(rhs),rhsMax =  -1.35918267165679E+02  1.12694295040407E+00
(PID.TID 0000.0001)  ploadbar=  1.01096978130813E+05
 cg2d: Sum(rhs),rhsMax =  -1.33353173047326E+02  1.14838373986046E+00
(PID.TID 0000.0001)  ploadbar=  1.01097030764183E+05
 cg2d: Sum(rhs),rhsMax =  -1.29988583760222E+02  1.17787024923191E+00
(PID.TID 0000.0001)  ploadbar=  1.01097083397553E+05
 cg2d: Sum(rhs),rhsMax =  -1.26679079403842E+02  1.20839977624481E+00
(PID.TID 0000.0001)  ploadbar=  1.01097136030923E+05
 cg2d: Sum(rhs),rhsMax =  -1.23605922986001E+02  1.23819321015322E+00
(PID.TID 0000.0001)  ploadbar=  1.01097188664293E+05
 cg2d: Sum(rhs),rhsMax =  -1.21051203006326E+02  1.26406361024804E+00
(PID.TID 0000.0001)  ploadbar=  1.01097241297663E+05
 cg2d: Sum(rhs),rhsMax =  -1.18774565879418E+02  1.28801686452932E+00
(PID.TID 0000.0001)  ploadbar=  1.01097293931033E+05
 cg2d: Sum(rhs),rhsMax =  -1.16952532561849E+02  1.30779992278271E+00
(PID.TID 0000.0001)  ploadbar=  1.01097405293372E+05
 cg2d: Sum(rhs),rhsMax =  -1.15040269647962E+02  1.32924587204384E+00
(PID.TID 0000.0001)  ploadbar=  1.01097516655711E+05
 cg2d: Sum(rhs),rhsMax =  -1.13164705565466E+02  1.35097180208880E+00
(PID.TID 0000.0001)  ploadbar=  1.01097628018049E+05
 cg2d: Sum(rhs),rhsMax =  -1.11379899698176E+02  1.37230211292211E+00
(PID.TID 0000.0001)  ploadbar=  1.01097739380388E+05
 cg2d: Sum(rhs),rhsMax =  -1.09695433004707E+02  1.39303997807797E+00
(PID.TID 0000.0001)  ploadbar=  1.01097850742727E+05
 cg2d: Sum(rhs),rhsMax =  -1.08108820822729E+02  1.41312691929493E+00
(PID.TID 0000.0001)  ploadbar=  1.01097962105066E+05
 cg2d: Sum(rhs),rhsMax =  -1.06404391103075E+02  1.43545495787564E+00
(PID.TID 0000.0001)  ploadbar=  1.01098225304882E+05
 cg2d: Sum(rhs),rhsMax =  -1.04702621300572E+02  1.45852488101341E+00
(PID.TID 0000.0001)  ploadbar=  1.01098488504698E+05
 cg2d: Sum(rhs),rhsMax =  -1.03044008408231E+02  1.48178097592497E+00
(PID.TID 0000.0001)  ploadbar=  1.01098751704514E+05
 cg2d: Sum(rhs),rhsMax =  -1.01429362824109E+02  1.50518370301518E+00
(PID.TID 0000.0001)  ploadbar=  1.01099014904330E+05
 cg2d: Sum(rhs),rhsMax =  -9.98442423356920E+01  1.52892470719483E+00
(PID.TID 0000.0001)  ploadbar=  1.01099278104145E+05
 cg2d: Sum(rhs),rhsMax =  -9.82987580398802E+01  1.55283334062343E+00
(PID.TID 0000.0001)  ploadbar=  1.01099541303961E+05
 cg2d: Sum(rhs),rhsMax =  -9.68766620654699E+01  1.57549458139889E+00
(PID.TID 0000.0001)  ploadbar=  1.01100018911369E+05
 cg2d: Sum(rhs),rhsMax =  -9.56489710663422E+01  1.59558011870483E+00
(PID.TID 0000.0001)  ploadbar=  1.01100496518776E+05
 cg2d: Sum(rhs),rhsMax =  -9.46380890860201E+01  1.61248284748661E+00
(PID.TID 0000.0001)  ploadbar=  1.01100974126184E+05
 cg2d: Sum(rhs),rhsMax =  -9.38161766259126E+01  1.62646363839510E+00
(PID.TID 0000.0001)  ploadbar=  1.01101451733591E+05
 cg2d: Sum(rhs),rhsMax =  -9.31712885918360E+01  1.63756544670707E+00
(PID.TID 0000.0001)  ploadbar=  1.01101929340998E+05
 cg2d: Sum(rhs),rhsMax =  -9.26923768298632E+01  1.64585373394558E+00
(PID.TID 0000.0001)  ploadbar=  1.01102406948406E+05
 cg2d: Sum(rhs),rhsMax =  -9.26247574171149E+01  1.64687470720698E+00
(PID.TID 0000.0001)  ploadbar=  1.01103175578019E+05
 cg2d: Sum(rhs),rhsMax =  -9.26734393557579E+01  1.64581594690526E+00
(PID.TID 0000.0001)  ploadbar=  1.01103944207633E+05
 cg2d: Sum(rhs),rhsMax =  -9.28077114110698E+01  1.64322590941453E+00
(PID.TID 0000.0001)  ploadbar=  1.01104712837247E+05
 cg2d: Sum(rhs),rhsMax =  -9.30233770627061E+01  1.63918947633563E+00
(PID.TID 0000.0001)  ploadbar=  1.01105481466860E+05
 cg2d: Sum(rhs),rhsMax =  -9.33010830372465E+01  1.63406405333840E+00
(PID.TID 0000.0001)  ploadbar=  1.01106250096474E+05
 cg2d: Sum(rhs),rhsMax =  -9.36178639383511E+01  1.62826663433083E+00
(PID.TID 0000.0001)  ploadbar=  1.01107018726088E+05
 cg2d: Sum(rhs),rhsMax =  -9.39338989803510E+01  1.62252188874426E+00
(PID.TID 0000.0001)  ploadbar=  1.01107965561296E+05
 cg2d: Sum(rhs),rhsMax =  -9.42562737995440E+01  1.61670394161718E+00
(PID.TID 0000.0001)  ploadbar=  1.01108912396504E+05
 cg2d: Sum(rhs),rhsMax =  -9.45304594094308E+01  1.61174006668377E+00
(PID.TID 0000.0001)  ploadbar=  1.01109859231712E+05
 cg2d: Sum(rhs),rhsMax =  -9.47731031271288E+01  1.60732862239043E+00
(PID.TID 0000.0001)  ploadbar=  1.01110806066920E+05
 cg2d: Sum(rhs),rhsMax =  -9.49936449907443E+01  1.60329618778295E+00
(PID.TID 0000.0001)  ploadbar=  1.01111752902128E+05
 cg2d: Sum(rhs),rhsMax =  -9.51822351019057E+01  1.59979836188334E+00
(PID.TID 0000.0001)  ploadbar=  1.01112699737336E+05
 cg2d: Sum(rhs),rhsMax =  -9.53501991031449E+01  1.59673937206048E+00
(PID.TID 0000.0001)  ploadbar=  1.01113436719646E+05
 cg2d: Sum(rhs),rhsMax =  -9.54973595563798E+01  1.59411170477125E+00
(PID.TID 0000.0001)  ploadbar=  1.01114173701956E+05
 cg2d: Sum(rhs),rhsMax =  -9.56114816729386E+01  1.59210944219651E+00
(PID.TID 0000.0001)  ploadbar=  1.01114910684265E+05
 cg2d: Sum(rhs),rhsMax =  -9.56754495611275E+01  1.59100400124170E+00
(PID.TID 0000.0001)  ploadbar=  1.01115647666575E+05
 cg2d: Sum(rhs),rhsMax =  -9.57060618227242E+01  1.59050603987239E+00
(PID.TID 0000.0001)  ploadbar=  1.01116384648885E+05
 cg2d: Sum(rhs),rhsMax =  -9.60939614125073E+01  1.58414095064351E+00
(PID.TID 0000.0001)  ploadbar=  1.01117121631194E+05
 cg2d: Sum(rhs),rhsMax =  -9.62767280060471E+01  1.58120121895321E+00
(PID.TID 0000.0001)  ploadbar=  1.01117122963279E+05
 cg2d: Sum(rhs),rhsMax =  -9.63739678827845E+01  1.57968335464871E+00
(PID.TID 0000.0001)  ploadbar=  1.01117124295363E+05
 cg2d: Sum(rhs),rhsMax =  -9.63476188120129E+01  1.58019824934706E+00
(PID.TID 0000.0001)  ploadbar=  1.01117125627448E+05
 cg2d: Sum(rhs),rhsMax =  -9.61868410789400E+01  1.58292542214035E+00
(PID.TID 0000.0001)  ploadbar=  1.01117126959532E+05
 cg2d: Sum(rhs),rhsMax =  -9.59027866808272E+01  1.58769573042913E+00
(PID.TID 0000.0001)  ploadbar=  1.01117128291616E+05
 cg2d: Sum(rhs),rhsMax =  -9.55987910481101E+01  1.59281606920358E+00
(PID.TID 0000.0001)  ploadbar=  1.01117129623701E+05
 cg2d: Sum(rhs),rhsMax =  -9.53919092073277E+01  1.59635895891386E+00
(PID.TID 0000.0001)  ploadbar=  1.01116641950636E+05
 cg2d: Sum(rhs),rhsMax =  -9.52595523372111E+01  1.59867686903781E+00
(PID.TID 0000.0001)  ploadbar=  1.01116154277571E+05
 cg2d: Sum(rhs),rhsMax =  -9.51810704853142E+01  1.60010425413251E+00
(PID.TID 0000.0001)  ploadbar=  1.01115666604507E+05
 cg2d: Sum(rhs),rhsMax =  -9.51756951435378E+01  1.60030890481860E+00
(PID.TID 0000.0001)  ploadbar=  1.01115178931442E+05
 cg2d: Sum(rhs),rhsMax =  -9.52495909265741E+01  1.59918325521198E+00
(PID.TID 0000.0001)  ploadbar=  1.01114691258377E+05
 cg2d: Sum(rhs),rhsMax =  -9.54082867629902E+01  1.59663388785991E+00
(PID.TID 0000.0001)  ploadbar=  1.01114203585312E+05
 cg2d: Sum(rhs),rhsMax =  -9.56484043448829E+01  1.59272015351741E+00
(PID.TID 0000.0001)  ploadbar=  1.01114232531144E+05
 cg2d: Sum(rhs),rhsMax =  -9.59352036086988E+01  1.58803457043195E+00
(PID.TID 0000.0001)  ploadbar=  1.01114261476976E+05
 cg2d: Sum(rhs),rhsMax =  -9.62641095524854E+01  1.58266224914107E+00
(PID.TID 0000.0001)  ploadbar=  1.01114290422808E+05
 cg2d: Sum(rhs),rhsMax =  -9.66618904777251E+01  1.57617622471141E+00
(PID.TID 0000.0001)  ploadbar=  1.01114319368640E+05
 cg2d: Sum(rhs),rhsMax =  -9.71261251986526E+01  1.56864034962522E+00
(PID.TID 0000.0001)  ploadbar=  1.01114348314472E+05
 cg2d: Sum(rhs),rhsMax =  -9.76323186815791E+01  1.56047006770574E+00
(PID.TID 0000.0001)  ploadbar=  1.01114377260304E+05
 cg2d: Sum(rhs),rhsMax =  -9.81603227621465E+01  1.55205719404227E+00
(PID.TID 0000.0001)  ploadbar=  1.01113985553737E+05
 cg2d: Sum(rhs),rhsMax =  -9.86937369819276E+01  1.54365970283254E+00
(PID.TID 0000.0001)  ploadbar=  1.01113593847171E+05
 cg2d: Sum(rhs),rhsMax =  -9.92020090505838E+01  1.53574733181592E+00
(PID.TID 0000.0001)  ploadbar=  1.01113202140605E+05
 cg2d: Sum(rhs),rhsMax =  -9.96743715229423E+01  1.52846507474241E+00
(PID.TID 0000.0001)  ploadbar=  1.01112810434038E+05
 cg2d: Sum(rhs),rhsMax =  -1.00107900602698E+02  1.52183581618860E+00
(PID.TID 0000.0001)  ploadbar=  1.01112418727472E+05
 cg2d: Sum(rhs),rhsMax =  -1.00498333626883E+02  1.51590601720329E+00
(PID.TID 0000.0001)  ploadbar=  1.01112027020905E+05
 cg2d: Sum(rhs),rhsMax =  -1.00841854077518E+02  1.51073340920638E+00
(PID.TID 0000.0001)  ploadbar=  1.01111889678910E+05
 cg2d: Sum(rhs),rhsMax =  -1.01185435800792E+02  1.50559954592903E+00
(PID.TID 0000.0001)  ploadbar=  1.01111752336914E+05
 cg2d: Sum(rhs),rhsMax =  -1.01565479198140E+02  1.49996019855913E+00
(PID.TID 0000.0001)  ploadbar=  1.01111614994918E+05
 cg2d: Sum(rhs),rhsMax =  -1.01999201532983E+02  1.49356893933106E+00
(PID.TID 0000.0001)  ploadbar=  1.01111477652923E+05
 cg2d: Sum(rhs),rhsMax =  -1.02531871268285E+02  1.48578473418083E+00
(PID.TID 0000.0001)  ploadbar=  1.01111340310927E+05
 cg2d: Sum(rhs),rhsMax =  -1.03133795338138E+02  1.47707111493767E+00
(PID.TID 0000.0001)  ploadbar=  1.01111202968931E+05
 cg2d: Sum(rhs),rhsMax =  -1.03787808842418E+02  1.46773315456644E+00
(PID.TID 0000.0001)  ploadbar=  1.01111482667599E+05
 cg2d: Sum(rhs),rhsMax =  -1.04452514082697E+02  1.45837206769386E+00
(PID.TID 0000.0001)  ploadbar=  1.01111762366267E+05
 cg2d: Sum(rhs),rhsMax =  -1.05110387056756E+02  1.44923099032905E+00
(PID.TID 0000.0001)  ploadbar=  1.01112042064935E+05
 cg2d: Sum(rhs),rhsMax =  -1.05728034328150E+02  1.44075409345959E+00
(PID.TID 0000.0001)  ploadbar=  1.01112321763603E+05
 cg2d: Sum(rhs),rhsMax =  -1.06284035244773E+02  1.43320128227506E+00
(PID.TID 0000.0001)  ploadbar=  1.01112601462271E+05
 cg2d: Sum(rhs),rhsMax =  -1.06774315622528E+02  1.42659376658901E+00
(PID.TID 0000.0001)  ploadbar=  1.01112881160939E+05
 cg2d: Sum(rhs),rhsMax =  -1.07165748729937E+02  1.42134645987500E+00
(PID.TID 0000.0001)  ploadbar=  1.01112951091744E+05
 cg2d: Sum(rhs),rhsMax =  -1.07521431914213E+02  1.41659424328171E+00
(PID.TID 0000.0001)  ploadbar=  1.01113021022550E+05
 cg2d: Sum(rhs),rhsMax =  -1.07864363280266E+02  1.41202053070645E+00
(PID.TID 0000.0001)  ploadbar=  1.01113090953355E+05
 cg2d: Sum(rhs),rhsMax =  -1.08201025577987E+02  1.40753310514402E+00
(PID.TID 0000.0001)  ploadbar=  1.01113160884161E+05
 cg2d: Sum(rhs),rhsMax =  -1.08537280302247E+02  1.40305211498377E+00
(PID.TID 0000.0001)  ploadbar=  1.01113230814966E+05
 cg2d: Sum(rhs),rhsMax =  -1.08878643009444E+02  1.39850349222574E+00
(PID.TID 0000.0001)  ploadbar=  1.01113300745772E+05
 cg2d: Sum(rhs),rhsMax =  -1.09209271336089E+02  1.39414133911307E+00
(PID.TID 0000.0001)  ploadbar=  1.01113844686936E+05
 cg2d: Sum(rhs),rhsMax =  -1.09518261765325E+02  1.39009472215625E+00
(PID.TID 0000.0001)  ploadbar=  1.01114388628099E+05
 cg2d: Sum(rhs),rhsMax =  -1.09807521137775E+02  1.38632914324561E+00
(PID.TID 0000.0001)  ploadbar=  1.01114932569263E+05
 cg2d: Sum(rhs),rhsMax =  -1.10052671597240E+02  1.38314292833212E+00
(PID.TID 0000.0001)  ploadbar=  1.01115476510427E+05
 cg2d: Sum(rhs),rhsMax =  -1.09425255217915E+02  1.39097697636865E+00
(PID.TID 0000.0001)  ploadbar=  1.01116020451591E+05
 cg2d: Sum(rhs),rhsMax =  -1.08876465116065E+02  1.39789021225766E+00
(PID.TID 0000.0001)  ploadbar=  1.01116564392755E+05
 cg2d: Sum(rhs),rhsMax =  -1.08513837160705E+02  1.40247558886123E+00
(PID.TID 0000.0001)  ploadbar=  1.01116804288715E+05
 cg2d: Sum(rhs),rhsMax =  -1.08248468198123E+02  1.40583440527605E+00
(PID.TID 0000.0001)  ploadbar=  1.01117044184675E+05
 cg2d: Sum(rhs),rhsMax =  -1.08039300655814E+02  1.40847778379253E+00
(PID.TID 0000.0001)  ploadbar=  1.01117284080635E+05
 cg2d: Sum(rhs),rhsMax =  -1.07817382482378E+02  1.41129278643476E+00
(PID.TID 0000.0001)  ploadbar=  1.01117523976594E+05
 cg2d: Sum(rhs),rhsMax =  -1.07502186156888E+02  1.41533675982569E+00
(PID.TID 0000.0001)  ploadbar=  1.01117763872554E+05
 cg2d: Sum(rhs),rhsMax =  -1.07015939560634E+02  1.42165942719975E+00
(PID.TID 0000.0001)  ploadbar=  1.01118003768514E+05
 cg2d: Sum(rhs),rhsMax =  -1.06371857397323E+02  1.43015786219870E+00
(PID.TID 0000.0001)  ploadbar=  1.01118866881880E+05
 cg2d: Sum(rhs),rhsMax =  -1.05604674138129E+02  1.44043061456907E+00
(PID.TID 0000.0001)  ploadbar=  1.01119729995247E+05
 cg2d: Sum(rhs),rhsMax =  -1.04773020120282E+02  1.45173282785038E+00
(PID.TID 0000.0001)  ploadbar=  1.01120593108613E+05
 cg2d: Sum(rhs),rhsMax =  -1.03950259370018E+02  1.46306832104651E+00
(PID.TID 0000.0001)  ploadbar=  1.01121456221980E+05
 cg2d: Sum(rhs),rhsMax =  -1.03214043062978E+02  1.47331820534104E+00
(PID.TID 0000.0001)  ploadbar=  1.01122319335346E+05
 cg2d: Sum(rhs),rhsMax =  -1.02621105511013E+02  1.48160836067085E+00
(PID.TID 0000.0001)  ploadbar=  1.01123182448713E+05
 cg2d: Sum(rhs),rhsMax =  -1.02236132098966E+02  1.48693580954238E+00
(PID.TID 0000.0001)  ploadbar=  1.01123688246129E+05
 cg2d: Sum(rhs),rhsMax =  -1.02009615618726E+02  1.48995563433885E+00
(PID.TID 0000.0001)  ploadbar=  1.01124194043545E+05
 cg2d: Sum(rhs),rhsMax =  -1.01877206934126E+02  1.49157628378999E+00
(PID.TID 0000.0001)  ploadbar=  1.01124699840961E+05
 cg2d: Sum(rhs),rhsMax =  -1.01770471815039E+02  1.49278512569875E+00
(PID.TID 0000.0001)  ploadbar=  1.01125205638377E+05
 cg2d: Sum(rhs),rhsMax =  -1.01623356548575E+02  1.49454666265273E+00
(PID.TID 0000.0001)  ploadbar=  1.01125711435793E+05
 cg2d: Sum(rhs),rhsMax =  -1.01392188114452E+02  1.49750709438755E+00
(PID.TID 0000.0001)  ploadbar=  1.01126217233209E+05
 cg2d: Sum(rhs),rhsMax =  -1.01070105877458E+02  1.50187478040061E+00
(PID.TID 0000.0001)  ploadbar=  1.01126736120477E+05
 cg2d: Sum(rhs),rhsMax =  -1.00657496204028E+02  1.50766566391534E+00
(PID.TID 0000.0001)  ploadbar=  1.01127255007745E+05
 cg2d: Sum(rhs),rhsMax =  -1.00170707346180E+02  1.51465987611883E+00
(PID.TID 0000.0001)  ploadbar=  1.01127773895013E+05
 cg2d: Sum(rhs),rhsMax =  -9.96453007577648E+01  1.52234157345326E+00
(PID.TID 0000.0001)  ploadbar=  1.01128292782281E+05
 cg2d: Sum(rhs),rhsMax =  -9.91205219711338E+01  1.53012026615572E+00
(PID.TID 0000.0001)  ploadbar=  1.01128811669550E+05
 cg2d: Sum(rhs),rhsMax =  -9.86265493743083E+01  1.53752198576922E+00
(PID.TID 0000.0001)  ploadbar=  1.01129330556818E+05
 cg2d: Sum(rhs),rhsMax =  -9.81093533334819E+01  1.54537974514489E+00
(PID.TID 0000.0001)  ploadbar=  1.01127643803818E+05
 cg2d: Sum(rhs),rhsMax =  -9.76077494730894E+01  1.55308372769994E+00
(PID.TID 0000.0001)  ploadbar=  1.01125957050819E+05
 cg2d: Sum(rhs),rhsMax =  -9.71386768519179E+01  1.56034945428311E+00
(PID.TID 0000.0001)  ploadbar=  1.01124270297819E+05
 cg2d: Sum(rhs),rhsMax =  -9.66833743143904E+01  1.56745915662079E+00
(PID.TID 0000.0001)  ploadbar=  1.01122583544820E+05
 cg2d: Sum(rhs),rhsMax =  -9.62302878752671E+01  1.57459218154265E+00
(PID.TID 0000.0001)  ploadbar=  1.01120896791821E+05
 cg2d: Sum(rhs),rhsMax =  -9.57432211240983E+01  1.58234207266229E+00
(PID.TID 0000.0001)  ploadbar=  1.01119210038821E+05
 cg2d: Sum(rhs),rhsMax =  -9.53753867075101E+01  1.58821070057591E+00
(PID.TID 0000.0001)  ploadbar=  1.01117820385160E+05
 cg2d: Sum(rhs),rhsMax =  -9.50857490064748E+01  1.59283392962406E+00
(PID.TID 0000.0001)  ploadbar=  1.01116430731498E+05
 cg2d: Sum(rhs),rhsMax =  -9.49074073602709E+01  1.59562686502851E+00
(PID.TID 0000.0001)  ploadbar=  1.01115041077836E+05
 cg2d: Sum(rhs),rhsMax =  -9.48510985988636E+01  1.59638209182208E+00
(PID.TID 0000.0001)  ploadbar=  1.01113651424175E+05
 cg2d: Sum(rhs),rhsMax =  -9.49338934818387E+01  1.59480285236758E+00
(PID.TID 0000.0001)  ploadbar=  1.01112261770513E+05
 cg2d: Sum(rhs),rhsMax =  -9.51691475018686E+01  1.59067311641341E+00
(PID.TID 0000.0001)  ploadbar=  1.01110872116852E+05
 cg2d: Sum(rhs),rhsMax =  -9.57175541776469E+01  1.58135724201828E+00
(PID.TID 0000.0001)  ploadbar=  1.01110421094752E+05
 cg2d: Sum(rhs),rhsMax =  -9.65227840982639E+01  1.56794490441748E+00
(PID.TID 0000.0001)  ploadbar=  1.01109970072652E+05
 cg2d: Sum(rhs),rhsMax =  -9.75357940589834E+01  1.55141960903418E+00
(PID.TID 0000.0001)  ploadbar=  1.01109519050552E+05
 cg2d: Sum(rhs),rhsMax =  -9.86783904852602E+01  1.53318963637491E+00
(PID.TID 0000.0001)  ploadbar=  1.01109068028452E+05
 cg2d: Sum(rhs),rhsMax =  -9.98759092652054E+01  1.51450862742603E+00
(PID.TID 0000.0001)  ploadbar=  1.01108617006353E+05
 cg2d: Sum(rhs),rhsMax =  -1.01066775568422E+02  1.49632893265021E+00
(PID.TID 0000.0001)  ploadbar=  1.01108165984253E+05
 cg2d: Sum(rhs),rhsMax =  -1.02224000481201E+02  1.47911249117158E+00
(PID.TID 0000.0001)  ploadbar=  1.01109369959376E+05
 cg2d: Sum(rhs),rhsMax =  -1.03148938040839E+02  1.46562523134838E+00
(PID.TID 0000.0001)  ploadbar=  1.01110573934498E+05
 cg2d: Sum(rhs),rhsMax =  -1.03969256550213E+02  1.45388570753667E+00
(PID.TID 0000.0001)  ploadbar=  1.01111777909621E+05
 cg2d: Sum(rhs),rhsMax =  -1.04830342484298E+02  1.44181144826914E+00
(PID.TID 0000.0001)  ploadbar=  1.01112981884744E+05
 cg2d: Sum(rhs),rhsMax =  -1.05744404889359E+02  1.42925766005266E+00
(PID.TID 0000.0001)  ploadbar=  1.01114185859867E+05
 cg2d: Sum(rhs),rhsMax =  -1.06817576260720E+02  1.41484579130265E+00
(PID.TID 0000.0001)  ploadbar=  1.01115389834990E+05
 cg2d: Sum(rhs),rhsMax =  -1.08087400874050E+02  1.39817630343228E+00
(PID.TID 0000.0001)  ploadbar=  1.01116607071682E+05
 cg2d: Sum(rhs),rhsMax =  -1.09712467148414E+02  1.37741916397299E+00
(PID.TID 0000.0001)  ploadbar=  1.01117824308375E+05
 cg2d: Sum(rhs),rhsMax =  -1.11716016251931E+02  1.35266203455739E+00
(PID.TID 0000.0001)  ploadbar=  1.01119041545067E+05
 cg2d: Sum(rhs),rhsMax =  -1.14074559449614E+02  1.32462848334781E+00
(PID.TID 0000.0001)  ploadbar=  1.01120258781760E+05
 cg2d: Sum(rhs),rhsMax =  -1.16740820819046E+02  1.29428926101232E+00
(PID.TID 0000.0001)  ploadbar=  1.01121476018453E+05
 cg2d: Sum(rhs),rhsMax =  -1.19585486163058E+02  1.26338965438024E+00
(PID.TID 0000.0001)  ploadbar=  1.01122693255145E+05
 cg2d: Sum(rhs),rhsMax =  -1.22456169379198E+02  1.23366966875144E+00
(PID.TID 0000.0001)  ploadbar=  1.01124205023710E+05
 cg2d: Sum(rhs),rhsMax =  -1.25241278576316E+02  1.20613879133215E+00
(PID.TID 0000.0001)  ploadbar=  1.01125716792275E+05
 cg2d: Sum(rhs),rhsMax =  -1.25566604588375E+02  1.20291647344870E+00
(PID.TID 0000.0001)  ploadbar=  1.01127228560841E+05
 cg2d: Sum(rhs),rhsMax =  -1.25877441167594E+02  1.19984116385926E+00
(PID.TID 0000.0001)  ploadbar=  1.01128740329406E+05
 cg2d: Sum(rhs),rhsMax =  -1.26157879346549E+02  1.19705673443952E+00
(PID.TID 0000.0001)  ploadbar=  1.01130252097971E+05
 cg2d: Sum(rhs),rhsMax =  -1.26398100131475E+02  1.19464570089761E+00
(PID.TID 0000.0001)  ploadbar=  1.01131763866536E+05
 cg2d: Sum(rhs),rhsMax =  -1.26523715172136E+02  1.19330639583546E+00
(PID.TID 0000.0001)  ploadbar=  1.01132431349178E+05
 cg2d: Sum(rhs),rhsMax =  -1.26592426200909E+02  1.19248706705237E+00
(PID.TID 0000.0001)  ploadbar=  1.01133098831820E+05
 cg2d: Sum(rhs),rhsMax =  -1.26628884417675E+02  1.19195142180164E+00
(PID.TID 0000.0001)  ploadbar=  1.01133766314462E+05
 cg2d: Sum(rhs),rhsMax =  -1.26616206183344E+02  1.19185690176639E+00
(PID.TID 0000.0001)  ploadbar=  1.01134433797104E+05
 cg2d: Sum(rhs),rhsMax =  -1.26553108977157E+02  1.19221436388198E+00
(PID.TID 0000.0001)  ploadbar=  1.01135101279746E+05
 cg2d: Sum(rhs),rhsMax =  -1.26443332107255E+02  1.19298558927980E+00
(PID.TID 0000.0001)  ploadbar=  1.01135768762388E+05
 cg2d: Sum(rhs),rhsMax =  -1.26252290519933E+02  1.19456217525949E+00
(PID.TID 0000.0001)  ploadbar=  1.01135309461309E+05
 cg2d: Sum(rhs),rhsMax =  -1.26039663850507E+02  1.19638274046700E+00
(PID.TID 0000.0001)  ploadbar=  1.01134850160231E+05
 cg2d: Sum(rhs),rhsMax =  -1.25832990149480E+02  1.19818488612524E+00
(PID.TID 0000.0001)  ploadbar=  1.01134390859152E+05
 cg2d: Sum(rhs),rhsMax =  -1.25631109950214E+02  1.19997479862528E+00
(PID.TID 0000.0001)  ploadbar=  1.01133931558074E+05
 cg2d: Sum(rhs),rhsMax =  -1.25456573284143E+02  1.20153283158905E+00
(PID.TID 0000.0001)  ploadbar=  1.01133472256995E+05
 cg2d: Sum(rhs),rhsMax =  -1.25326373055235E+02  1.20269059832769E+00
(PID.TID 0000.0001)  ploadbar=  1.01133012955917E+05
 cg2d: Sum(rhs),rhsMax =  -1.25174252490873E+02  1.20405363064456E+00
(PID.TID 0000.0001)  ploadbar=  1.01131937957440E+05
 cg2d: Sum(rhs),rhsMax =  -1.25027516940662E+02  1.20535558913374E+00
(PID.TID 0000.0001)  ploadbar=  1.01130862958963E+05
 cg2d: Sum(rhs),rhsMax =  -1.24885249579141E+02  1.20660137854222E+00
(PID.TID 0000.0001)  ploadbar=  1.01129787960486E+05
 cg2d: Sum(rhs),rhsMax =  -1.24743182385576E+02  1.20782800648874E+00
(PID.TID 0000.0001)  ploadbar=  1.01128712962009E+05
 cg2d: Sum(rhs),rhsMax =  -1.24594949816712E+02  1.20909328411900E+00
(PID.TID 0000.0001)  ploadbar=  1.01127637963532E+05
 cg2d: Sum(rhs),rhsMax =  -1.24438007543401E+02  1.21041850350474E+00
(PID.TID 0000.0001)  ploadbar=  1.01126562965055E+05
 cg2d: Sum(rhs),rhsMax =  -1.24322141206010E+02  1.21138304607054E+00
(PID.TID 0000.0001)  ploadbar=  1.01124650919129E+05
 cg2d: Sum(rhs),rhsMax =  -1.24179933778351E+02  1.21263881916130E+00
(PID.TID 0000.0001)  ploadbar=  1.01122738873203E+05
 cg2d: Sum(rhs),rhsMax =  -1.24023256437748E+02  1.21406470218581E+00
(PID.TID 0000.0001)  ploadbar=  1.01120826827276E+05
 cg2d: Sum(rhs),rhsMax =  -1.23884555206217E+02  1.21533419600265E+00
(PID.TID 0000.0001)  ploadbar=  1.01118914781350E+05
 cg2d: Sum(rhs),rhsMax =  -1.23768103186587E+02  1.21639613577008E+00
(PID.TID 0000.0001)  ploadbar=  1.01117002735423E+05
 cg2d: Sum(rhs),rhsMax =  -1.23680479419137E+02  1.21717460888716E+00
(PID.TID 0000.0001)  ploadbar=  1.01115090689497E+05
 cg2d: Sum(rhs),rhsMax =  -1.23603074731562E+02  1.21783708296378E+00
(PID.TID 0000.0001)  ploadbar=  1.01113674013446E+05
 cg2d: Sum(rhs),rhsMax =  -1.23529393148979E+02  1.21844206124111E+00
(PID.TID 0000.0001)  ploadbar=  1.01112257337395E+05
 cg2d: Sum(rhs),rhsMax =  -1.23461557510041E+02  1.21896390791913E+00
(PID.TID 0000.0001)  ploadbar=  1.01110840661343E+05
 cg2d: Sum(rhs),rhsMax =  -1.23406212441592E+02  1.21933387635757E+00
(PID.TID 0000.0001)  ploadbar=  1.01109423985292E+05
 cg2d: Sum(rhs),rhsMax =  -1.23357087019634E+02  1.21960935653232E+00
(PID.TID 0000.0001)  ploadbar=  1.01108007309240E+05
 cg2d: Sum(rhs),rhsMax =  -1.23311180339902E+02  1.21981461721511E+00
(PID.TID 0000.0001)  ploadbar=  1.01106590633189E+05
 cg2d: Sum(rhs),rhsMax =  -1.23276482301456E+02  1.21994564131242E+00
(PID.TID 0000.0001)  ploadbar=  1.01106153493470E+05
 cg2d: Sum(rhs),rhsMax =  -1.23231088769557E+02  1.22021446046518E+00
(PID.TID 0000.0001)  ploadbar=  1.01105716353751E+05
 cg2d: Sum(rhs),rhsMax =  -1.23168089805994E+02  1.22068357085099E+00
(PID.TID 0000.0001)  ploadbar=  1.01105279214031E+05
 cg2d: Sum(rhs),rhsMax =  -1.23103144466902E+02  1.22119254254898E+00
(PID.TID 0000.0001)  ploadbar=  1.01104842074312E+05
 cg2d: Sum(rhs),rhsMax =  -1.23045828901460E+02  1.22164031515597E+00
(PID.TID 0000.0001)  ploadbar=  1.01104404934593E+05
 cg2d: Sum(rhs),rhsMax =  -1.22999626879808E+02  1.22198371723276E+00
(PID.TID 0000.0001)  ploadbar=  1.01103967794874E+05
 cg2d: Sum(rhs),rhsMax =  -1.23120009324690E+02  1.22065941817179E+00
(PID.TID 0000.0001)  ploadbar=  1.01103561342816E+05
 cg2d: Sum(rhs),rhsMax =  -1.23295478893845E+02  1.21877327580621E+00
(PID.TID 0000.0001)  ploadbar=  1.01103154890759E+05
 cg2d: Sum(rhs),rhsMax =  -1.23486735421063E+02  1.21670956783739E+00
(PID.TID 0000.0001)  ploadbar=  1.01102748438702E+05
 cg2d: Sum(rhs),rhsMax =  -1.23711047518527E+02  1.21429549823317E+00
(PID.TID 0000.0001)  ploadbar=  1.01102341986644E+05
 cg2d: Sum(rhs),rhsMax =  -1.23982989380445E+02  1.21138664473364E+00
(PID.TID 0000.0001)  ploadbar=  1.01101935534587E+05
 cg2d: Sum(rhs),rhsMax =  -1.24302503600903E+02  1.20798440859316E+00
(PID.TID 0000.0001)  ploadbar=  1.01101529082529E+05
 cg2d: Sum(rhs),rhsMax =  -1.24633811509568E+02  1.20451712074386E+00
(PID.TID 0000.0001)  ploadbar=  1.01101083824302E+05
 cg2d: Sum(rhs),rhsMax =  -1.25068880696721E+02  1.20009848944821E+00
(PID.TID 0000.0001)  ploadbar=  1.01100638566074E+05
 cg2d: Sum(rhs),rhsMax =  -1.25541648823916E+02  1.19537383390398E+00
(PID.TID 0000.0001)  ploadbar=  1.01100193307846E+05
 cg2d: Sum(rhs),rhsMax =  -1.26024935133021E+02  1.19060309415486E+00
(PID.TID 0000.0001)  ploadbar=  1.01099748049618E+05
 cg2d: Sum(rhs),rhsMax =  -1.26520066532860E+02  1.18576915940521E+00
(PID.TID 0000.0001)  ploadbar=  1.01099302791391E+05
 cg2d: Sum(rhs),rhsMax =  -1.27031799442496E+02  1.18082231766038E+00
(PID.TID 0000.0001)  ploadbar=  1.01098857533163E+05
 cg2d: Sum(rhs),rhsMax =  -1.27529022795955E+02  1.17604627430073E+00
(PID.TID 0000.0001)  ploadbar=  1.01099175154004E+05
 cg2d: Sum(rhs),rhsMax =  -1.28021320861489E+02  1.17134592199485E+00
(PID.TID 0000.0001)  ploadbar=  1.01099492774846E+05
 cg2d: Sum(rhs),rhsMax =  -1.28486218354118E+02  1.16692071337253E+00
(PID.TID 0000.0001)  ploadbar=  1.01099810395687E+05
 cg2d: Sum(rhs),rhsMax =  -1.28909457853914E+02  1.16288781176277E+00
(PID.TID 0000.0001)  ploadbar=  1.01100128016529E+05
 cg2d: Sum(rhs),rhsMax =  -1.29283878759046E+02  1.15929786401693E+00
(PID.TID 0000.0001)  ploadbar=  1.01100445637371E+05
 cg2d: Sum(rhs),rhsMax =  -1.29610605080638E+02  1.15612750956884E+00
(PID.TID 0000.0001)  ploadbar=  1.01100763258212E+05
 cg2d: Sum(rhs),rhsMax =  -1.29875972493255E+02  1.15356571808002E+00
(PID.TID 0000.0001)  ploadbar=  1.01102158389042E+05
 cg2d: Sum(rhs),rhsMax =  -1.30161934865876E+02  1.15087877948059E+00
(PID.TID 0000.0001)  ploadbar=  1.01103553519871E+05
 cg2d: Sum(rhs),rhsMax =  -1.30455049146419E+02  1.14818150938356E+00
(PID.TID 0000.0001)  ploadbar=  1.01104948650700E+05
 cg2d: Sum(rhs),rhsMax =  -1.30723286837818E+02  1.14574882322935E+00
(PID.TID 0000.0001)  ploadbar=  1.01106343781530E+05
 cg2d: Sum(rhs),rhsMax =  -1.30946508615713E+02  1.14374678190334E+00
(PID.TID 0000.0001)  ploadbar=  1.01107738912359E+05
 cg2d: Sum(rhs),rhsMax =  -1.31118611628755E+02  1.14221642117571E+00
(PID.TID 0000.0001)  ploadbar=  1.01109134043189E+05
 cg2d: Sum(rhs),rhsMax =  -1.31125510605922E+02  1.14211263427672E+00
(PID.TID 0000.0001)  ploadbar=  1.01108833556792E+05
 cg2d: Sum(rhs),rhsMax =  -1.31075151858512E+02  1.14249031224653E+00
(PID.TID 0000.0001)  ploadbar=  1.01108533070395E+05
 cg2d: Sum(rhs),rhsMax =  -1.31003368306867E+02  1.14303438949865E+00
(PID.TID 0000.0001)  ploadbar=  1.01108232583999E+05
 cg2d: Sum(rhs),rhsMax =  -1.30903135401244E+02  1.14380336431954E+00
(PID.TID 0000.0001)  ploadbar=  1.01107932097602E+05
 cg2d: Sum(rhs),rhsMax =  -1.30770079161569E+02  1.14483414319069E+00
(PID.TID 0000.0001)  ploadbar=  1.01107631611206E+05
 cg2d: Sum(rhs),rhsMax =  -1.30612193046357E+02  1.14605483712023E+00
(PID.TID 0000.0001)  ploadbar=  1.01107331124809E+05
 cg2d: Sum(rhs),rhsMax =  -1.30398695788030E+02  1.14778740589255E+00
(PID.TID 0000.0001)  ploadbar=  1.01107696287066E+05
 cg2d: Sum(rhs),rhsMax =  -1.30172980160445E+02  1.14964981763484E+00
(PID.TID 0000.0001)  ploadbar=  1.01108061449323E+05
 cg2d: Sum(rhs),rhsMax =  -1.30015558467786E+02  1.15092730820149E+00
(PID.TID 0000.0001)  ploadbar=  1.01108426611580E+05
 cg2d: Sum(rhs),rhsMax =  -1.29930334711572E+02  1.15157689718172E+00
(PID.TID 0000.0001)  ploadbar=  1.01108791773837E+05
 cg2d: Sum(rhs),rhsMax =  -1.29914332873605E+02  1.15161941806467E+00
(PID.TID 0000.0001)  ploadbar=  1.01109156936094E+05
 cg2d: Sum(rhs),rhsMax =  -1.29968055783464E+02  1.15104285553404E+00
(PID.TID 0000.0001)  ploadbar=  1.01109522098351E+05
 cg2d: Sum(rhs),rhsMax =  -1.30060499261639E+02  1.15011465984525E+00
(PID.TID 0000.0001)  ploadbar=  1.01109040731103E+05
 cg2d: Sum(rhs),rhsMax =  -1.30271069270278E+02  1.14813346601158E+00
(PID.TID 0000.0001)  ploadbar=  1.01108559363854E+05
 cg2d: Sum(rhs),rhsMax =  -1.30568402028627E+02  1.14538149591116E+00
(PID.TID 0000.0001)  ploadbar=  1.01108077996606E+05
 cg2d: Sum(rhs),rhsMax =  -1.30927425560517E+02  1.14208391691962E+00
(PID.TID 0000.0001)  ploadbar=  1.01107596629358E+05
 cg2d: Sum(rhs),rhsMax =  -1.31319854956773E+02  1.13849287513610E+00
(PID.TID 0000.0001)  ploadbar=  1.01107115262109E+05
 cg2d: Sum(rhs),rhsMax =  -1.31706334967803E+02  1.13494851428988E+00
(PID.TID 0000.0001)  ploadbar=  1.01106633894861E+05
 cg2d: Sum(rhs),rhsMax =  -1.32211170818375E+02  1.13046949433225E+00
(PID.TID 0000.0001)  ploadbar=  1.01106274238400E+05
 cg2d: Sum(rhs),rhsMax =  -1.32692347383793E+02  1.12627648983049E+00
(PID.TID 0000.0001)  ploadbar=  1.01105914581939E+05
 cg2d: Sum(rhs),rhsMax =  -1.33100697811571E+02  1.12277287610206E+00
(PID.TID 0000.0001)  ploadbar=  1.01105554925478E+05
 cg2d: Sum(rhs),rhsMax =  -1.33436932098616E+02  1.11993219508117E+00
(PID.TID 0000.0001)  ploadbar=  1.01105195269017E+05
 cg2d: Sum(rhs),rhsMax =  -1.33580254967549E+02  1.11874979600324E+00
(PID.TID 0000.0001)  ploadbar=  1.01104835612556E+05
 cg2d: Sum(rhs),rhsMax =  -1.33454528068153E+02  1.11984903562147E+00
(PID.TID 0000.0001)  ploadbar=  1.01104475956095E+05
 cg2d: Sum(rhs),rhsMax =  -1.32848377112649E+02  1.12499290042243E+00
(PID.TID 0000.0001)  ploadbar=  1.01102482708451E+05
 cg2d: Sum(rhs),rhsMax =  -1.31991947060782E+02  1.13231217331263E+00
(PID.TID 0000.0001)  ploadbar=  1.01100489460806E+05
 cg2d: Sum(rhs),rhsMax =  -1.30919913505337E+02  1.14158387838303E+00
(PID.TID 0000.0001)  ploadbar=  1.01098496213162E+05
 cg2d: Sum(rhs),rhsMax =  -1.29649952630485E+02  1.15274019031974E+00
(PID.TID 0000.0001)  ploadbar=  1.01096502965518E+05
 cg2d: Sum(rhs),rhsMax =  -1.28241117383234E+02  1.16534500996627E+00
(PID.TID 0000.0001)  ploadbar=  1.01094509717873E+05
 cg2d: Sum(rhs),rhsMax =  -1.26745887760392E+02  1.17899407757897E+00
(PID.TID 0000.0001)  ploadbar=  1.01092516470229E+05
 cg2d: Sum(rhs),rhsMax =  -1.25191194458207E+02  1.19356732834947E+00
(PID.TID 0000.0001)  ploadbar=  1.01091106693768E+05
 cg2d: Sum(rhs),rhsMax =  -1.23571669429317E+02  1.20916799817578E+00
(PID.TID 0000.0001)  ploadbar=  1.01089696917306E+05
 cg2d: Sum(rhs),rhsMax =  -1.21970218552621E+02  1.22502372008575E+00
(PID.TID 0000.0001)  ploadbar=  1.01088287140845E+05
 cg2d: Sum(rhs),rhsMax =  -1.20393297793694E+02  1.24106694068254E+00
(PID.TID 0000.0001)  ploadbar=  1.01086877364384E+05
 cg2d: Sum(rhs),rhsMax =  -1.18881770076561E+02  1.25685661704218E+00
(PID.TID 0000.0001)  ploadbar=  1.01085467587922E+05
 cg2d: Sum(rhs),rhsMax =  -1.17413304830278E+02  1.27259034766736E+00
(PID.TID 0000.0001)  ploadbar=  1.01084057811461E+05
 cg2d: Sum(rhs),rhsMax =  -1.16011142154666E+02  1.28797676224407E+00
(PID.TID 0000.0001)  ploadbar=  1.01082924536957E+05
 cg2d: Sum(rhs),rhsMax =  -1.14727651384207E+02  1.30237912097995E+00
(PID.TID 0000.0001)  ploadbar=  1.01081791262452E+05
 cg2d: Sum(rhs),rhsMax =  -1.13555568265013E+02  1.31579771501241E+00
(PID.TID 0000.0001)  ploadbar=  1.01080657987948E+05
 cg2d: Sum(rhs),rhsMax =  -1.12524869533720E+02  1.32780086591711E+00
(PID.TID 0000.0001)  ploadbar=  1.01079524713444E+05
 cg2d: Sum(rhs),rhsMax =  -1.11641386660734E+02  1.33822989846746E+00
(PID.TID 0000.0001)  ploadbar=  1.01078391438940E+05
 cg2d: Sum(rhs),rhsMax =  -1.10892938077208E+02  1.34715066902489E+00
(PID.TID 0000.0001)  ploadbar=  1.01077258164436E+05
 cg2d: Sum(rhs),rhsMax =  -1.10437120790795E+02  1.35266838239341E+00
(PID.TID 0000.0001)  ploadbar=  1.01075495724427E+05
 cg2d: Sum(rhs),rhsMax =  -1.10105192670914E+02  1.35676725026677E+00
(PID.TID 0000.0001)  ploadbar=  1.01073733284418E+05
 cg2d: Sum(rhs),rhsMax =  -1.09819400688894E+02  1.36037960214400E+00
(PID.TID 0000.0001)  ploadbar=  1.01071970844409E+05
 cg2d: Sum(rhs),rhsMax =  -1.09592644114895E+02  1.36333119459681E+00
(PID.TID 0000.0001)  ploadbar=  1.01070208404400E+05
 cg2d: Sum(rhs),rhsMax =  -1.09419567145321E+02  1.36566957497699E+00
(PID.TID 0000.0001)  ploadbar=  1.01068445964391E+05
 cg2d: Sum(rhs),rhsMax =  -1.09281640088579E+02  1.36760485032422E+00
(PID.TID 0000.0001)  ploadbar=  1.01066683524382E+05
 cg2d: Sum(rhs),rhsMax =  -1.09193055604055E+02  1.36889724129026E+00
(PID.TID 0000.0001)  ploadbar=  1.01065930575444E+05
 cg2d: Sum(rhs),rhsMax =  -1.09157729248561E+02  1.36948938192405E+00
(PID.TID 0000.0001)  ploadbar=  1.01065177626506E+05
 cg2d: Sum(rhs),rhsMax =  -1.09116371435478E+02  1.37011864023371E+00
(PID.TID 0000.0001)  ploadbar=  1.01064424677568E+05
 cg2d: Sum(rhs),rhsMax =  -1.09052628481835E+02  1.37098880548140E+00
(PID.TID 0000.0001)  ploadbar=  1.01063671728630E+05
 cg2d: Sum(rhs),rhsMax =  -1.08983564617786E+02  1.37188278662771E+00
(PID.TID 0000.0001)  ploadbar=  1.01062918779691E+05
 cg2d: Sum(rhs),rhsMax =  -1.09021700888167E+02  1.37137628433500E+00
(PID.TID 0000.0001)  ploadbar=  1.01062165830753E+05
 cg2d: Sum(rhs),rhsMax =  -1.09077013265492E+02  1.37067017060622E+00
(PID.TID 0000.0001)  ploadbar=  1.01061402940074E+05
 cg2d: Sum(rhs),rhsMax =  -1.09227537643475E+02  1.36878214260444E+00
(PID.TID 0000.0001)  ploadbar=  1.01060640049395E+05
 cg2d: Sum(rhs),rhsMax =  -1.09434979404906E+02  1.36619468802078E+00
(PID.TID 0000.0001)  ploadbar=  1.01059877158716E+05
 cg2d: Sum(rhs),rhsMax =  -1.09679013760097E+02  1.36315988981718E+00
(PID.TID 0000.0001)  ploadbar=  1.01059114268037E+05
 cg2d: Sum(rhs),rhsMax =  -1.09936820189438E+02  1.35996158106721E+00
(PID.TID 0000.0001)  ploadbar=  1.01058351377358E+05
 cg2d: Sum(rhs),rhsMax =  -1.10194299810006E+02  1.35677278915129E+00
(PID.TID 0000.0001)  ploadbar=  1.01057588486679E+05
 cg2d: Sum(rhs),rhsMax =  -1.10320853528877E+02  1.35520007150744E+00
(PID.TID 0000.0001)  ploadbar=  1.01056598891238E+05
 cg2d: Sum(rhs),rhsMax =  -1.10421515884431E+02  1.35393789890408E+00
(PID.TID 0000.0001)  ploadbar=  1.01055609295796E+05
 cg2d: Sum(rhs),rhsMax =  -1.10504107459501E+02  1.35288488094168E+00
(PID.TID 0000.0001)  ploadbar=  1.01054619700355E+05
 cg2d: Sum(rhs),rhsMax =  -1.10578769323136E+02  1.35191029396615E+00
(PID.TID 0000.0001)  ploadbar=  1.01053630104914E+05
 cg2d: Sum(rhs),rhsMax =  -1.10628010512059E+02  1.35122165322148E+00
(PID.TID 0000.0001)  ploadbar=  1.01052640509473E+05
 cg2d: Sum(rhs),rhsMax =  -1.10659177065536E+02  1.35072661864162E+00
(PID.TID 0000.0001)  ploadbar=  1.01051650914032E+05
 cg2d: Sum(rhs),rhsMax =  -1.10605241656927E+02  1.35131250156533E+00
(PID.TID 0000.0001)  ploadbar=  1.01050127921209E+05
 cg2d: Sum(rhs),rhsMax =  -1.10704731110969E+02  1.35006301960025E+00
(PID.TID 0000.0001)  ploadbar=  1.01048604928385E+05
 cg2d: Sum(rhs),rhsMax =  -1.11019931122536E+02  1.34622990387336E+00
(PID.TID 0000.0001)  ploadbar=  1.01047081935562E+05
 cg2d: Sum(rhs),rhsMax =  -1.11415056000302E+02  1.34148397323398E+00
(PID.TID 0000.0001)  ploadbar=  1.01045558942740E+05
 cg2d: Sum(rhs),rhsMax =  -1.11796023240922E+02  1.33696400243826E+00
(PID.TID 0000.0001)  ploadbar=  1.01044035949916E+05
 cg2d: Sum(rhs),rhsMax =  -1.12301887670409E+02  1.33101033791079E+00
(PID.TID 0000.0001)  ploadbar=  1.01042512957093E+05
 cg2d: Sum(rhs),rhsMax =  -1.12426086966378E+02  1.32958726232980E+00
(PID.TID 0000.0001)  ploadbar=  1.01042133157692E+05
 cg2d: Sum(rhs),rhsMax =  -1.10036900687840E+02  1.35847988305222E+00
(PID.TID 0000.0001)  ploadbar=  1.01041753358291E+05
 cg2d: Sum(rhs),rhsMax =  -1.07535509316362E+02  1.39007604703327E+00
(PID.TID 0000.0001)  ploadbar=  1.01041373558890E+05
 cg2d: Sum(rhs),rhsMax =  -1.04488697380712E+02  1.43057474767284E+00
(PID.TID 0000.0001)  ploadbar=  1.01040993759489E+05
 cg2d: Sum(rhs),rhsMax =  -1.01160609202908E+02  1.47756779515337E+00
(PID.TID 0000.0001)  ploadbar=  1.01040613960088E+05
 cg2d: Sum(rhs),rhsMax =  -9.74787208500605E+01  1.53326257697279E+00
(PID.TID 0000.0001)  ploadbar=  1.01040234160686E+05
 cg2d: Sum(rhs),rhsMax =  -9.37171066500842E+01  1.59471476053801E+00
(PID.TID 0000.0001)  ploadbar=  1.01040034703325E+05
 cg2d: Sum(rhs),rhsMax =  -9.00862127965940E+01  1.65891529268167E+00
(PID.TID 0000.0001)  ploadbar=  1.01039835245964E+05
 cg2d: Sum(rhs),rhsMax =  -8.67120015961136E+01  1.72340725184021E+00
(PID.TID 0000.0001)  ploadbar=  1.01039635788603E+05
 cg2d: Sum(rhs),rhsMax =  -8.36226424136424E+01  1.78702321375019E+00
(PID.TID 0000.0001)  ploadbar=  1.01039436331242E+05
 cg2d: Sum(rhs),rhsMax =  -8.08195053829637E+01  1.84895359587880E+00
(PID.TID 0000.0001)  ploadbar=  1.01039236873880E+05
 cg2d: Sum(rhs),rhsMax =  -7.82889862291429E+01  1.90866387654888E+00
(PID.TID 0000.0001)  ploadbar=  1.01039037416519E+05
 cg2d: Sum(rhs),rhsMax =  -7.62367885101102E+01  1.95993707259686E+00
(PID.TID 0000.0001)  ploadbar=  1.01039235698699E+05
 cg2d: Sum(rhs),rhsMax =  -7.45159878737042E+01  2.00503273360481E+00
(PID.TID 0000.0001)  ploadbar=  1.01039433980878E+05
 cg2d: Sum(rhs),rhsMax =  -7.30878952041189E+01  2.04398012714812E+00
(PID.TID 0000.0001)  ploadbar=  1.01039632263058E+05
 cg2d: Sum(rhs),rhsMax =  -7.19437389808768E+01  2.07618442451634E+00
(PID.TID 0000.0001)  ploadbar=  1.01039830545237E+05
 cg2d: Sum(rhs),rhsMax =  -7.10737877048167E+01  2.10121292661158E+00
(PID.TID 0000.0001)  ploadbar=  1.01040028827417E+05
 cg2d: Sum(rhs),rhsMax =  -7.04685181578889E+01  2.11878726171665E+00
(PID.TID 0000.0001)  ploadbar=  1.01040227109596E+05
 cg2d: Sum(rhs),rhsMax =  -7.01035214328692E+01  2.12941688622016E+00
(PID.TID 0000.0001)  ploadbar=  1.01039984486985E+05
 cg2d: Sum(rhs),rhsMax =  -6.98824846797124E+01  2.13581447159822E+00
(PID.TID 0000.0001)  ploadbar=  1.01039741864375E+05
 cg2d: Sum(rhs),rhsMax =  -6.97628053988096E+01  2.13919617778852E+00
(PID.TID 0000.0001)  ploadbar=  1.01039499241764E+05
 cg2d: Sum(rhs),rhsMax =  -6.97288327023740E+01  2.14000097514161E+00
(PID.TID 0000.0001)  ploadbar=  1.01039256619154E+05
 cg2d: Sum(rhs),rhsMax =  -6.97528195726970E+01  2.13906783346561E+00
(PID.TID 0000.0001)  ploadbar=  1.01039013996543E+05
 cg2d: Sum(rhs),rhsMax =  -6.97999936533374E+01  2.13745780985840E+00
(PID.TID 0000.0001)  ploadbar=  1.01038771373932E+05
 cg2d: Sum(rhs),rhsMax =  -6.98227627224456E+01  2.13658450719989E+00
(PID.TID 0000.0001)  ploadbar=  1.01038580749642E+05
 cg2d: Sum(rhs),rhsMax =  -6.98876435575390E+01  2.13440651227226E+00
(PID.TID 0000.0001)  ploadbar=  1.01038390125352E+05
 cg2d: Sum(rhs),rhsMax =  -7.00080087389818E+01  2.13052137990928E+00
(PID.TID 0000.0001)  ploadbar=  1.01038199501061E+05
 cg2d: Sum(rhs),rhsMax =  -7.01806043508600E+01  2.12504178822196E+00
(PID.TID 0000.0001)  ploadbar=  1.01038008876771E+05
 cg2d: Sum(rhs),rhsMax =  -7.04219368223702E+01  2.11749113130455E+00
(PID.TID 0000.0001)  ploadbar=  1.01037818252481E+05
 cg2d: Sum(rhs),rhsMax =  -7.07322102117384E+01  2.10789938267371E+00
(PID.TID 0000.0001)  ploadbar=  1.01037627628190E+05
 cg2d: Sum(rhs),rhsMax =  -7.11193670436116E+01  2.09616017418392E+00
(PID.TID 0000.0001)  ploadbar=  1.01038655355538E+05
 cg2d: Sum(rhs),rhsMax =  -7.15376521648740E+01  2.08366760032714E+00
(PID.TID 0000.0001)  ploadbar=  1.01039683082886E+05
 cg2d: Sum(rhs),rhsMax =  -7.19669390447868E+01  2.07102676852854E+00
(PID.TID 0000.0001)  ploadbar=  1.01040710810235E+05
 cg2d: Sum(rhs),rhsMax =  -7.23880399232193E+01  2.05878884156667E+00
(PID.TID 0000.0001)  ploadbar=  1.01041738537583E+05
 cg2d: Sum(rhs),rhsMax =  -7.27929920435490E+01  2.04716163052571E+00
(PID.TID 0000.0001)  ploadbar=  1.01042766264931E+05
 cg2d: Sum(rhs),rhsMax =  -7.31811349929757E+01  2.03613274456027E+00
(PID.TID 0000.0001)  ploadbar=  1.01043793992279E+05
 cg2d: Sum(rhs),rhsMax =  -7.35648120034121E+01  2.02534864600713E+00
(PID.TID 0000.0001)  ploadbar=  1.01044208639451E+05
 cg2d: Sum(rhs),rhsMax =  -7.39455188119157E+01  2.01475173824160E+00
(PID.TID 0000.0001)  ploadbar=  1.01044623286624E+05
 cg2d: Sum(rhs),rhsMax =  -7.43212204684644E+01  2.00438711953385E+00
(PID.TID 0000.0001)  ploadbar=  1.01045037933796E+05
 cg2d: Sum(rhs),rhsMax =  -7.46603480487477E+01  1.99508851081572E+00
(PID.TID 0000.0001)  ploadbar=  1.01045452580969E+05
 cg2d: Sum(rhs),rhsMax =  -7.49695809613992E+01  1.98664770199738E+00
(PID.TID 0000.0001)  ploadbar=  1.01045867228141E+05
 cg2d: Sum(rhs),rhsMax =  -7.52313844559944E+01  1.97950044392669E+00
(PID.TID 0000.0001)  ploadbar=  1.01046281875313E+05
 cg2d: Sum(rhs),rhsMax =  -7.54173434113627E+01  1.97445383754763E+00
(PID.TID 0000.0001)  ploadbar=  1.01045876873738E+05
 cg2d: Sum(rhs),rhsMax =  -7.55603502016475E+01  1.97060557948570E+00
(PID.TID 0000.0001)  ploadbar=  1.01045471872164E+05
 cg2d: Sum(rhs),rhsMax =  -7.56503078437271E+01  1.96819629893063E+00
(PID.TID 0000.0001)  ploadbar=  1.01045066870589E+05
 cg2d: Sum(rhs),rhsMax =  -7.56883668386488E+01  1.96718281990616E+00
(PID.TID 0000.0001)  ploadbar=  1.01044661869014E+05
 cg2d: Sum(rhs),rhsMax =  -7.56754032884016E+01  1.96753171571472E+00
(PID.TID 0000.0001)  ploadbar=  1.01044256867439E+05
 cg2d: Sum(rhs),rhsMax =  -7.56197645500616E+01  1.96902357309916E+00
(PID.TID 0000.0001)  ploadbar=  1.01043851865864E+05
 cg2d: Sum(rhs),rhsMax =  -7.55125108410523E+01  1.97185742267044E+00
(PID.TID 0000.0001)  ploadbar=  1.01043490955215E+05
 cg2d: Sum(rhs),rhsMax =  -7.53904287552837E+01  1.97507787979953E+00
(PID.TID 0000.0001)  ploadbar=  1.01043130044567E+05
 cg2d: Sum(rhs),rhsMax =  -7.52877895014980E+01  1.97778007938903E+00
(PID.TID 0000.0001)  ploadbar=  1.01042769133918E+05
 cg2d: Sum(rhs),rhsMax =  -7.52993754679503E+01  1.97746181744141E+00
(PID.TID 0000.0001)  ploadbar=  1.01042408223269E+05
 cg2d: Sum(rhs),rhsMax =  -7.56623286400554E+01  1.96793575806309E+00
(PID.TID 0000.0001)  ploadbar=  1.01042047312620E+05
 cg2d: Sum(rhs),rhsMax =  -7.59238139430497E+01  1.96108406445115E+00
(PID.TID 0000.0001)  ploadbar=  1.01041686401972E+05
 cg2d: Sum(rhs),rhsMax =  -7.61969227457085E+01  1.95399533630028E+00
(PID.TID 0000.0001)  ploadbar=  1.01042724808462E+05
 cg2d: Sum(rhs),rhsMax =  -7.64180098365125E+01  1.94829168340410E+00
(PID.TID 0000.0001)  ploadbar=  1.01043763214952E+05
 cg2d: Sum(rhs),rhsMax =  -7.65872516285558E+01  1.94394026238084E+00
(PID.TID 0000.0001)  ploadbar=  1.01044801621441E+05
 cg2d: Sum(rhs),rhsMax =  -7.67263480245313E+01  1.94036870308853E+00
(PID.TID 0000.0001)  ploadbar=  1.01045840027931E+05
 cg2d: Sum(rhs),rhsMax =  -7.68419391124389E+01  1.93739519770933E+00
(PID.TID 0000.0001)  ploadbar=  1.01046878434421E+05
 cg2d: Sum(rhs),rhsMax =  -7.69396502943811E+01  1.93486546630529E+00
(PID.TID 0000.0001)  ploadbar=  1.01047916840911E+05
 cg2d: Sum(rhs),rhsMax =  -7.70025852271314E+01  1.93323350365991E+00
(PID.TID 0000.0001)  ploadbar=  1.01046605796567E+05
 cg2d: Sum(rhs),rhsMax =  -7.70451466009682E+01  1.93212647553460E+00
(PID.TID 0000.0001)  ploadbar=  1.01045294752223E+05
 cg2d: Sum(rhs),rhsMax =  -7.70803149398501E+01  1.93121340862712E+00
(PID.TID 0000.0001)  ploadbar=  1.01043983707879E+05
 cg2d: Sum(rhs),rhsMax =  -7.71258650068773E+01  1.93004104923249E+00
(PID.TID 0000.0001)  ploadbar=  1.01042672663535E+05
 cg2d: Sum(rhs),rhsMax =  -7.72155884774035E+01  1.92776380291524E+00
(PID.TID 0000.0001)  ploadbar=  1.01041361619191E+05
 cg2d: Sum(rhs),rhsMax =  -7.73823045868582E+01  1.92356492627867E+00
(PID.TID 0000.0001)  ploadbar=  1.01040050574847E+05
 cg2d: Sum(rhs),rhsMax =  -7.75884990387546E+01  1.91845873908926E+00
(PID.TID 0000.0001)  ploadbar=  1.01038749866545E+05
 cg2d: Sum(rhs),rhsMax =  -7.78598540665425E+01  1.91181865798153E+00
(PID.TID 0000.0001)  ploadbar=  1.01037449158243E+05
 cg2d: Sum(rhs),rhsMax =  -7.81687437340894E+01  1.90434327119667E+00
(PID.TID 0000.0001)  ploadbar=  1.01036148449942E+05
 cg2d: Sum(rhs),rhsMax =  -7.85037525435767E+01  1.89632741129499E+00
(PID.TID 0000.0001)  ploadbar=  1.01034847741640E+05
 cg2d: Sum(rhs),rhsMax =  -7.88541174309307E+01  1.88804580618775E+00
(PID.TID 0000.0001)  ploadbar=  1.01033547033338E+05
 cg2d: Sum(rhs),rhsMax =  -7.92017829150296E+01  1.87994084225751E+00
(PID.TID 0000.0001)  ploadbar=  1.01032246325036E+05
 cg2d: Sum(rhs),rhsMax =  -7.95375813357854E+01  1.87218352698949E+00
(PID.TID 0000.0001)  ploadbar=  1.01030820900699E+05
 cg2d: Sum(rhs),rhsMax =  -7.98671040349599E+01  1.86462142317087E+00
(PID.TID 0000.0001)  ploadbar=  1.01029395476362E+05
 cg2d: Sum(rhs),rhsMax =  -8.02143002593213E+01  1.85668847105470E+00
(PID.TID 0000.0001)  ploadbar=  1.01027970052025E+05
 cg2d: Sum(rhs),rhsMax =  -8.05797420880489E+01  1.84837750975655E+00
(PID.TID 0000.0001)  ploadbar=  1.01026544627688E+05
 cg2d: Sum(rhs),rhsMax =  -8.09774953917021E+01  1.83937829273243E+00
(PID.TID 0000.0001)  ploadbar=  1.01025119203351E+05
 cg2d: Sum(rhs),rhsMax =  -8.14277690059969E+01  1.82925480757472E+00
(PID.TID 0000.0001)  ploadbar=  1.01023693779014E+05
 cg2d: Sum(rhs),rhsMax =  -8.19682356866549E+01  1.81726147415689E+00
(PID.TID 0000.0001)  ploadbar=  1.01022189259997E+05
 cg2d: Sum(rhs),rhsMax =  -8.26030005562622E+01  1.80338044182341E+00
(PID.TID 0000.0001)  ploadbar=  1.01020684740981E+05
 cg2d: Sum(rhs),rhsMax =  -8.33424051174287E+01  1.78747976110477E+00
(PID.TID 0000.0001)  ploadbar=  1.01019180221964E+05
 cg2d: Sum(rhs),rhsMax =  -8.41923785893077E+01  1.76954456588348E+00
(PID.TID 0000.0001)  ploadbar=  1.01017675702948E+05
 cg2d: Sum(rhs),rhsMax =  -8.51330901756647E+01  1.75010788315583E+00
(PID.TID 0000.0001)  ploadbar=  1.01016171183931E+05
 cg2d: Sum(rhs),rhsMax =  -8.61443019925002E+01  1.72968049567598E+00
(PID.TID 0000.0001)  ploadbar=  1.01014666664915E+05
 cg2d: Sum(rhs),rhsMax =  -8.70949170515493E+01  1.71089625226936E+00
(PID.TID 0000.0001)  ploadbar=  1.01012914660949E+05
 cg2d: Sum(rhs),rhsMax =  -8.80372437353406E+01  1.69265001334068E+00
(PID.TID 0000.0001)  ploadbar=  1.01011162656984E+05
 cg2d: Sum(rhs),rhsMax =  -8.89086825540688E+01  1.67609090253720E+00
(PID.TID 0000.0001)  ploadbar=  1.01009410653019E+05
 cg2d: Sum(rhs),rhsMax =  -8.96895331492068E+01  1.66148900602044E+00
(PID.TID 0000.0001)  ploadbar=  1.01007658649054E+05
 cg2d: Sum(rhs),rhsMax =  -9.03746466009858E+01  1.64884119034314E+00
(PID.TID 0000.0001)  ploadbar=  1.01005906645089E+05
 cg2d: Sum(rhs),rhsMax =  -9.09689326366351E+01  1.63797134341287E+00
(PID.TID 0000.0001)  ploadbar=  1.01004154641124E+05
 cg2d: Sum(rhs),rhsMax =  -9.15970909143053E+01  1.62669240907344E+00
(PID.TID 0000.0001)  ploadbar=  1.01003065347118E+05
 cg2d: Sum(rhs),rhsMax =  -9.21971912816431E+01  1.61610010290748E+00
(PID.TID 0000.0001)  ploadbar=  1.01001976053113E+05
 cg2d: Sum(rhs),rhsMax =  -9.27908153805230E+01  1.60579268145195E+00
(PID.TID 0000.0001)  ploadbar=  1.01000886759108E+05
 cg2d: Sum(rhs),rhsMax =  -9.33839384896651E+01  1.59565878011518E+00
(PID.TID 0000.0001)  ploadbar=  1.00999797465103E+05
 cg2d: Sum(rhs),rhsMax =  -9.39903563089571E+01  1.58546004342135E+00
(PID.TID 0000.0001)  ploadbar=  1.00998708171097E+05
 cg2d: Sum(rhs),rhsMax =  -9.46108778841244E+01  1.57519073318985E+00
(PID.TID 0000.0001)  ploadbar=  1.00997618877092E+05
 cg2d: Sum(rhs),rhsMax =  -9.53307640022063E+01  1.56342936020239E+00
(PID.TID 0000.0001)  ploadbar=  1.00996661748226E+05
 cg2d: Sum(rhs),rhsMax =  -9.61015959689184E+01  1.55100909951078E+00
(PID.TID 0000.0001)  ploadbar=  1.00995704619361E+05
 cg2d: Sum(rhs),rhsMax =  -9.69398925098055E+01  1.53769965124727E+00
(PID.TID 0000.0001)  ploadbar=  1.00994747490495E+05
 cg2d: Sum(rhs),rhsMax =  -9.78246303260106E+01  1.52387549892475E+00
(PID.TID 0000.0001)  ploadbar=  1.00993790361629E+05
 cg2d: Sum(rhs),rhsMax =  -9.87753893453690E+01  1.50926769810612E+00
(PID.TID 0000.0001)  ploadbar=  1.00992833232764E+05
 cg2d: Sum(rhs),rhsMax =  -9.98272899564725E+01  1.49340143819670E+00
(PID.TID 0000.0001)  ploadbar=  1.00991876103898E+05
 cg2d: Sum(rhs),rhsMax =  -1.00934098059864E+02  1.47707439734500E+00
(PID.TID 0000.0001)  ploadbar=  1.00990845401296E+05
 cg2d: Sum(rhs),rhsMax =  -1.02228057447267E+02  1.45843499839919E+00
(PID.TID 0000.0001)  ploadbar=  1.00989814698695E+05
 cg2d: Sum(rhs),rhsMax =  -1.03740794614035E+02  1.43723274786049E+00
(PID.TID 0000.0001)  ploadbar=  1.00988783996093E+05
 cg2d: Sum(rhs),rhsMax =  -1.05458450066692E+02  1.41389288935179E+00
(PID.TID 0000.0001)  ploadbar=  1.00987753293491E+05
 cg2d: Sum(rhs),rhsMax =  -1.07358415083260E+02  1.38893917929002E+00
(PID.TID 0000.0001)  ploadbar=  1.00986722590889E+05
 cg2d: Sum(rhs),rhsMax =  -1.09424565009107E+02  1.36277911369768E+00
(PID.TID 0000.0001)  ploadbar=  1.00985691888288E+05
 cg2d: Sum(rhs),rhsMax =  -1.10973469815422E+02  1.34383694273606E+00
(PID.TID 0000.0001)  ploadbar=  1.00986061934545E+05
 cg2d: Sum(rhs),rhsMax =  -1.11154793312364E+02  1.34173310147520E+00
(PID.TID 0000.0001)  ploadbar=  1.00986431980802E+05
 cg2d: Sum(rhs),rhsMax =  -1.11340475920416E+02  1.33959026679310E+00
(PID.TID 0000.0001)  ploadbar=  1.00986802027059E+05
 cg2d: Sum(rhs),rhsMax =  -1.11540865452781E+02  1.33728158054637E+00
(PID.TID 0000.0001)  ploadbar=  1.00987172073316E+05
 cg2d: Sum(rhs),rhsMax =  -1.11751070299365E+02  1.33486139823442E+00
(PID.TID 0000.0001)  ploadbar=  1.00987542119573E+05
 cg2d: Sum(rhs),rhsMax =  -1.11970928270832E+02  1.33233072656750E+00
(PID.TID 0000.0001)  ploadbar=  1.00987912165830E+05
 cg2d: Sum(rhs),rhsMax =  -1.12222187196562E+02  1.32946839180846E+00
(PID.TID 0000.0001)  ploadbar=  1.00988162008133E+05
 cg2d: Sum(rhs),rhsMax =  -1.12502854082419E+02  1.32629258334344E+00
(PID.TID 0000.0001)  ploadbar=  1.00988411850435E+05
 cg2d: Sum(rhs),rhsMax =  -1.12790030310733E+02  1.32307115774326E+00
(PID.TID 0000.0001)  ploadbar=  1.00988661692737E+05
 cg2d: Sum(rhs),rhsMax =  -1.13100910317591E+02  1.31960069642430E+00
(PID.TID 0000.0001)  ploadbar=  1.00988911535039E+05
 cg2d: Sum(rhs),rhsMax =  -1.13452091240394E+02  1.31569212940901E+00
(PID.TID 0000.0001)  ploadbar=  1.00989161377341E+05
 cg2d: Sum(rhs),rhsMax =  -1.13843106742625E+02  1.31135912021839E+00
(PID.TID 0000.0001)  ploadbar=  1.00989411219643E+05
 cg2d: Sum(rhs),rhsMax =  -1.14294550923108E+02  1.30633660256330E+00
(PID.TID 0000.0001)  ploadbar=  1.00989163973211E+05
 cg2d: Sum(rhs),rhsMax =  -1.14808647601301E+02  1.30060934037399E+00
(PID.TID 0000.0001)      cg2d_init_res =   2.99772546459669E-01
(PID.TID 0000.0001)      cg2d_iters(min,last) =      -1     141
(PID.TID 0000.0001)      cg2d_last_res =   8.78437974118443E-08
(PID.TID 0000.0001) // =======================================================
(PID.TID 0000.0001) // Begin MONITOR dynamic field statistics
(PID.TID 0000.0001) // =======================================================
(PID.TID 0000.0001) %MON time_tsnumber                =                  7008
(PID.TID 0000.0001) %MON time_secondsf                =   2.5228800000000E+07
(PID.TID 0000.0001) %MON dynstat_eta_max              =   1.1589378113977E+00
(PID.TID 0000.0001) %MON dynstat_eta_min              =  -5.6510396004738E+00
(PID.TID 0000.0001) %MON dynstat_eta_mean             =   7.5576103009779E-02
(PID.TID 0000.0001) %MON dynstat_eta_sd               =   7.2835199888425E-01
(PID.TID 0000.0001) %MON dynstat_eta_del2             =   1.9359000478610E-04
(PID.TID 0000.0001) %MON dynstat_uvel_max             =   1.3413575070905E+00
(PID.TID 0000.0001) %MON dynstat_uvel_min             =  -1.2237692042645E+00
(PID.TID 0000.0001) %MON dynstat_uvel_mean            =   1.3357975587946E-03
(PID.TID 0000.0001) %MON dynstat_uvel_sd              =   2.0840556501722E-02
(PID.TID 0000.0001) %MON dynstat_uvel_del2            =   8.6604116351229E-06
(PID.TID 0000.0001) %MON dynstat_vvel_max             =   6.8121144519798E-01
(PID.TID 0000.0001) %MON dynstat_vvel_min             =  -8.6594697413706E-01
(PID.TID 0000.0001) %MON dynstat_vvel_mean            =   1.2408978370959E-03
(PID.TID 0000.0001) %MON dynstat_vvel_sd              =   2.1582371645270E-02
(PID.TID 0000.0001) %MON dynstat_vvel_del2            =   8.9805983242489E-06
(PID.TID 0000.0001) %MON dynstat_wvel_max             =   3.3892057639290E-04
(PID.TID 0000.0001) %MON dynstat_wvel_min             =  -1.4490733724775E-03
(PID.TID 0000.0001) %MON dynstat_wvel_mean            =   3.5966512319138E-09
(PID.TID 0000.0001) %MON dynstat_wvel_sd              =   2.0100460557324E-05
(PID.TID 0000.0001) %MON dynstat_wvel_del2            =   1.6284066420346E-08
(PID.TID 0000.0001) %MON dynstat_theta_max            =   3.2643194833549E+01
(PID.TID 0000.0001) %MON dynstat_theta_min            =  -1.9760255919654E+00
(PID.TID 0000.0001) %MON dynstat_theta_mean           =   3.5774193847697E+00
(PID.TID 0000.0001) %MON dynstat_theta_sd             =   4.4258656891929E+00
(PID.TID 0000.0001) %MON dynstat_theta_del2           =   8.9613885947233E-05
(PID.TID 0000.0001) %MON dynstat_salt_max             =   4.0641866303330E+01
(PID.TID 0000.0001) %MON dynstat_salt_min             =   2.2084281929655E+01
(PID.TID 0000.0001) %MON dynstat_salt_mean            =   3.4726951246870E+01
(PID.TID 0000.0001) %MON dynstat_salt_sd              =   3.8020224799049E-01
(PID.TID 0000.0001) %MON dynstat_salt_del2            =   1.9446704310858E-05
(PID.TID 0000.0001) %MON dynstat_sst_max              =   3.1692915864643E+01
(PID.TID 0000.0001) %MON dynstat_sst_min              =  -1.9605416220579E+00
(PID.TID 0000.0001) %MON dynstat_sst_mean             =   1.7927862489648E+01
(PID.TID 0000.0001) %MON dynstat_sst_sd               =   1.0289798727004E+01
(PID.TID 0000.0001) %MON dynstat_sst_del2             =   5.5686739609463E-04
(PID.TID 0000.0001) %MON dynstat_sss_max              =   3.9865571214466E+01
(PID.TID 0000.0001) %MON dynstat_sss_min              =   2.2084281929655E+01
(PID.TID 0000.0001) %MON dynstat_sss_mean             =   3.4704904013772E+01
(PID.TID 0000.0001) %MON dynstat_sss_sd               =   1.3112112996014E+00
(PID.TID 0000.0001) %MON dynstat_sss_del2             =   2.9278305616151E-04
(PID.TID 0000.0001) %MON forcing_qnet_max             =   7.4619298971108E+02
(PID.TID 0000.0001) %MON forcing_qnet_min             =  -5.7329652107469E+02
(PID.TID 0000.0001) %MON forcing_qnet_mean            =   1.6248645244129E+01
(PID.TID 0000.0001) %MON forcing_qnet_sd              =   1.8914794269210E+02
(PID.TID 0000.0001) %MON forcing_qnet_del2            =   9.3150510649790E-02
(PID.TID 0000.0001) %MON forcing_qsw_max              =   5.6509998509494E+01
(PID.TID 0000.0001) %MON forcing_qsw_min              =  -6.3357070972712E+02
(PID.TID 0000.0001) %MON forcing_qsw_mean             =  -1.4914779234188E+02
(PID.TID 0000.0001) %MON forcing_qsw_sd               =   1.6783886601471E+02
(PID.TID 0000.0001) %MON forcing_qsw_del2             =   5.5695387637756E-02
(PID.TID 0000.0001) %MON forcing_empmr_max            =   1.1798878930894E-03
(PID.TID 0000.0001) %MON forcing_empmr_min            =  -3.5220237325609E-03
(PID.TID 0000.0001) %MON forcing_empmr_mean           =  -2.0317451968418E-06
(PID.TID 0000.0001) %MON forcing_empmr_sd             =   9.6791672198047E-05
(PID.TID 0000.0001) %MON forcing_empmr_del2           =   2.5554526687206E-07
(PID.TID 0000.0001) %MON forcing_fu_max               =   1.0005438327789E+00
(PID.TID 0000.0001) %MON forcing_fu_min               =  -1.8907892505328E+00
(PID.TID 0000.0001) %MON forcing_fu_mean              =   1.0339200322756E-02
(PID.TID 0000.0001) %MON forcing_fu_sd                =   1.2570976418233E-01
(PID.TID 0000.0001) %MON forcing_fu_del2              =   8.6395296529616E-05
(PID.TID 0000.0001) %MON forcing_fv_max               =   7.1958143815570E-01
(PID.TID 0000.0001) %MON forcing_fv_min               =  -1.3041282597084E+00
(PID.TID 0000.0001) %MON forcing_fv_mean              =   5.7015570916189E-03
(PID.TID 0000.0001) %MON forcing_fv_sd                =   1.2345725877768E-01
(PID.TID 0000.0001) %MON forcing_fv_del2              =   6.7032277297426E-05
(PID.TID 0000.0001) %MON trAdv_CFL_u_max              =   6.4883605762189E-02
(PID.TID 0000.0001) %MON trAdv_CFL_v_max              =   5.2240043206951E-02
(PID.TID 0000.0001) %MON trAdv_CFL_w_max              =   1.3253657582406E-01
(PID.TID 0000.0001) %MON advcfl_uvel_max              =   6.8588312318070E-02
(PID.TID 0000.0001) %MON advcfl_vvel_max              =   5.1372191780756E-02
(PID.TID 0000.0001) %MON advcfl_wvel_max              =   1.3602581631341E-01
(PID.TID 0000.0001) %MON advcfl_W_hf_max              =   1.4170394695157E-01
(PID.TID 0000.0001) %MON pe_b_mean                    =   2.4681310955267E-03
(PID.TID 0000.0001) %MON ke_max                       =   9.0169563409958E-01
(PID.TID 0000.0001) %MON ke_mean                      =   4.3563868272444E-04
(PID.TID 0000.0001) %MON ke_vol                       =   1.3350249316869E+18
(PID.TID 0000.0001) %MON vort_r_min                   =  -2.1356789619514E-05
(PID.TID 0000.0001) %MON vort_r_max                   =   2.4622124584425E-05
(PID.TID 0000.0001) %MON vort_a_mean                  =  -1.9727864647440E-05
(PID.TID 0000.0001) %MON vort_a_sd                    =   7.4543105708823E-05
(PID.TID 0000.0001) %MON vort_p_mean                  =  -2.1760081322174E-05
(PID.TID 0000.0001) %MON vort_p_sd                    =   9.7242394037146E-05
(PID.TID 0000.0001) %MON surfExpan_theta_mean         =  -1.7616657611600E-07
(PID.TID 0000.0001) %MON surfExpan_salt_mean          =  -1.7072539881619E-08
(PID.TID 0000.0001) // =======================================================
(PID.TID 0000.0001) // End MONITOR dynamic field statistics
(PID.TID 0000.0001) // =======================================================
(PID.TID 0000.0001)  ploadbar=  1.00988916726780E+05
(PID.TID 0000.0001) %SBO sbo_mass                     =   1.3737612057562E+21
(PID.TID 0000.0001) %SBO sbo_mass_fw                  =   4.8390385684023E+16
(PID.TID 0000.0001) %SBO sbo_zoamc                    =   1.2629291851214E+25
(PID.TID 0000.0001) %SBO sbo_zoamp                    =   2.9276715631483E+30
(PID.TID 0000.0001) // =======================================================
(PID.TID 0000.0001) // Begin MONITOR SEAICE statistics
(PID.TID 0000.0001) // =======================================================
(PID.TID 0000.0001) %MON seaice_tsnumber              =                  7008
(PID.TID 0000.0001) %MON seaice_time_sec              =   2.5228800000000E+07
(PID.TID 0000.0001) %MON seaice_uice_max              =   4.0000000000000E-01
(PID.TID 0000.0001) %MON seaice_uice_min              =  -4.0000000000000E-01
(PID.TID 0000.0001) %MON seaice_uice_mean             =   9.4374197170458E-03
(PID.TID 0000.0001) %MON seaice_uice_sd               =   1.6728298166817E-01
(PID.TID 0000.0001) %MON seaice_uice_del2             =   1.5086171120992E-04
(PID.TID 0000.0001) %MON seaice_vice_max              =   4.0000000000000E-01
(PID.TID 0000.0001) %MON seaice_vice_min              =  -4.0000000000000E-01
(PID.TID 0000.0001) %MON seaice_vice_mean             =  -5.3488340665783E-03
(PID.TID 0000.0001) %MON seaice_vice_sd               =   1.9001513144180E-01
(PID.TID 0000.0001) %MON seaice_vice_del2             =   1.4290305397221E-04
(PID.TID 0000.0001) %MON seaice_area_max              =   9.7000000000000E-01
(PID.TID 0000.0001) %MON seaice_area_min              =   0.0000000000000E+00
(PID.TID 0000.0001) %MON seaice_area_mean             =   6.9869022245755E-02
(PID.TID 0000.0001) %MON seaice_area_sd               =   2.4083753389690E-01
(PID.TID 0000.0001) %MON seaice_area_del2             =   2.1994826027596E-04
(PID.TID 0000.0001) %MON seaice_heff_max              =   4.6362896330155E+00
(PID.TID 0000.0001) %MON seaice_heff_min              =   0.0000000000000E+00
(PID.TID 0000.0001) %MON seaice_heff_mean             =   5.8888225121927E-02
(PID.TID 0000.0001) %MON seaice_heff_sd               =   2.6082305690104E-01
(PID.TID 0000.0001) %MON seaice_heff_del2             =   1.9336603209613E-04
(PID.TID 0000.0001) %MON seaice_hsnow_max             =   1.5886062621435E+00
(PID.TID 0000.0001) %MON seaice_hsnow_min             =  -6.7152650799739E-05
(PID.TID 0000.0001) %MON seaice_hsnow_mean            =   1.1537414966879E-02
(PID.TID 0000.0001) %MON seaice_hsnow_sd              =   5.4123927779303E-02
(PID.TID 0000.0001) %MON seaice_hsnow_del2            =   5.3667351998156E-05
(PID.TID 0000.0001) // =======================================================
(PID.TID 0000.0001) // End MONITOR SEAICE statistics
(PID.TID 0000.0001) // =======================================================
(PID.TID 0000.0001) // =======================================================
(PID.TID 0000.0001) // Begin MONITOR EXF statistics
(PID.TID 0000.0001) // =======================================================
(PID.TID 0000.0001) %MON exf_tsnumber                 =                  7008
(PID.TID 0000.0001) %MON exf_time_sec                 =   2.5228800000000E+07
(PID.TID 0000.0001) %MON exf_ustress_max              =   1.0047499537468E+00
(PID.TID 0000.0001) %MON exf_ustress_min              =  -2.0063149929047E+00
(PID.TID 0000.0001) %MON exf_ustress_mean             =   1.0097171908583E-02
(PID.TID 0000.0001) %MON exf_ustress_sd               =   1.2749516565533E-01
(PID.TID 0000.0001) %MON exf_ustress_del2             =   1.1548911405615E-04
(PID.TID 0000.0001) %MON exf_vstress_max              =   7.2830842863394E-01
(PID.TID 0000.0001) %MON exf_vstress_min              =  -1.5375439753135E+00
(PID.TID 0000.0001) %MON exf_vstress_mean             =   5.4688154165056E-03
(PID.TID 0000.0001) %MON exf_vstress_sd               =   1.2497972782644E-01
(PID.TID 0000.0001) %MON exf_vstress_del2             =   8.4659609307856E-05
(PID.TID 0000.0001) %MON exf_hflux_max                =   1.1076385261242E+03
(PID.TID 0000.0001) %MON exf_hflux_min                =  -4.5575298072338E+02
(PID.TID 0000.0001) %MON exf_hflux_mean               =   2.1659550612812E+01
(PID.TID 0000.0001) %MON exf_hflux_sd                 =   1.9888512216195E+02
(PID.TID 0000.0001) %MON exf_hflux_del2               =   3.2490070077535E-01
(PID.TID 0000.0001) %MON exf_sflux_max                =   2.3042395859404E-07
(PID.TID 0000.0001) %MON exf_sflux_min                =  -3.0713210905285E-06
(PID.TID 0000.0001) %MON exf_sflux_mean               =  -1.7124657917883E-12
(PID.TID 0000.0001) %MON exf_sflux_sd                 =   8.6567913380208E-08
(PID.TID 0000.0001) %MON exf_sflux_del2               =   2.1567816900336E-10
(PID.TID 0000.0001) %MON exf_wspeed_max               =   2.4265119552612E+01
(PID.TID 0000.0001) %MON exf_wspeed_min               =   4.4450447708368E-01
(PID.TID 0000.0001) %MON exf_wspeed_mean              =   7.2316298758546E+00
(PID.TID 0000.0001) %MON exf_wspeed_sd                =   3.3597543484569E+00
(PID.TID 0000.0001) %MON exf_wspeed_del2              =   1.2775442463235E-02
(PID.TID 0000.0001) %MON exf_atemp_max                =   3.0570972576141E+02
(PID.TID 0000.0001) %MON exf_atemp_min                =   2.2757535018921E+02
(PID.TID 0000.0001) %MON exf_atemp_mean               =   2.8902992066914E+02
(PID.TID 0000.0001) %MON exf_atemp_sd                 =   1.1608409299003E+01
(PID.TID 0000.0001) %MON exf_atemp_del2               =   2.4333423710116E-02
(PID.TID 0000.0001) %MON exf_aqh_max                  =   2.0970256067812E-02
(PID.TID 0000.0001) %MON exf_aqh_min                  =   1.4266483776737E-04
(PID.TID 0000.0001) %MON exf_aqh_mean                 =   1.0644742071239E-02
(PID.TID 0000.0001) %MON exf_aqh_sd                   =   5.6427373597676E-03
(PID.TID 0000.0001) %MON exf_aqh_del2                 =   1.4364438772931E-05
(PID.TID 0000.0001) %MON exf_lwflux_max               =   2.3090204774905E+02
(PID.TID 0000.0001) %MON exf_lwflux_min               =  -2.0720692200204E+01
(PID.TID 0000.0001) %MON exf_lwflux_mean              =   4.7140462563405E+01
(PID.TID 0000.0001) %MON exf_lwflux_sd                =   2.5318173432687E+01
(PID.TID 0000.0001) %MON exf_lwflux_del2              =   8.4250519262906E-02
(PID.TID 0000.0001) %MON exf_evap_max                 =   2.4427768977267E-07
(PID.TID 0000.0001) %MON exf_evap_min                 =  -1.6610824602626E-08
(PID.TID 0000.0001) %MON exf_evap_mean                =   4.3751157427027E-08
(PID.TID 0000.0001) %MON exf_evap_sd                  =   2.7360553871537E-08
(PID.TID 0000.0001) %MON exf_evap_del2                =   7.2628215459558E-11
(PID.TID 0000.0001) %MON exf_precip_max               =   3.1084255738278E-06
(PID.TID 0000.0001) %MON exf_precip_min               =  -2.1812001094190E-08
(PID.TID 0000.0001) %MON exf_precip_mean              =   4.0736930161533E-08
(PID.TID 0000.0001) %MON exf_precip_sd                =   8.0019987580677E-08
(PID.TID 0000.0001) %MON exf_precip_del2              =   2.1879173477397E-10
(PID.TID 0000.0001) %MON exf_swflux_max               =   9.9558839313984E+01
(PID.TID 0000.0001) %MON exf_swflux_min               =  -5.7580650567899E+02
(PID.TID 0000.0001) %MON exf_swflux_mean              =  -1.6060400251320E+02
(PID.TID 0000.0001) %MON exf_swflux_sd                =   1.6082565587051E+02
(PID.TID 0000.0001) %MON exf_swflux_del2              =   2.8547857059143E-01
(PID.TID 0000.0001) %MON exf_swdown_max               =   6.2065512084961E+02
(PID.TID 0000.0001) %MON exf_swdown_min               =  -1.4132811737061E+02
(PID.TID 0000.0001) %MON exf_swdown_mean              =   1.7408854725968E+02
(PID.TID 0000.0001) %MON exf_swdown_sd                =   1.7400223954535E+02
(PID.TID 0000.0001) %MON exf_swdown_del2              =   3.1030913078690E-01
(PID.TID 0000.0001) %MON exf_lwdown_max               =   4.6679513549805E+02
(PID.TID 0000.0001) %MON exf_lwdown_min               =   6.8630306243896E+01
(PID.TID 0000.0001) %MON exf_lwdown_mean              =   3.6143161760701E+02
(PID.TID 0000.0001) %MON exf_lwdown_sd                =   6.1588113292250E+01
(PID.TID 0000.0001) %MON exf_lwdown_del2              =   4.8710958299640E-01
(PID.TID 0000.0001) %MON exf_apressure_max            =   1.0339980859375E+05
(PID.TID 0000.0001) %MON exf_apressure_min            =   9.4313593750000E+04
(PID.TID 0000.0001) %MON exf_apressure_mean           =   1.0098866948035E+05
(PID.TID 0000.0001) %MON exf_apressure_sd             =   1.1915242315822E+03
(PID.TID 0000.0001) %MON exf_apressure_del2           =   1.4477278648464E+02
(PID.TID 0000.0001) %MON exf_runoff_max               =   9.3245055585031E-07
(PID.TID 0000.0001) %MON exf_runoff_min               =   0.0000000000000E+00
(PID.TID 0000.0001) %MON exf_runoff_mean              =   3.0159397312850E-09
(PID.TID 0000.0001) %MON exf_runoff_sd                =   1.6428556549052E-08
(PID.TID 0000.0001) %MON exf_runoff_del2              =   1.9712392968027E-11
(PID.TID 0000.0001) // =======================================================
(PID.TID 0000.0001) // End MONITOR EXF statistics
(PID.TID 0000.0001) // =======================================================
 cg2d: Sum(rhs),rhsMax =  -1.15375852023455E+02  1.29429888356997E+00
(PID.TID 0000.0001)  ploadbar=  1.00988669480348E+05
 cg2d: Sum(rhs),rhsMax =  -1.15996837473318E+02  1.28741096296963E+00
(PID.TID 0000.0001)  ploadbar=  1.00988422233916E+05
 cg2d: Sum(rhs),rhsMax =  -1.16684677674514E+02  1.27982070555129E+00
(PID.TID 0000.0001)  ploadbar=  1.00988174987484E+05
 cg2d: Sum(rhs),rhsMax =  -1.17442318271908E+02  1.27152150358870E+00
(PID.TID 0000.0001)  ploadbar=  1.00987927741052E+05
 cg2d: Sum(rhs),rhsMax =  -1.18297218650472E+02  1.26229228251524E+00
(PID.TID 0000.0001)  ploadbar=  1.00988429280131E+05
 cg2d: Sum(rhs),rhsMax =  -1.19227519887858E+02  1.25239967116480E+00
(PID.TID 0000.0001)  ploadbar=  1.00988930819210E+05
 cg2d: Sum(rhs),rhsMax =  -1.20213072738604E+02  1.24208458660901E+00
(PID.TID 0000.0001)  ploadbar=  1.00989432358288E+05
 cg2d: Sum(rhs),rhsMax =  -1.21207724552711E+02  1.23183663000136E+00
(PID.TID 0000.0001)  ploadbar=  1.00989933897367E+05
 cg2d: Sum(rhs),rhsMax =  -1.22161538694548E+02  1.22215220097153E+00
(PID.TID 0000.0001)  ploadbar=  1.00990435436446E+05
 cg2d: Sum(rhs),rhsMax =  -1.23021365227547E+02  1.21352904967114E+00
(PID.TID 0000.0001)  ploadbar=  1.00990936975524E+05
 cg2d: Sum(rhs),rhsMax =  -1.23670202607599E+02  1.20707633206331E+00
(PID.TID 0000.0001)  ploadbar=  1.00992051195665E+05
 cg2d: Sum(rhs),rhsMax =  -1.24174485729994E+02  1.20207884257739E+00
(PID.TID 0000.0001)  ploadbar=  1.00993165415806E+05
 cg2d: Sum(rhs),rhsMax =  -1.24539299017171E+02  1.19844796781612E+00
(PID.TID 0000.0001)  ploadbar=  1.00994279635946E+05
 cg2d: Sum(rhs),rhsMax =  -1.24785207298482E+02  1.19595867289453E+00
(PID.TID 0000.0001)  ploadbar=  1.00995393856087E+05
 cg2d: Sum(rhs),rhsMax =  -1.25007960702545E+02  1.19367769418701E+00
(PID.TID 0000.0001)  ploadbar=  1.00996508076228E+05
 cg2d: Sum(rhs),rhsMax =  -1.25293331536376E+02  1.19078328795133E+00
(PID.TID 0000.0001)  ploadbar=  1.00997622296369E+05
 cg2d: Sum(rhs),rhsMax =  -1.25479154529494E+02  1.18887912387681E+00
(PID.TID 0000.0001)  ploadbar=  1.00998187898342E+05
 cg2d: Sum(rhs),rhsMax =  -1.25628576056902E+02  1.18735322307783E+00
(PID.TID 0000.0001)  ploadbar=  1.00998753500315E+05
 cg2d: Sum(rhs),rhsMax =  -1.25839451636524E+02  1.18527509230414E+00
(PID.TID 0000.0001)  ploadbar=  1.00999319102288E+05
 cg2d: Sum(rhs),rhsMax =  -1.26135785526686E+02  1.18242189764932E+00
(PID.TID 0000.0001)  ploadbar=  1.00999884704262E+05
 cg2d: Sum(rhs),rhsMax =  -1.26508864058978E+02  1.17888471068576E+00
(PID.TID 0000.0001)  ploadbar=  1.01000450306235E+05
 cg2d: Sum(rhs),rhsMax =  -1.26983799779210E+02  1.17444176141836E+00
(PID.TID 0000.0001)  ploadbar=  1.01001015908208E+05
 cg2d: Sum(rhs),rhsMax =  -1.27560197911402E+02  1.16908812271751E+00
(PID.TID 0000.0001)  ploadbar=  1.01002138672761E+05
 cg2d: Sum(rhs),rhsMax =  -1.28222029547787E+02  1.16298879519642E+00
(PID.TID 0000.0001)  ploadbar=  1.01003261437314E+05
 cg2d: Sum(rhs),rhsMax =  -1.29017596825799E+02  1.15573045017065E+00
(PID.TID 0000.0001)  ploadbar=  1.01004384201867E+05
 cg2d: Sum(rhs),rhsMax =  -1.30004347021365E+02  1.14684742649351E+00
(PID.TID 0000.0001)  ploadbar=  1.01005506966420E+05
 cg2d: Sum(rhs),rhsMax =  -1.31273600023190E+02  1.13562397999470E+00
(PID.TID 0000.0001)  ploadbar=  1.01006629730973E+05
 cg2d: Sum(rhs),rhsMax =  -1.32933403264438E+02  1.12128652303323E+00
(PID.TID 0000.0001)  ploadbar=  1.01007752495526E+05
 cg2d: Sum(rhs),rhsMax =  -1.35026988455624E+02  1.10376378544536E+00
(PID.TID 0000.0001)  ploadbar=  1.01009056510800E+05
 cg2d: Sum(rhs),rhsMax =  -1.37299216006132E+02  1.08537481324876E+00
(PID.TID 0000.0001)  ploadbar=  1.01010360526074E+05
 cg2d: Sum(rhs),rhsMax =  -1.39612311661391E+02  1.06728066680619E+00
(PID.TID 0000.0001)  ploadbar=  1.01011664541348E+05
 cg2d: Sum(rhs),rhsMax =  -1.41948079960288E+02  1.04961391633373E+00
(PID.TID 0000.0001)  ploadbar=  1.01012968556622E+05
 cg2d: Sum(rhs),rhsMax =  -1.43403029408672E+02  1.03886329545873E+00
(PID.TID 0000.0001)  ploadbar=  1.01014272571896E+05
 cg2d: Sum(rhs),rhsMax =  -1.43299566237610E+02  1.03951025096339E+00
(PID.TID 0000.0001)  ploadbar=  1.01015576587171E+05
 cg2d: Sum(rhs),rhsMax =  -1.43258792800534E+02  1.03968899752891E+00
(PID.TID 0000.0001)  ploadbar=  1.01017210305613E+05
 cg2d: Sum(rhs),rhsMax =  -1.43273027007323E+02  1.03945208425387E+00
(PID.TID 0000.0001)  ploadbar=  1.01018844024056E+05
 cg2d: Sum(rhs),rhsMax =  -1.43340280867744E+02  1.03881049873306E+00
(PID.TID 0000.0001)  ploadbar=  1.01020477742499E+05
 cg2d: Sum(rhs),rhsMax =  -1.43456411479758E+02  1.03779046146283E+00
(PID.TID 0000.0001)  ploadbar=  1.01022111460942E+05
 cg2d: Sum(rhs),rhsMax =  -1.43610881123867E+02  1.03646547560426E+00
(PID.TID 0000.0001)  ploadbar=  1.01023745179384E+05
 cg2d: Sum(rhs),rhsMax =  -1.43790320877145E+02  1.03493172269797E+00
(PID.TID 0000.0001)  ploadbar=  1.01025378897827E+05
 cg2d: Sum(rhs),rhsMax =  -1.43985684623354E+02  1.03334087453592E+00
(PID.TID 0000.0001)  ploadbar=  1.01026845507231E+05
 cg2d: Sum(rhs),rhsMax =  -1.44207731382612E+02  1.03160810473219E+00
(PID.TID 0000.0001)  ploadbar=  1.01028312116635E+05
 cg2d: Sum(rhs),rhsMax =  -1.44471621945596E+02  1.02962121430319E+00
(PID.TID 0000.0001)  ploadbar=  1.01029778726038E+05
 cg2d: Sum(rhs),rhsMax =  -1.44778633734891E+02  1.02736988159270E+00
(PID.TID 0000.0001)  ploadbar=  1.01031245335442E+05
 cg2d: Sum(rhs),rhsMax =  -1.45102850970891E+02  1.02504134299462E+00
(PID.TID 0000.0001)  ploadbar=  1.01032711944846E+05
 cg2d: Sum(rhs),rhsMax =  -1.45424664407207E+02  1.02277784669295E+00
(PID.TID 0000.0001)  ploadbar=  1.01034178554249E+05
 cg2d: Sum(rhs),rhsMax =  -1.45845849130585E+02  1.01981675469723E+00
(PID.TID 0000.0001)  ploadbar=  1.01035732213261E+05
 cg2d: Sum(rhs),rhsMax =  -1.46341303261804E+02  1.01633839882670E+00
(PID.TID 0000.0001)  ploadbar=  1.01037285872273E+05
 cg2d: Sum(rhs),rhsMax =  -1.46866297526314E+02  1.01265918630783E+00
(PID.TID 0000.0001)  ploadbar=  1.01038839531284E+05
 cg2d: Sum(rhs),rhsMax =  -1.47445848562140E+02  1.00861103311647E+00
(PID.TID 0000.0001)  ploadbar=  1.01040393190296E+05
 cg2d: Sum(rhs),rhsMax =  -1.48068614981382E+02  1.00428035594923E+00
(PID.TID 0000.0001)  ploadbar=  1.01041946849308E+05
 cg2d: Sum(rhs),rhsMax =  -1.48735479236983E+02  9.99666590218668E-01
(PID.TID 0000.0001)  ploadbar=  1.01043500508320E+05
 cg2d: Sum(rhs),rhsMax =  -1.49430056490237E+02  9.94925789555382E-01
(PID.TID 0000.0001)  ploadbar=  1.01045719218831E+05
 cg2d: Sum(rhs),rhsMax =  -1.50143017518182E+02  9.90117529745585E-01
(PID.TID 0000.0001)  ploadbar=  1.01047937929342E+05
 cg2d: Sum(rhs),rhsMax =  -1.50866626212750E+02  9.85293821112753E-01
(PID.TID 0000.0001)  ploadbar=  1.01050156639854E+05
 cg2d: Sum(rhs),rhsMax =  -1.51579102191634E+02  9.80593369865446E-01
(PID.TID 0000.0001)  ploadbar=  1.01052375350365E+05
 cg2d: Sum(rhs),rhsMax =  -1.52266252621514E+02  9.76100875467198E-01
(PID.TID 0000.0001)  ploadbar=  1.01054594060876E+05
 cg2d: Sum(rhs),rhsMax =  -1.52917294807500E+02  9.71874071417436E-01
(PID.TID 0000.0001)  ploadbar=  1.01056812771388E+05
 cg2d: Sum(rhs),rhsMax =  -1.53517986149153E+02  9.67988905796627E-01
(PID.TID 0000.0001)  ploadbar=  1.01057757440319E+05
 cg2d: Sum(rhs),rhsMax =  -1.54082938790055E+02  9.64343795185011E-01
(PID.TID 0000.0001)  ploadbar=  1.01058702109251E+05
 cg2d: Sum(rhs),rhsMax =  -1.54623091395127E+02  9.60862427970560E-01
(PID.TID 0000.0001)  ploadbar=  1.01059646778183E+05
 cg2d: Sum(rhs),rhsMax =  -1.55137974196236E+02  9.57540942154717E-01
(PID.TID 0000.0001)  ploadbar=  1.01060591447114E+05
 cg2d: Sum(rhs),rhsMax =  -1.55631392846652E+02  9.54348690611990E-01
(PID.TID 0000.0001)  ploadbar=  1.01061536116046E+05
 cg2d: Sum(rhs),rhsMax =  -1.56106736254924E+02  9.51257635202534E-01
(PID.TID 0000.0001)  ploadbar=  1.01062480784978E+05
 cg2d: Sum(rhs),rhsMax =  -1.56553808494037E+02  9.48383635001545E-01
(PID.TID 0000.0001)  ploadbar=  1.01062928345197E+05
 cg2d: Sum(rhs),rhsMax =  -1.56991593674583E+02  9.45601993043520E-01
(PID.TID 0000.0001)  ploadbar=  1.01063375905416E+05
 cg2d: Sum(rhs),rhsMax =  -1.57427416647094E+02  9.42862665377668E-01
(PID.TID 0000.0001)  ploadbar=  1.01063823465635E+05
 cg2d: Sum(rhs),rhsMax =  -1.57861378442676E+02  9.40162311446854E-01
(PID.TID 0000.0001)  ploadbar=  1.01064271025854E+05
 cg2d: Sum(rhs),rhsMax =  -1.58300891092896E+02  9.37456148003527E-01
(PID.TID 0000.0001)  ploadbar=  1.01064718586073E+05
 cg2d: Sum(rhs),rhsMax =  -1.58751922864475E+02  9.34708554239755E-01
(PID.TID 0000.0001)  ploadbar=  1.01065166146292E+05
 cg2d: Sum(rhs),rhsMax =  -1.59224406135390E+02  9.31843887644879E-01
(PID.TID 0000.0001)  ploadbar=  1.01064732826465E+05
 cg2d: Sum(rhs),rhsMax =  -1.59710678969713E+02  9.28902786507247E-01
(PID.TID 0000.0001)  ploadbar=  1.01064299506638E+05
 cg2d: Sum(rhs),rhsMax =  -1.60210961879457E+02  9.25884886506023E-01
(PID.TID 0000.0001)  ploadbar=  1.01063866186812E+05
 cg2d: Sum(rhs),rhsMax =  -1.59400273989793E+02  9.30461550124935E-01
(PID.TID 0000.0001)  ploadbar=  1.01063432866985E+05
 cg2d: Sum(rhs),rhsMax =  -1.58164011499302E+02  9.37585146107804E-01
(PID.TID 0000.0001)  ploadbar=  1.01062999547159E+05
 cg2d: Sum(rhs),rhsMax =  -1.56968204005429E+02  9.44561080726388E-01
(PID.TID 0000.0001)  ploadbar=  1.01062566227332E+05
 cg2d: Sum(rhs),rhsMax =  -1.55786346496820E+02  9.51579308705605E-01
(PID.TID 0000.0001)  ploadbar=  1.01062733130369E+05
 cg2d: Sum(rhs),rhsMax =  -1.54594303868655E+02  9.58782581689304E-01
(PID.TID 0000.0001)  ploadbar=  1.01062900033406E+05
 cg2d: Sum(rhs),rhsMax =  -1.53395847058901E+02  9.66148089584061E-01
(PID.TID 0000.0001)  ploadbar=  1.01063066936443E+05
 cg2d: Sum(rhs),rhsMax =  -1.52191705386224E+02  9.73671755229175E-01
(PID.TID 0000.0001)  ploadbar=  1.01063233839480E+05
 cg2d: Sum(rhs),rhsMax =  -1.50981723836614E+02  9.81351536192047E-01
(PID.TID 0000.0001)  ploadbar=  1.01063400742517E+05
 cg2d: Sum(rhs),rhsMax =  -1.49778184098386E+02  9.89106408037838E-01
(PID.TID 0000.0001)  ploadbar=  1.01063567645553E+05
 cg2d: Sum(rhs),rhsMax =  -1.48510287276957E+02  9.97415163424416E-01
(PID.TID 0000.0001)  ploadbar=  1.01063710337390E+05
 cg2d: Sum(rhs),rhsMax =  -1.47239462356565E+02  1.00587956716379E+00
(PID.TID 0000.0001)  ploadbar=  1.01063853029226E+05
 cg2d: Sum(rhs),rhsMax =  -1.45901484754436E+02  1.01494539348967E+00
(PID.TID 0000.0001)  ploadbar=  1.01063995721062E+05
 cg2d: Sum(rhs),rhsMax =  -1.43357580074276E+02  1.03277541346456E+00
(PID.TID 0000.0001)  ploadbar=  1.01064138412899E+05
 cg2d: Sum(rhs),rhsMax =  -1.40365149783877E+02  1.05458610358788E+00
(PID.TID 0000.0001)  ploadbar=  1.01064281104735E+05
 cg2d: Sum(rhs),rhsMax =  -1.37077464608654E+02  1.07964250595326E+00
(PID.TID 0000.0001)  ploadbar=  1.01064423796571E+05
 cg2d: Sum(rhs),rhsMax =  -1.33686690419392E+02  1.10682376061791E+00
(PID.TID 0000.0001)  ploadbar=  1.01064199611944E+05
 cg2d: Sum(rhs),rhsMax =  -1.30838799930438E+02  1.13073955329677E+00
(PID.TID 0000.0001)  ploadbar=  1.01063975427317E+05
 cg2d: Sum(rhs),rhsMax =  -1.28519482183641E+02  1.15099374034181E+00
(PID.TID 0000.0001)  ploadbar=  1.01063751242690E+05
 cg2d: Sum(rhs),rhsMax =  -1.26565573896888E+02  1.16863474551316E+00
(PID.TID 0000.0001)  ploadbar=  1.01063527058062E+05
 cg2d: Sum(rhs),rhsMax =  -1.24910850111502E+02  1.18401009004086E+00
(PID.TID 0000.0001)  ploadbar=  1.01063302873435E+05
 cg2d: Sum(rhs),rhsMax =  -1.23481731187396E+02  1.19762768662292E+00
(PID.TID 0000.0001)  ploadbar=  1.01063078688808E+05
 cg2d: Sum(rhs),rhsMax =  -1.22270553382373E+02  1.20939722121817E+00
(PID.TID 0000.0001)  ploadbar=  1.01063228955578E+05
 cg2d: Sum(rhs),rhsMax =  -1.21193252981099E+02  1.22004433771485E+00
(PID.TID 0000.0001)  ploadbar=  1.01063379222349E+05
 cg2d: Sum(rhs),rhsMax =  -1.20368854002883E+02  1.22828614284810E+00
(PID.TID 0000.0001)  ploadbar=  1.01063529489120E+05
 cg2d: Sum(rhs),rhsMax =  -1.19434443940536E+02  1.23776936850819E+00
(PID.TID 0000.0001)  ploadbar=  1.01063679755891E+05
 cg2d: Sum(rhs),rhsMax =  -1.18588391467618E+02  1.24646035951551E+00
(PID.TID 0000.0001)  ploadbar=  1.01063830022661E+05
 cg2d: Sum(rhs),rhsMax =  -1.17551086187921E+02  1.25730242223155E+00
(PID.TID 0000.0001)  ploadbar=  1.01063980289432E+05
 cg2d: Sum(rhs),rhsMax =  -1.16307820351950E+02  1.27060335077637E+00
(PID.TID 0000.0001)  ploadbar=  1.01065105563120E+05
 cg2d: Sum(rhs),rhsMax =  -1.14923602373873E+02  1.28577828753626E+00
(PID.TID 0000.0001)  ploadbar=  1.01066230836809E+05
 cg2d: Sum(rhs),rhsMax =  -1.13516963272956E+02  1.30158558770753E+00
(PID.TID 0000.0001)  ploadbar=  1.01067356110497E+05
 cg2d: Sum(rhs),rhsMax =  -1.12150476087280E+02  1.31731361838155E+00
(PID.TID 0000.0001)  ploadbar=  1.01068481384186E+05
 cg2d: Sum(rhs),rhsMax =  -1.10868464277153E+02  1.33240325894810E+00
(PID.TID 0000.0001)  ploadbar=  1.01069606657874E+05
 cg2d: Sum(rhs),rhsMax =  -1.09697419194929E+02  1.34646856020656E+00
(PID.TID 0000.0001)  ploadbar=  1.01070731931563E+05
 cg2d: Sum(rhs),rhsMax =  -1.08631476267290E+02  1.35949890418621E+00
(PID.TID 0000.0001)  ploadbar=  1.01071940415283E+05
 cg2d: Sum(rhs),rhsMax =  -1.07684198878109E+02  1.37124690161279E+00
(PID.TID 0000.0001)  ploadbar=  1.01073148899003E+05
 cg2d: Sum(rhs),rhsMax =  -1.06840272502754E+02  1.38183243457068E+00
(PID.TID 0000.0001)  ploadbar=  1.01074357382723E+05
 cg2d: Sum(rhs),rhsMax =  -1.06079060201994E+02  1.39146130104553E+00
(PID.TID 0000.0001)  ploadbar=  1.01075565866443E+05
 cg2d: Sum(rhs),rhsMax =  -1.05401665689614E+02  1.40007080966207E+00
(PID.TID 0000.0001)  ploadbar=  1.01076774350163E+05
 cg2d: Sum(rhs),rhsMax =  -1.04808624201758E+02  1.40761021669782E+00
(PID.TID 0000.0001)  ploadbar=  1.01077982833884E+05
 cg2d: Sum(rhs),rhsMax =  -1.04420674459501E+02  1.41250851824680E+00
(PID.TID 0000.0001)  ploadbar=  1.01079646893925E+05
 cg2d: Sum(rhs),rhsMax =  -1.04410788670906E+02  1.41235451662202E+00
(PID.TID 0000.0001)  ploadbar=  1.01081310953966E+05
 cg2d: Sum(rhs),rhsMax =  -1.04761725363736E+02  1.40737176336607E+00
(PID.TID 0000.0001)  ploadbar=  1.01082975014007E+05
 cg2d: Sum(rhs),rhsMax =  -1.05472197607779E+02  1.39767400260293E+00
(PID.TID 0000.0001)  ploadbar=  1.01084639074048E+05
 cg2d: Sum(rhs),rhsMax =  -1.06128389510901E+02  1.38884619978025E+00
(PID.TID 0000.0001)  ploadbar=  1.01086303134089E+05
 cg2d: Sum(rhs),rhsMax =  -1.06925959309866E+02  1.37832863130958E+00
(PID.TID 0000.0001)  ploadbar=  1.01087967194131E+05
 cg2d: Sum(rhs),rhsMax =  -1.07762518770240E+02  1.36748440622088E+00
(PID.TID 0000.0001)  ploadbar=  1.01088369761869E+05
 cg2d: Sum(rhs),rhsMax =  -1.08611055018237E+02  1.35666269127011E+00
(PID.TID 0000.0001)  ploadbar=  1.01088772329607E+05
 cg2d: Sum(rhs),rhsMax =  -1.09408249853172E+02  1.34664312078789E+00
(PID.TID 0000.0001)  ploadbar=  1.01089174897345E+05
 cg2d: Sum(rhs),rhsMax =  -1.10158854852938E+02  1.33733696110078E+00
(PID.TID 0000.0001)  ploadbar=  1.01089577465083E+05
 cg2d: Sum(rhs),rhsMax =  -1.10899130907041E+02  1.32828085132819E+00
(PID.TID 0000.0001)  ploadbar=  1.01089980032821E+05
 cg2d: Sum(rhs),rhsMax =  -1.11626772017034E+02  1.31949154948561E+00
(PID.TID 0000.0001)  ploadbar=  1.01090382600559E+05
 cg2d: Sum(rhs),rhsMax =  -1.12386522665996E+02  1.31045459803026E+00
(PID.TID 0000.0001)  ploadbar=  1.01092457940766E+05
 cg2d: Sum(rhs),rhsMax =  -1.13142807230643E+02  1.30158601938560E+00
(PID.TID 0000.0001)  ploadbar=  1.01094533280974E+05
 cg2d: Sum(rhs),rhsMax =  -1.13863917424430E+02  1.29323798948238E+00
(PID.TID 0000.0001)  ploadbar=  1.01096608621181E+05
 cg2d: Sum(rhs),rhsMax =  -1.14541565588677E+02  1.28548518963416E+00
(PID.TID 0000.0001)  ploadbar=  1.01098683961388E+05
 cg2d: Sum(rhs),rhsMax =  -1.14428505854033E+02  1.28665360829076E+00
(PID.TID 0000.0001)  ploadbar=  1.01100759301596E+05
 cg2d: Sum(rhs),rhsMax =  -1.11561929522626E+02  1.31960429833383E+00
(PID.TID 0000.0001)  ploadbar=  1.01102834641803E+05
 cg2d: Sum(rhs),rhsMax =  -1.08923423554774E+02  1.35143689748345E+00
(PID.TID 0000.0001)  ploadbar=  1.01102890618568E+05
 cg2d: Sum(rhs),rhsMax =  -1.06532373736792E+02  1.38160663959594E+00
(PID.TID 0000.0001)  ploadbar=  1.01102946595334E+05
 cg2d: Sum(rhs),rhsMax =  -1.04466451201032E+02  1.40873354389512E+00
(PID.TID 0000.0001)  ploadbar=  1.01103002572099E+05
 cg2d: Sum(rhs),rhsMax =  -1.02725686094383E+02  1.43237281681371E+00
(PID.TID 0000.0001)  ploadbar=  1.01103058548864E+05
 cg2d: Sum(rhs),rhsMax =  -1.01294171560708E+02  1.45234359858300E+00
(PID.TID 0000.0001)  ploadbar=  1.01103114525629E+05
 cg2d: Sum(rhs),rhsMax =  -1.00123947369098E+02  1.46900501642261E+00
(PID.TID 0000.0001)  ploadbar=  1.01103170502395E+05
 cg2d: Sum(rhs),rhsMax =  -9.92897894569504E+01  1.48107916451350E+00
(PID.TID 0000.0001)  ploadbar=  1.01103544903755E+05
 cg2d: Sum(rhs),rhsMax =  -9.86797913144288E+01  1.49000423980286E+00
(PID.TID 0000.0001)  ploadbar=  1.01103919305116E+05
 cg2d: Sum(rhs),rhsMax =  -9.83231939130254E+01  1.49521043693497E+00
(PID.TID 0000.0001)  ploadbar=  1.01104293706477E+05
 cg2d: Sum(rhs),rhsMax =  -9.81681340818353E+01  1.49740568337278E+00
(PID.TID 0000.0001)  ploadbar=  1.01104668107838E+05
 cg2d: Sum(rhs),rhsMax =  -9.81650608680141E+01  1.49731402537957E+00
(PID.TID 0000.0001)  ploadbar=  1.01105042509198E+05
 cg2d: Sum(rhs),rhsMax =  -9.82518345667201E+01  1.49587902902031E+00
(PID.TID 0000.0001)  ploadbar=  1.01105416910559E+05
 cg2d: Sum(rhs),rhsMax =  -9.85328134245377E+01  1.49150349204742E+00
(PID.TID 0000.0001)  ploadbar=  1.01105568663324E+05
 cg2d: Sum(rhs),rhsMax =  -9.90656221015649E+01  1.48336753816474E+00
(PID.TID 0000.0001)  ploadbar=  1.01105720416089E+05
 cg2d: Sum(rhs),rhsMax =  -9.98159074679358E+01  1.47209631831257E+00
(PID.TID 0000.0001)  ploadbar=  1.01105872168854E+05
 cg2d: Sum(rhs),rhsMax =  -1.00780329993963E+02  1.45787837015341E+00
(PID.TID 0000.0001)  ploadbar=  1.01106023921619E+05
 cg2d: Sum(rhs),rhsMax =  -1.01964036953871E+02  1.44081148594329E+00
(PID.TID 0000.0001)  ploadbar=  1.01106175674384E+05
 cg2d: Sum(rhs),rhsMax =  -1.03348979150852E+02  1.42134909288084E+00
(PID.TID 0000.0001)  ploadbar=  1.01106327427149E+05
 cg2d: Sum(rhs),rhsMax =  -1.04923626012898E+02  1.39987221304238E+00
(PID.TID 0000.0001)  ploadbar=  1.01104888624172E+05
 cg2d: Sum(rhs),rhsMax =  -1.06687863296442E+02  1.37658218276806E+00
(PID.TID 0000.0001)  ploadbar=  1.01103449821195E+05
 cg2d: Sum(rhs),rhsMax =  -1.08637463114609E+02  1.35174021796334E+00
(PID.TID 0000.0001)  ploadbar=  1.01102011018218E+05
 cg2d: Sum(rhs),rhsMax =  -1.10773839523816E+02  1.32553241385794E+00
(PID.TID 0000.0001)  ploadbar=  1.01100572215241E+05
 cg2d: Sum(rhs),rhsMax =  -1.13098119887932E+02  1.29814644986205E+00
(PID.TID 0000.0001)  ploadbar=  1.01099133412264E+05
 cg2d: Sum(rhs),rhsMax =  -1.15606883146094E+02  1.26981773101955E+00
(PID.TID 0000.0001)  ploadbar=  1.01097694609287E+05
 cg2d: Sum(rhs),rhsMax =  -1.18204485366298E+02  1.24175552312471E+00
(PID.TID 0000.0001)  ploadbar=  1.01097200519244E+05
 cg2d: Sum(rhs),rhsMax =  -1.20389021814396E+02  1.21906122151914E+00
(PID.TID 0000.0001)  ploadbar=  1.01096706429201E+05
 cg2d: Sum(rhs),rhsMax =  -1.22322209529218E+02  1.19962493750901E+00
(PID.TID 0000.0001)  ploadbar=  1.01096212339158E+05
 cg2d: Sum(rhs),rhsMax =  -1.22420787100613E+02  1.19847542533491E+00
(PID.TID 0000.0001)  ploadbar=  1.01095718249115E+05
 cg2d: Sum(rhs),rhsMax =  -1.21884360340118E+02  1.20354945391410E+00
(PID.TID 0000.0001)  ploadbar=  1.01095224159073E+05
 cg2d: Sum(rhs),rhsMax =  -1.20877554997200E+02  1.21335278085241E+00
(PID.TID 0000.0001)  ploadbar=  1.01094730069030E+05
 cg2d: Sum(rhs),rhsMax =  -1.20008647901610E+02  1.22195685019975E+00
(PID.TID 0000.0001)  ploadbar=  1.01094464128534E+05
 cg2d: Sum(rhs),rhsMax =  -1.19195833109311E+02  1.23013881958025E+00
(PID.TID 0000.0001)  ploadbar=  1.01094198188038E+05
 cg2d: Sum(rhs),rhsMax =  -1.18495145882754E+02  1.23728730755176E+00
(PID.TID 0000.0001)  ploadbar=  1.01093932247542E+05
 cg2d: Sum(rhs),rhsMax =  -1.17947957273093E+02  1.24292333695818E+00
(PID.TID 0000.0001)  ploadbar=  1.01093666307046E+05
 cg2d: Sum(rhs),rhsMax =  -1.17569126040147E+02  1.24684490108593E+00
(PID.TID 0000.0001)  ploadbar=  1.01093400366551E+05
 cg2d: Sum(rhs),rhsMax =  -1.17616661277979E+02  1.24627828899197E+00
(PID.TID 0000.0001)  ploadbar=  1.01093134426055E+05
 cg2d: Sum(rhs),rhsMax =  -1.17918730633234E+02  1.24301482765953E+00
(PID.TID 0000.0001)  ploadbar=  1.01092087910627E+05
 cg2d: Sum(rhs),rhsMax =  -1.18410425812339E+02  1.23776895615979E+00
(PID.TID 0000.0001)  ploadbar=  1.01091041395200E+05
 cg2d: Sum(rhs),rhsMax =  -1.19190392537344E+02  1.22957046304922E+00
(PID.TID 0000.0001)  ploadbar=  1.01089994879773E+05
 cg2d: Sum(rhs),rhsMax =  -1.20257248797632E+02  1.21854865139356E+00
(PID.TID 0000.0001)  ploadbar=  1.01088948364345E+05
 cg2d: Sum(rhs),rhsMax =  -1.21581781525093E+02  1.20514467392786E+00
(PID.TID 0000.0001)  ploadbar=  1.01087901848918E+05
 cg2d: Sum(rhs),rhsMax =  -1.23175316949897E+02  1.18940692629710E+00
(PID.TID 0000.0001)  ploadbar=  1.01086855333491E+05
 cg2d: Sum(rhs),rhsMax =  -1.25362160670508E+02  1.16853982743537E+00
(PID.TID 0000.0001)  ploadbar=  1.01086152259401E+05
 cg2d: Sum(rhs),rhsMax =  -1.26232921811993E+02  1.16038047710781E+00
(PID.TID 0000.0001)  ploadbar=  1.01085449185310E+05
 cg2d: Sum(rhs),rhsMax =  -1.26746826267430E+02  1.15559021282094E+00
(PID.TID 0000.0001)  ploadbar=  1.01084746111220E+05
 cg2d: Sum(rhs),rhsMax =  -1.27241902143303E+02  1.15101955441613E+00
(PID.TID 0000.0001)  ploadbar=  1.01084043037130E+05
 cg2d: Sum(rhs),rhsMax =  -1.27705289713649E+02  1.14677738482988E+00
(PID.TID 0000.0001)  ploadbar=  1.01083339963040E+05
 cg2d: Sum(rhs),rhsMax =  -1.28135301007972E+02  1.14286803287807E+00
(PID.TID 0000.0001)  ploadbar=  1.01082636888949E+05
 cg2d: Sum(rhs),rhsMax =  -1.28574217780262E+02  1.13890170653180E+00
(PID.TID 0000.0001)  ploadbar=  1.01082141762510E+05
 cg2d: Sum(rhs),rhsMax =  -1.28988673852916E+02  1.13516907968189E+00
(PID.TID 0000.0001)  ploadbar=  1.01081646636072E+05
 cg2d: Sum(rhs),rhsMax =  -1.29358425231341E+02  1.13183796420421E+00
(PID.TID 0000.0001)  ploadbar=  1.01081151509633E+05
 cg2d: Sum(rhs),rhsMax =  -1.29702686587492E+02  1.12873256652275E+00
(PID.TID 0000.0001)  ploadbar=  1.01080656383194E+05
 cg2d: Sum(rhs),rhsMax =  -1.30013739106752E+02  1.12591137789124E+00
(PID.TID 0000.0001)  ploadbar=  1.01080161256755E+05
 cg2d: Sum(rhs),rhsMax =  -1.30287587209414E+02  1.12340094921562E+00
(PID.TID 0000.0001)  ploadbar=  1.01079666130316E+05
 cg2d: Sum(rhs),rhsMax =  -1.30574612301326E+02  1.12082439048405E+00
(PID.TID 0000.0001)  ploadbar=  1.01080247046265E+05
 cg2d: Sum(rhs),rhsMax =  -1.30845489381528E+02  1.11842436770913E+00
(PID.TID 0000.0001)  ploadbar=  1.01080827962213E+05
 cg2d: Sum(rhs),rhsMax =  -1.31074286685951E+02  1.11641414615775E+00
(PID.TID 0000.0001)  ploadbar=  1.01081408878162E+05
 cg2d: Sum(rhs),rhsMax =  -1.31284390029522E+02  1.11458800294943E+00
(PID.TID 0000.0001)  ploadbar=  1.01081989794110E+05
 cg2d: Sum(rhs),rhsMax =  -1.31483995307533E+02  1.11287385155272E+00
(PID.TID 0000.0001)  ploadbar=  1.01082570710059E+05
 cg2d: Sum(rhs),rhsMax =  -1.31678213012643E+02  1.11122791243658E+00
(PID.TID 0000.0001)  ploadbar=  1.01083151626007E+05
 cg2d: Sum(rhs),rhsMax =  -1.31820051168690E+02  1.11003203329872E+00
(PID.TID 0000.0001)  ploadbar=  1.01083746491382E+05
 cg2d: Sum(rhs),rhsMax =  -1.32010560507840E+02  1.10842994983896E+00
(PID.TID 0000.0001)  ploadbar=  1.01084341356756E+05
 cg2d: Sum(rhs),rhsMax =  -1.32250577972596E+02  1.10641599055359E+00
(PID.TID 0000.0001)  ploadbar=  1.01084936222130E+05
 cg2d: Sum(rhs),rhsMax =  -1.27355431704411E+02  1.14893635182888E+00
(PID.TID 0000.0001)  ploadbar=  1.01085531087504E+05
 cg2d: Sum(rhs),rhsMax =  -1.18675842578611E+02  1.23294747354954E+00
(PID.TID 0000.0001)  ploadbar=  1.01086125952878E+05
 cg2d: Sum(rhs),rhsMax =  -1.08860764517254E+02  1.34407313890437E+00
(PID.TID 0000.0001)  ploadbar=  1.01086720818252E+05
 cg2d: Sum(rhs),rhsMax =  -1.00952436457579E+02  1.44932753819863E+00
(PID.TID 0000.0001)  ploadbar=  1.01086936905711E+05
 cg2d: Sum(rhs),rhsMax =  -9.43052397918025E+01  1.55144588604024E+00
(PID.TID 0000.0001)  ploadbar=  1.01087152993169E+05
 cg2d: Sum(rhs),rhsMax =  -8.87635355164953E+01  1.64826446667475E+00
(PID.TID 0000.0001)  ploadbar=  1.01087369080627E+05
 cg2d: Sum(rhs),rhsMax =  -8.43891086666377E+01  1.73366118516160E+00
(PID.TID 0000.0001)  ploadbar=  1.01087585168085E+05
 cg2d: Sum(rhs),rhsMax =  -8.11060124181094E+01  1.80379394137822E+00
(PID.TID 0000.0001)  ploadbar=  1.01087801255544E+05
 cg2d: Sum(rhs),rhsMax =  -7.86042898254844E+01  1.86115591913633E+00
(PID.TID 0000.0001)  ploadbar=  1.01088017343002E+05
 cg2d: Sum(rhs),rhsMax =  -7.67725756539015E+01  1.90550036107050E+00
(PID.TID 0000.0001)  ploadbar=  1.01089048266768E+05
 cg2d: Sum(rhs),rhsMax =  -7.53664733765348E+01  1.94096883759235E+00
(PID.TID 0000.0001)  ploadbar=  1.01090079190534E+05
 cg2d: Sum(rhs),rhsMax =  -7.42483015178899E+01  1.97009140810552E+00
(PID.TID 0000.0001)  ploadbar=  1.01091110114300E+05
 cg2d: Sum(rhs),rhsMax =  -7.33962700893150E+01  1.99282002532014E+00
(PID.TID 0000.0001)  ploadbar=  1.01092141038066E+05
 cg2d: Sum(rhs),rhsMax =  -7.28192413166308E+01  2.00842954330468E+00
(PID.TID 0000.0001)  ploadbar=  1.01093171961832E+05
 cg2d: Sum(rhs),rhsMax =  -7.25711270566768E+01  2.01506787501506E+00
(PID.TID 0000.0001)  ploadbar=  1.01094202885598E+05
 cg2d: Sum(rhs),rhsMax =  -7.24916764457327E+01  2.01710694834965E+00
(PID.TID 0000.0001)  ploadbar=  1.01095507053320E+05
 cg2d: Sum(rhs),rhsMax =  -7.26008905301354E+01  2.01394860564460E+00
(PID.TID 0000.0001)  ploadbar=  1.01096811221043E+05
 cg2d: Sum(rhs),rhsMax =  -7.29088059636450E+01  2.00535560372691E+00
(PID.TID 0000.0001)  ploadbar=  1.01098115388765E+05
 cg2d: Sum(rhs),rhsMax =  -7.34935333990473E+01  1.98934606836541E+00
(PID.TID 0000.0001)  ploadbar=  1.01099419556487E+05
 cg2d: Sum(rhs),rhsMax =  -7.43845647225449E+01  1.96549195368471E+00
(PID.TID 0000.0001)  ploadbar=  1.01100723724210E+05
 cg2d: Sum(rhs),rhsMax =  -7.52647868524130E+01  1.94251194388142E+00
(PID.TID 0000.0001)  ploadbar=  1.01102027891932E+05
 cg2d: Sum(rhs),rhsMax =  -7.61091419603904E+01  1.92098454829987E+00
(PID.TID 0000.0001)  ploadbar=  1.01102211716343E+05
 cg2d: Sum(rhs),rhsMax =  -7.69299892100210E+01  1.90051898426880E+00
(PID.TID 0000.0001)  ploadbar=  1.01102395540753E+05
 cg2d: Sum(rhs),rhsMax =  -7.76896908556250E+01  1.88197064876370E+00
(PID.TID 0000.0001)  ploadbar=  1.01102579365164E+05
 cg2d: Sum(rhs),rhsMax =  -7.82348764730002E+01  1.86889269991496E+00
(PID.TID 0000.0001)  ploadbar=  1.01102763189574E+05
 cg2d: Sum(rhs),rhsMax =  -7.84453913858902E+01  1.86390230380854E+00
(PID.TID 0000.0001)  ploadbar=  1.01102947013985E+05
 cg2d: Sum(rhs),rhsMax =  -7.83724627245810E+01  1.86563167927125E+00
(PID.TID 0000.0001)  ploadbar=  1.01103130838396E+05
 cg2d: Sum(rhs),rhsMax =  -7.79289806297789E+01  1.87626073688480E+00
(PID.TID 0000.0001)  ploadbar=  1.01103085610394E+05
 cg2d: Sum(rhs),rhsMax =  -7.72496722584414E+01  1.89278240251152E+00
(PID.TID 0000.0001)  ploadbar=  1.01103040382391E+05
 cg2d: Sum(rhs),rhsMax =  -7.63978516922374E+01  1.91391660177131E+00
(PID.TID 0000.0001)  ploadbar=  1.01102995154389E+05
 cg2d: Sum(rhs),rhsMax =  -7.53933690973816E+01  1.93944935093916E+00
(PID.TID 0000.0001)  ploadbar=  1.01102949926387E+05
 cg2d: Sum(rhs),rhsMax =  -7.41874154117305E+01  1.97100755979223E+00
(PID.TID 0000.0001)  ploadbar=  1.01102904698385E+05
 cg2d: Sum(rhs),rhsMax =  -7.27872475889926E+01  2.00894395254834E+00
(PID.TID 0000.0001)  ploadbar=  1.01102859470383E+05
 cg2d: Sum(rhs),rhsMax =  -7.10545874309515E+01  2.05797678173967E+00
(PID.TID 0000.0001)  ploadbar=  1.01103357440468E+05
 cg2d: Sum(rhs),rhsMax =  -6.89768433539403E+01  2.12003060850647E+00
(PID.TID 0000.0001)  ploadbar=  1.01103855410554E+05
 cg2d: Sum(rhs),rhsMax =  -6.65522826014318E+01  2.19733824961724E+00
(PID.TID 0000.0001)  ploadbar=  1.01104353380640E+05
 cg2d: Sum(rhs),rhsMax =  -6.38751715793055E+01  2.28950922739990E+00
(PID.TID 0000.0001)  ploadbar=  1.01104851350725E+05
 cg2d: Sum(rhs),rhsMax =  -6.13930787724273E+01  2.38214737770536E+00
(PID.TID 0000.0001)  ploadbar=  1.01105349320811E+05
 cg2d: Sum(rhs),rhsMax =  -5.92813712332613E+01  2.46706796358564E+00
(PID.TID 0000.0001)  ploadbar=  1.01105847290896E+05
 cg2d: Sum(rhs),rhsMax =  -5.73846670154675E+01  2.54873881079210E+00
(PID.TID 0000.0001)  ploadbar=  1.01105635493592E+05
 cg2d: Sum(rhs),rhsMax =  -5.55335997791349E+01  2.63386931055619E+00
(PID.TID 0000.0001)  ploadbar=  1.01105423696287E+05
 cg2d: Sum(rhs),rhsMax =  -5.37192218331272E+01  2.72305161682906E+00
(PID.TID 0000.0001)  ploadbar=  1.01105211898983E+05
 cg2d: Sum(rhs),rhsMax =  -5.21566469505014E+01  2.80490381930053E+00
(PID.TID 0000.0001)  ploadbar=  1.01105000101678E+05
 cg2d: Sum(rhs),rhsMax =  -5.11255735972291E+01  2.86180260062113E+00
(PID.TID 0000.0001)  ploadbar=  1.01104788304374E+05
 cg2d: Sum(rhs),rhsMax =  -5.01433909856034E+01  2.91825566038406E+00
(PID.TID 0000.0001)  ploadbar=  1.01104576507069E+05
 cg2d: Sum(rhs),rhsMax =  -4.92004795713269E+01  2.97455231096232E+00
(PID.TID 0000.0001)  ploadbar=  1.01104022299264E+05
 cg2d: Sum(rhs),rhsMax =  -4.82961641825013E+01  3.03055873902751E+00
(PID.TID 0000.0001)  ploadbar=  1.01103468091459E+05
 cg2d: Sum(rhs),rhsMax =  -4.74369419359747E+01  3.08568150071457E+00
(PID.TID 0000.0001)  ploadbar=  1.01102913883654E+05
 cg2d: Sum(rhs),rhsMax =  -4.66242064735862E+01  3.13961095658658E+00
(PID.TID 0000.0001)  ploadbar=  1.01102359675849E+05
 cg2d: Sum(rhs),rhsMax =  -4.58477852922582E+01  3.19280781219879E+00
(PID.TID 0000.0001)  ploadbar=  1.01101805468043E+05
 cg2d: Sum(rhs),rhsMax =  -4.50938331105350E+01  3.24609380217590E+00
(PID.TID 0000.0001)  ploadbar=  1.01101251260238E+05
 cg2d: Sum(rhs),rhsMax =  -4.43850173545318E+01  3.29786245622382E+00
(PID.TID 0000.0001)  ploadbar=  1.01101508482923E+05
 cg2d: Sum(rhs),rhsMax =  -4.37118074356893E+01  3.34859142344454E+00
(PID.TID 0000.0001)  ploadbar=  1.01101765705607E+05
 cg2d: Sum(rhs),rhsMax =  -4.30820579779412E+01  3.39747682925907E+00
(PID.TID 0000.0001)  ploadbar=  1.01102022928292E+05
 cg2d: Sum(rhs),rhsMax =  -4.25036484700199E+01  3.44364747672199E+00
(PID.TID 0000.0001)  ploadbar=  1.01102280150977E+05
 cg2d: Sum(rhs),rhsMax =  -4.19934089327440E+01  3.48541560897725E+00
(PID.TID 0000.0001)  ploadbar=  1.01102537373661E+05
 cg2d: Sum(rhs),rhsMax =  -4.15500873821965E+01  3.52250790477422E+00
(PID.TID 0000.0001)  ploadbar=  1.01102794596346E+05
 cg2d: Sum(rhs),rhsMax =  -4.11676146669320E+01  3.55511656191872E+00
(PID.TID 0000.0001)  ploadbar=  1.01101603175733E+05
 cg2d: Sum(rhs),rhsMax =  -4.08420711196796E+01  3.58330426131440E+00
(PID.TID 0000.0001)  ploadbar=  1.01100411755121E+05
 cg2d: Sum(rhs),rhsMax =  -4.05696171373464E+01  3.60717652559493E+00
(PID.TID 0000.0001)  ploadbar=  1.01099220334509E+05
 cg2d: Sum(rhs),rhsMax =  -4.03462382138362E+01  3.62689947178532E+00
(PID.TID 0000.0001)  ploadbar=  1.01098028913896E+05
 cg2d: Sum(rhs),rhsMax =  -4.01758159210630E+01  3.64196548481062E+00
(PID.TID 0000.0001)  ploadbar=  1.01096837493284E+05
 cg2d: Sum(rhs),rhsMax =  -4.00907994780217E+01  3.64929138404697E+00
(PID.TID 0000.0001)  ploadbar=  1.01095646072671E+05
 cg2d: Sum(rhs),rhsMax =  -4.00527629415618E+01  3.65247762310192E+00
(PID.TID 0000.0001)  ploadbar=  1.01095405107830E+05
 cg2d: Sum(rhs),rhsMax =  -4.00382652931853E+01  3.65361451859157E+00
(PID.TID 0000.0001)  ploadbar=  1.01095164142988E+05
 cg2d: Sum(rhs),rhsMax =  -4.00445537615134E+01  3.65293328183289E+00
(PID.TID 0000.0001)  ploadbar=  1.01094923178146E+05
 cg2d: Sum(rhs),rhsMax =  -4.00787041384738E+01  3.64978367300387E+00
(PID.TID 0000.0001)  ploadbar=  1.01094682213305E+05
 cg2d: Sum(rhs),rhsMax =  -4.01362347052716E+01  3.64458084445592E+00
(PID.TID 0000.0001)  ploadbar=  1.01094441248463E+05
 cg2d: Sum(rhs),rhsMax =  -4.02027748953818E+01  3.63865373109830E+00
(PID.TID 0000.0001)  ploadbar=  1.01094200283622E+05
 cg2d: Sum(rhs),rhsMax =  -4.02868451234298E+01  3.63116235272945E+00
(PID.TID 0000.0001)  ploadbar=  1.01092317698985E+05
 cg2d: Sum(rhs),rhsMax =  -4.06359788177086E+01  3.60002107271691E+00
(PID.TID 0000.0001)  ploadbar=  1.01090435114349E+05
 cg2d: Sum(rhs),rhsMax =  -4.12256354116726E+01  3.54853157560548E+00
(PID.TID 0000.0001)  ploadbar=  1.01088552529712E+05
 cg2d: Sum(rhs),rhsMax =  -4.20237571273894E+01  3.48109127217187E+00
(PID.TID 0000.0001)  ploadbar=  1.01086669945075E+05
 cg2d: Sum(rhs),rhsMax =  -4.31449141179456E+01  3.39053625220576E+00
(PID.TID 0000.0001)  ploadbar=  1.01084787360439E+05
 cg2d: Sum(rhs),rhsMax =  -4.43625553969334E+01  3.29732563860318E+00
(PID.TID 0000.0001)  ploadbar=  1.01082904775802E+05
 cg2d: Sum(rhs),rhsMax =  -4.50489999380392E+01  3.24694469691631E+00
(PID.TID 0000.0001)  ploadbar=  1.01080933697335E+05
 cg2d: Sum(rhs),rhsMax =  -4.57436413395656E+01  3.19749386698847E+00
(PID.TID 0000.0001)  ploadbar=  1.01078962618867E+05
 cg2d: Sum(rhs),rhsMax =  -4.64013510628135E+01  3.15201514888146E+00
(PID.TID 0000.0001)  ploadbar=  1.01076991540400E+05
 cg2d: Sum(rhs),rhsMax =  -4.70021375847908E+01  3.11155056134029E+00
(PID.TID 0000.0001)  ploadbar=  1.01075020461933E+05
 cg2d: Sum(rhs),rhsMax =  -4.75386379652458E+01  3.07622771159292E+00
(PID.TID 0000.0001)  ploadbar=  1.01073049383465E+05
 cg2d: Sum(rhs),rhsMax =  -4.80093827657640E+01  3.04580642539427E+00
(PID.TID 0000.0001)  ploadbar=  1.01071078304998E+05
 cg2d: Sum(rhs),rhsMax =  -4.84227785938893E+01  3.01953223412193E+00
(PID.TID 0000.0001)  ploadbar=  1.01069680016471E+05
 cg2d: Sum(rhs),rhsMax =  -4.88040304408476E+01  2.99564730512152E+00
(PID.TID 0000.0001)  ploadbar=  1.01068281727943E+05
 cg2d: Sum(rhs),rhsMax =  -4.91538625118175E+01  2.97399715581139E+00
(PID.TID 0000.0001)  ploadbar=  1.01066883439416E+05
 cg2d: Sum(rhs),rhsMax =  -4.94742080723538E+01  2.95437418414437E+00
(PID.TID 0000.0001)  ploadbar=  1.01065485150889E+05
 cg2d: Sum(rhs),rhsMax =  -4.97691392580112E+01  2.93645891459150E+00
(PID.TID 0000.0001)  ploadbar=  1.01064086862361E+05
 cg2d: Sum(rhs),rhsMax =  -5.00381558968080E+01  2.92021981877098E+00
(PID.TID 0000.0001)  ploadbar=  1.01062688573834E+05
 cg2d: Sum(rhs),rhsMax =  -5.03281316936776E+01  2.90305003876560E+00
(PID.TID 0000.0001)  ploadbar=  1.01061131135178E+05
 cg2d: Sum(rhs),rhsMax =  -5.06590465340911E+01  2.88381406018898E+00
(PID.TID 0000.0001)  ploadbar=  1.01059573696522E+05
 cg2d: Sum(rhs),rhsMax =  -5.10333120538337E+01  2.86244851286110E+00
(PID.TID 0000.0001)  ploadbar=  1.01058016257866E+05
 cg2d: Sum(rhs),rhsMax =  -5.14451562064335E+01  2.83935995152234E+00
(PID.TID 0000.0001)  ploadbar=  1.01056458819210E+05
 cg2d: Sum(rhs),rhsMax =  -5.18917903203672E+01  2.81478443207768E+00
(PID.TID 0000.0001)  ploadbar=  1.01054901380554E+05
 cg2d: Sum(rhs),rhsMax =  -5.23739370476783E+01  2.78876801356651E+00
(PID.TID 0000.0001)  ploadbar=  1.01053343941898E+05
 cg2d: Sum(rhs),rhsMax =  -5.28898831103004E+01  2.76146008809226E+00
(PID.TID 0000.0001)  ploadbar=  1.01052850953448E+05
 cg2d: Sum(rhs),rhsMax =  -5.34532974232662E+01  2.73223503010248E+00
(PID.TID 0000.0001)  ploadbar=  1.01052357964998E+05
 cg2d: Sum(rhs),rhsMax =  -5.40887934178563E+01  2.69999327239394E+00
(PID.TID 0000.0001)  ploadbar=  1.01051864976549E+05
 cg2d: Sum(rhs),rhsMax =  -5.48067245915187E+01  2.66445767528717E+00
(PID.TID 0000.0001)  ploadbar=  1.01051371988099E+05
 cg2d: Sum(rhs),rhsMax =  -5.56128280609161E+01  2.62563130862766E+00
(PID.TID 0000.0001)  ploadbar=  1.01050878999649E+05
 cg2d: Sum(rhs),rhsMax =  -5.65085982898244E+01  2.58375715565658E+00
(PID.TID 0000.0001)  ploadbar=  1.01050386011199E+05
 cg2d: Sum(rhs),rhsMax =  -5.75062412192238E+01  2.53872402010808E+00
(PID.TID 0000.0001)  ploadbar=  1.01049376001530E+05
 cg2d: Sum(rhs),rhsMax =  -5.85899884064460E+01  2.49158630327387E+00
(PID.TID 0000.0001)  ploadbar=  1.01048365991861E+05
 cg2d: Sum(rhs),rhsMax =  -5.97562926820403E+01  2.44279835952159E+00
(PID.TID 0000.0001)  ploadbar=  1.01047355982192E+05
 cg2d: Sum(rhs),rhsMax =  -6.10007411001064E+01  2.39282012989951E+00
(PID.TID 0000.0001)  ploadbar=  1.01046345972523E+05
 cg2d: Sum(rhs),rhsMax =  -6.23135708418650E+01  2.34226334686543E+00
(PID.TID 0000.0001)  ploadbar=  1.01045335962854E+05
 cg2d: Sum(rhs),rhsMax =  -6.36921581765983E+01  2.29140262746352E+00
(PID.TID 0000.0001)  ploadbar=  1.01044325953185E+05
 cg2d: Sum(rhs),rhsMax =  -6.50647313329159E+01  2.24289924473977E+00
(PID.TID 0000.0001)  ploadbar=  1.01044375167352E+05
 cg2d: Sum(rhs),rhsMax =  -6.63670453639324E+01  2.19871034750826E+00
(PID.TID 0000.0001)  ploadbar=  1.01044424381518E+05
 cg2d: Sum(rhs),rhsMax =  -6.75120843713479E+01  2.16122045857944E+00
(PID.TID 0000.0001)  ploadbar=  1.01044473595685E+05
 cg2d: Sum(rhs),rhsMax =  -6.84741165796065E+01  2.13062583779169E+00
(PID.TID 0000.0001)  ploadbar=  1.01044522809852E+05
 cg2d: Sum(rhs),rhsMax =  -6.92727671038408E+01  2.10579434671438E+00
(PID.TID 0000.0001)  ploadbar=  1.01044572024018E+05
 cg2d: Sum(rhs),rhsMax =  -6.99468733283328E+01  2.08519161689683E+00
(PID.TID 0000.0001)  ploadbar=  1.01044621238185E+05
 cg2d: Sum(rhs),rhsMax =  -7.06139723696635E+01  2.06528500919665E+00
(PID.TID 0000.0001)  ploadbar=  1.01044958477107E+05
 cg2d: Sum(rhs),rhsMax =  -7.13374001406572E+01  2.04420663461575E+00
(PID.TID 0000.0001)  ploadbar=  1.01045295716029E+05
 cg2d: Sum(rhs),rhsMax =  -7.21199765563282E+01  2.02195108462447E+00
(PID.TID 0000.0001)  ploadbar=  1.01045632954951E+05
 cg2d: Sum(rhs),rhsMax =  -7.29674346224687E+01  1.99844271916074E+00
(PID.TID 0000.0001)  ploadbar=  1.01045970193874E+05
 cg2d: Sum(rhs),rhsMax =  -7.38512796589060E+01  1.97454178176464E+00
(PID.TID 0000.0001)  ploadbar=  1.01046307432796E+05
 cg2d: Sum(rhs),rhsMax =  -7.47573955252809E+01  1.95066831628836E+00
(PID.TID 0000.0001)  ploadbar=  1.01046644671718E+05
 cg2d: Sum(rhs),rhsMax =  -7.57878924694911E+01  1.92416603909613E+00
(PID.TID 0000.0001)  ploadbar=  1.01047837092339E+05
 cg2d: Sum(rhs),rhsMax =  -7.70534260345828E+01  1.89253024634119E+00
(PID.TID 0000.0001)  ploadbar=  1.01049029512959E+05
 cg2d: Sum(rhs),rhsMax =  -7.83922845650418E+01  1.86012412951145E+00
(PID.TID 0000.0001)  ploadbar=  1.01050221933580E+05
 cg2d: Sum(rhs),rhsMax =  -7.83360430161219E+01  1.86132345277312E+00
(PID.TID 0000.0001)  ploadbar=  1.01051414354200E+05
 cg2d: Sum(rhs),rhsMax =  -7.83214423694217E+01  1.86147583163181E+00
(PID.TID 0000.0001)  ploadbar=  1.01052606774821E+05
 cg2d: Sum(rhs),rhsMax =  -7.83372071733511E+01  1.86083761630373E+00
(PID.TID 0000.0001)  ploadbar=  1.01053799195441E+05
 cg2d: Sum(rhs),rhsMax =  -7.84044739280579E+01  1.85899604333785E+00
(PID.TID 0000.0001)  ploadbar=  1.01054367768320E+05
 cg2d: Sum(rhs),rhsMax =  -7.84906538401475E+01  1.85672123719930E+00
(PID.TID 0000.0001)  ploadbar=  1.01054936341199E+05
 cg2d: Sum(rhs),rhsMax =  -7.85869257968956E+01  1.85421846731361E+00
(PID.TID 0000.0001)  ploadbar=  1.01055504914078E+05
 cg2d: Sum(rhs),rhsMax =  -7.86815593510401E+01  1.85175844030210E+00
(PID.TID 0000.0001)  ploadbar=  1.01056073486957E+05
 cg2d: Sum(rhs),rhsMax =  -7.87652708946489E+01  1.84955114687646E+00
(PID.TID 0000.0001)  ploadbar=  1.01056642059836E+05
 cg2d: Sum(rhs),rhsMax =  -7.88505663315376E+01  1.84728757389919E+00
(PID.TID 0000.0001)  ploadbar=  1.01057210632715E+05
 cg2d: Sum(rhs),rhsMax =  -7.88933051257289E+01  1.84603094062705E+00
(PID.TID 0000.0001)  ploadbar=  1.01057925722987E+05
 cg2d: Sum(rhs),rhsMax =  -7.89248372029180E+01  1.84503222382227E+00
(PID.TID 0000.0001)  ploadbar=  1.01058640813258E+05
 cg2d: Sum(rhs),rhsMax =  -7.89571752343296E+01  1.84400151480165E+00
(PID.TID 0000.0001)  ploadbar=  1.01059355903529E+05
 cg2d: Sum(rhs),rhsMax =  -7.89903837428519E+01  1.84293289276289E+00
(PID.TID 0000.0001)  ploadbar=  1.01060070993800E+05
 cg2d: Sum(rhs),rhsMax =  -7.90253690772233E+01  1.84180167915755E+00
(PID.TID 0000.0001)  ploadbar=  1.01060786084071E+05
 cg2d: Sum(rhs),rhsMax =  -7.90592935570886E+01  1.84067156765459E+00
(PID.TID 0000.0001)  ploadbar=  1.01061501174342E+05
 cg2d: Sum(rhs),rhsMax =  -7.91051923250169E+01  1.83936626717345E+00
(PID.TID 0000.0001)  ploadbar=  1.01062763897719E+05
 cg2d: Sum(rhs),rhsMax =  -7.91600341482704E+01  1.83792828548066E+00
(PID.TID 0000.0001)  ploadbar=  1.01064026621096E+05
 cg2d: Sum(rhs),rhsMax =  -7.92244580332944E+01  1.83633130546856E+00
(PID.TID 0000.0001)  ploadbar=  1.01065289344473E+05
 cg2d: Sum(rhs),rhsMax =  -7.92914263001791E+01  1.83473307081288E+00
(PID.TID 0000.0001)  ploadbar=  1.01066552067850E+05
 cg2d: Sum(rhs),rhsMax =  -7.93461242999259E+01  1.83347000963919E+00
(PID.TID 0000.0001)  ploadbar=  1.01067814791228E+05
 cg2d: Sum(rhs),rhsMax =  -7.93885802725352E+01  1.83254081207655E+00
(PID.TID 0000.0001)  ploadbar=  1.01069077514605E+05
 cg2d: Sum(rhs),rhsMax =  -7.94214917970954E+01  1.83180775567983E+00
(PID.TID 0000.0001)  ploadbar=  1.01069568281169E+05
 cg2d: Sum(rhs),rhsMax =  -7.94553236957287E+01  1.83101838667203E+00
(PID.TID 0000.0001)  ploadbar=  1.01070059047733E+05
 cg2d: Sum(rhs),rhsMax =  -7.94809521277764E+01  1.83038222862445E+00
(PID.TID 0000.0001)  ploadbar=  1.01070549814297E+05
 cg2d: Sum(rhs),rhsMax =  -7.95042737952014E+01  1.82975927640142E+00
(PID.TID 0000.0001)  ploadbar=  1.01071040580861E+05
 cg2d: Sum(rhs),rhsMax =  -7.95294123632121E+01  1.82904993777599E+00
(PID.TID 0000.0001)  ploadbar=  1.01071531347425E+05
 cg2d: Sum(rhs),rhsMax =  -7.95567425994729E+01  1.82822966934544E+00
(PID.TID 0000.0001)  ploadbar=  1.01072022113989E+05
 cg2d: Sum(rhs),rhsMax =  -7.95969362114472E+01  1.82712314755985E+00
(PID.TID 0000.0001)  ploadbar=  1.01071307574005E+05
 cg2d: Sum(rhs),rhsMax =  -7.96468965184307E+01  1.82579111184372E+00
(PID.TID 0000.0001)  ploadbar=  1.01070593034022E+05
 cg2d: Sum(rhs),rhsMax =  -7.96899669803533E+01  1.82460479168248E+00
(PID.TID 0000.0001)  ploadbar=  1.01069878494039E+05
 cg2d: Sum(rhs),rhsMax =  -7.97290710545472E+01  1.82348931339552E+00
(PID.TID 0000.0001)  ploadbar=  1.01069163954055E+05
 cg2d: Sum(rhs),rhsMax =  -7.97645631015089E+01  1.82242424908794E+00
(PID.TID 0000.0001)  ploadbar=  1.01068449414072E+05
 cg2d: Sum(rhs),rhsMax =  -7.97918825340872E+01  1.82150421555855E+00
(PID.TID 0000.0001)  ploadbar=  1.01067734874089E+05
 cg2d: Sum(rhs),rhsMax =  -7.98147680963250E+01  1.82066994806585E+00
(PID.TID 0000.0001)  ploadbar=  1.01067195335303E+05
 cg2d: Sum(rhs),rhsMax =  -7.98215877442055E+01  1.82017627833519E+00
(PID.TID 0000.0001)  ploadbar=  1.01066655796518E+05
 cg2d: Sum(rhs),rhsMax =  -7.98164005092412E+01  1.81992093229000E+00
(PID.TID 0000.0001)  ploadbar=  1.01066116257732E+05
 cg2d: Sum(rhs),rhsMax =  -7.98036130425117E+01  1.81979820759828E+00
(PID.TID 0000.0001)  ploadbar=  1.01065576718946E+05
 cg2d: Sum(rhs),rhsMax =  -7.97885336358629E+01  1.81968323232743E+00
(PID.TID 0000.0001)  ploadbar=  1.01065037180161E+05
 cg2d: Sum(rhs),rhsMax =  -7.97748540501085E+01  1.81948837915208E+00
(PID.TID 0000.0001)  ploadbar=  1.01064497641375E+05
 cg2d: Sum(rhs),rhsMax =  -7.97874449096935E+01  1.81879799130014E+00
(PID.TID 0000.0001)  ploadbar=  1.01063545672679E+05
 cg2d: Sum(rhs),rhsMax =  -7.98020170373505E+01  1.81814637657914E+00
(PID.TID 0000.0001)  ploadbar=  1.01062593703983E+05
 cg2d: Sum(rhs),rhsMax =  -7.98153718153199E+01  1.81758374821766E+00
(PID.TID 0000.0001)  ploadbar=  1.01061641735286E+05
 cg2d: Sum(rhs),rhsMax =  -7.98304382849025E+01  1.81703225719848E+00
(PID.TID 0000.0001)  ploadbar=  1.01060689766590E+05
 cg2d: Sum(rhs),rhsMax =  -7.98393169415193E+01  1.81667073657366E+00
(PID.TID 0000.0001)  ploadbar=  1.01059737797894E+05
 cg2d: Sum(rhs),rhsMax =  -7.98464161987296E+01  1.81639437240368E+00
(PID.TID 0000.0001)  ploadbar=  1.01058785829197E+05
 cg2d: Sum(rhs),rhsMax =  -7.98306361203667E+01  1.81663979916121E+00
(PID.TID 0000.0001)  ploadbar=  1.01057181167340E+05
 cg2d: Sum(rhs),rhsMax =  -7.97994615548557E+01  1.81722690241863E+00
(PID.TID 0000.0001)  ploadbar=  1.01055576505482E+05
 cg2d: Sum(rhs),rhsMax =  -7.97604107869754E+01  1.81798545615944E+00
(PID.TID 0000.0001)  ploadbar=  1.01053971843624E+05
 cg2d: Sum(rhs),rhsMax =  -7.97158096373234E+01  1.81886505305581E+00
(PID.TID 0000.0001)  ploadbar=  1.01052367181766E+05
 cg2d: Sum(rhs),rhsMax =  -7.96826559905114E+01  1.81947519812228E+00
(PID.TID 0000.0001)  ploadbar=  1.01050762519908E+05
 cg2d: Sum(rhs),rhsMax =  -7.96674360994807E+01  1.81965526243193E+00
(PID.TID 0000.0001)  ploadbar=  1.01049157858051E+05
 cg2d: Sum(rhs),rhsMax =  -7.96473887990718E+01  1.81997468243709E+00
(PID.TID 0000.0001)  ploadbar=  1.01046704035204E+05
 cg2d: Sum(rhs),rhsMax =  -7.96355916421335E+01  1.82012093200510E+00
(PID.TID 0000.0001)  ploadbar=  1.01044250212357E+05
 cg2d: Sum(rhs),rhsMax =  -7.96368911030595E+01  1.81997572986752E+00
(PID.TID 0000.0001)  ploadbar=  1.01041796389510E+05
 cg2d: Sum(rhs),rhsMax =  -7.96358756183637E+01  1.81988042666110E+00
(PID.TID 0000.0001)  ploadbar=  1.01039342566663E+05
 cg2d: Sum(rhs),rhsMax =  -7.96269328723227E+01  1.81995051028324E+00
(PID.TID 0000.0001)  ploadbar=  1.01036888743816E+05
 cg2d: Sum(rhs),rhsMax =  -7.96123604398375E+01  1.82011989608277E+00
(PID.TID 0000.0001)  ploadbar=  1.01034434920969E+05
 cg2d: Sum(rhs),rhsMax =  -7.95707329603346E+01  1.82089038945466E+00
(PID.TID 0000.0001)  ploadbar=  1.01033036701947E+05
 cg2d: Sum(rhs),rhsMax =  -7.95129683049691E+01  1.82200375609418E+00
(PID.TID 0000.0001)  ploadbar=  1.01031638482926E+05
 cg2d: Sum(rhs),rhsMax =  -7.94434355148583E+01  1.82335001680454E+00
(PID.TID 0000.0001)  ploadbar=  1.01030240263905E+05
 cg2d: Sum(rhs),rhsMax =  -7.93574262945214E+01  1.82502671872025E+00
(PID.TID 0000.0001)  ploadbar=  1.01028842044884E+05
 cg2d: Sum(rhs),rhsMax =  -7.92547790954673E+01  1.82703562230099E+00
(PID.TID 0000.0001)  ploadbar=  1.01027443825863E+05
 cg2d: Sum(rhs),rhsMax =  -7.91378431619874E+01  1.82932332280821E+00
(PID.TID 0000.0001)  ploadbar=  1.01026045606842E+05
 cg2d: Sum(rhs),rhsMax =  -7.90359877086381E+01  1.83134909808145E+00
(PID.TID 0000.0001)  ploadbar=  1.01025639326636E+05
 cg2d: Sum(rhs),rhsMax =  -7.89375815129866E+01  1.83336470276225E+00
(PID.TID 0000.0001)  ploadbar=  1.01025233046430E+05
 cg2d: Sum(rhs),rhsMax =  -7.88414726366712E+01  1.83538262585441E+00
(PID.TID 0000.0001)  ploadbar=  1.01024826766224E+05
 cg2d: Sum(rhs),rhsMax =  -7.87550539333478E+01  1.83721683752403E+00
(PID.TID 0000.0001)  ploadbar=  1.01024420486017E+05
 cg2d: Sum(rhs),rhsMax =  -7.86772018711274E+01  1.83887942814868E+00
(PID.TID 0000.0001)  ploadbar=  1.01024014205811E+05
 cg2d: Sum(rhs),rhsMax =  -7.86065772669016E+01  1.84039444202727E+00
(PID.TID 0000.0001)  ploadbar=  1.01023607925605E+05
 cg2d: Sum(rhs),rhsMax =  -7.85971889106545E+01  1.84044929829385E+00
(PID.TID 0000.0001)  ploadbar=  1.01024084654608E+05
 cg2d: Sum(rhs),rhsMax =  -7.86051175791486E+01  1.84006269583769E+00
(PID.TID 0000.0001)  ploadbar=  1.01024561383611E+05
 cg2d: Sum(rhs),rhsMax =  -7.86151656433281E+01  1.83958732008108E+00
(PID.TID 0000.0001)  ploadbar=  1.01025038112614E+05
 cg2d: Sum(rhs),rhsMax =  -7.86260143689374E+01  1.83905080812707E+00
(PID.TID 0000.0001)  ploadbar=  1.01025514841617E+05
 cg2d: Sum(rhs),rhsMax =  -7.86382459098537E+01  1.83843000500549E+00
(PID.TID 0000.0001)  ploadbar=  1.01025991570620E+05
 cg2d: Sum(rhs),rhsMax =  -7.86565985757322E+01  1.83760257325402E+00
(PID.TID 0000.0001)  ploadbar=  1.01026468299623E+05
 cg2d: Sum(rhs),rhsMax =  -7.87342858593184E+01  1.83543484660023E+00
(PID.TID 0000.0001)  ploadbar=  1.01026349296720E+05
 cg2d: Sum(rhs),rhsMax =  -7.88685161893517E+01  1.83199098954048E+00
(PID.TID 0000.0001)  ploadbar=  1.01026230293816E+05
 cg2d: Sum(rhs),rhsMax =  -7.90284661612077E+01  1.82799047703026E+00
(PID.TID 0000.0001)  ploadbar=  1.01026111290913E+05
 cg2d: Sum(rhs),rhsMax =  -7.92066170094393E+01  1.82360349990415E+00
(PID.TID 0000.0001)  ploadbar=  1.01025992288010E+05
 cg2d: Sum(rhs),rhsMax =  -7.94051835172608E+01  1.81876719785411E+00
(PID.TID 0000.0001)  ploadbar=  1.01025873285106E+05
 cg2d: Sum(rhs),rhsMax =  -7.96228814994832E+01  1.81350012305266E+00
(PID.TID 0000.0001)  ploadbar=  1.01025754282203E+05
 cg2d: Sum(rhs),rhsMax =  -7.98425953671848E+01  1.80819708805440E+00
(PID.TID 0000.0001)  ploadbar=  1.01024567189430E+05
 cg2d: Sum(rhs),rhsMax =  -8.00869436388929E+01  1.80233470647737E+00
(PID.TID 0000.0001)  ploadbar=  1.01023380096656E+05
 cg2d: Sum(rhs),rhsMax =  -8.03312401216047E+01  1.79646795702892E+00
(PID.TID 0000.0001)  ploadbar=  1.01022193003883E+05
 cg2d: Sum(rhs),rhsMax =  -8.05820453281825E+01  1.79044443549417E+00
(PID.TID 0000.0001)  ploadbar=  1.01021005911110E+05
 cg2d: Sum(rhs),rhsMax =  -8.08320322763708E+01  1.78442456352017E+00
(PID.TID 0000.0001)  ploadbar=  1.01019818818337E+05
 cg2d: Sum(rhs),rhsMax =  -8.10793994390796E+01  1.77844405065019E+00
(PID.TID 0000.0001)  ploadbar=  1.01018631725563E+05
 cg2d: Sum(rhs),rhsMax =  -8.12615553475707E+01  1.77402597813263E+00
(PID.TID 0000.0001)  ploadbar=  1.01017490181641E+05
 cg2d: Sum(rhs),rhsMax =  -8.14419220433625E+01  1.76975266559942E+00
(PID.TID 0000.0001)  ploadbar=  1.01016348637719E+05
 cg2d: Sum(rhs),rhsMax =  -8.16113958571922E+01  1.76580568704598E+00
(PID.TID 0000.0001)  ploadbar=  1.01015207093797E+05
 cg2d: Sum(rhs),rhsMax =  -8.17604948515114E+01  1.76237095981087E+00
(PID.TID 0000.0001)  ploadbar=  1.01014065549875E+05
 cg2d: Sum(rhs),rhsMax =  -8.18909284617942E+01  1.75939938761852E+00
(PID.TID 0000.0001)  ploadbar=  1.01012924005952E+05
 cg2d: Sum(rhs),rhsMax =  -8.20188711712296E+01  1.75653776198669E+00
(PID.TID 0000.0001)  ploadbar=  1.01011782462030E+05
 cg2d: Sum(rhs),rhsMax =  -8.20189218449560E+01  1.75644366559296E+00
(PID.TID 0000.0001)  ploadbar=  1.01010438487729E+05
 cg2d: Sum(rhs),rhsMax =  -8.19444247115376E+01  1.75796097651324E+00
(PID.TID 0000.0001)  ploadbar=  1.01009094513427E+05
 cg2d: Sum(rhs),rhsMax =  -8.18810855812565E+01  1.75925218809381E+00
(PID.TID 0000.0001)  ploadbar=  1.01007750539125E+05
 cg2d: Sum(rhs),rhsMax =  -8.19369607198930E+01  1.75799353215626E+00
(PID.TID 0000.0001)  ploadbar=  1.01006406564824E+05
 cg2d: Sum(rhs),rhsMax =  -8.22085673628552E+01  1.75213153114795E+00
(PID.TID 0000.0001)  ploadbar=  1.01005062590522E+05
 cg2d: Sum(rhs),rhsMax =  -8.26940665202780E+01  1.74178491316430E+00
(PID.TID 0000.0001)  ploadbar=  1.01003718616220E+05
 cg2d: Sum(rhs),rhsMax =  -8.32342879723155E+01  1.73045939798216E+00
(PID.TID 0000.0001)  ploadbar=  1.01002344153537E+05
 cg2d: Sum(rhs),rhsMax =  -8.37651176615982E+01  1.71950023791566E+00
(PID.TID 0000.0001)  ploadbar=  1.01000969690853E+05
 cg2d: Sum(rhs),rhsMax =  -8.42219137320917E+01  1.71019723944726E+00
(PID.TID 0000.0001)  ploadbar=  1.00999595228169E+05
 cg2d: Sum(rhs),rhsMax =  -8.46076170269074E+01  1.70242647593039E+00
(PID.TID 0000.0001)  ploadbar=  1.00998220765486E+05
 cg2d: Sum(rhs),rhsMax =  -8.50047510770178E+01  1.69448789154975E+00
(PID.TID 0000.0001)  ploadbar=  1.00996846302802E+05
 cg2d: Sum(rhs),rhsMax =  -8.52176865929686E+01  1.69024489941256E+00
(PID.TID 0000.0001)  ploadbar=  1.00995471840118E+05
 cg2d: Sum(rhs),rhsMax =  -8.51557082885428E+01  1.69144513498320E+00
(PID.TID 0000.0001)  ploadbar=  1.00994495286884E+05
 cg2d: Sum(rhs),rhsMax =  -8.51419213693566E+01  1.69166040597725E+00
(PID.TID 0000.0001)  ploadbar=  1.00993518733651E+05
 cg2d: Sum(rhs),rhsMax =  -8.51164208938452E+01  1.69207340907471E+00
(PID.TID 0000.0001)  ploadbar=  1.00992542180417E+05
 cg2d: Sum(rhs),rhsMax =  -8.50361964878350E+01  1.69353522462566E+00
(PID.TID 0000.0001)  ploadbar=  1.00991565627183E+05
 cg2d: Sum(rhs),rhsMax =  -8.49185764366558E+01  1.69569930329889E+00
(PID.TID 0000.0001)  ploadbar=  1.00990589073949E+05
 cg2d: Sum(rhs),rhsMax =  -8.47760073419657E+01  1.69831793572840E+00
(PID.TID 0000.0001)  ploadbar=  1.00989612520715E+05
 cg2d: Sum(rhs),rhsMax =  -8.47403466381656E+01  1.69890529565708E+00
(PID.TID 0000.0001)  ploadbar=  1.00989429139621E+05
 cg2d: Sum(rhs),rhsMax =  -8.47255986341610E+01  1.69916352594294E+00
(PID.TID 0000.0001)  ploadbar=  1.00989245758527E+05
 cg2d: Sum(rhs),rhsMax =  -8.47199527666033E+01  1.69931283871795E+00
(PID.TID 0000.0001)  ploadbar=  1.00989062377432E+05
 cg2d: Sum(rhs),rhsMax =  -8.47067586901783E+01  1.69967421406979E+00
(PID.TID 0000.0001)  ploadbar=  1.00988878996338E+05
 cg2d: Sum(rhs),rhsMax =  -8.46705790462997E+01  1.70053970158967E+00
(PID.TID 0000.0001)  ploadbar=  1.00988695615244E+05
 cg2d: Sum(rhs),rhsMax =  -8.46041535766060E+01  1.70205099950524E+00
(PID.TID 0000.0001)  ploadbar=  1.00988512234149E+05
 cg2d: Sum(rhs),rhsMax =  -8.43309963330405E+01  1.70773076639347E+00
(PID.TID 0000.0001)  ploadbar=  1.00989081207214E+05
 cg2d: Sum(rhs),rhsMax =  -8.39653300273718E+01  1.71531768430214E+00
(PID.TID 0000.0001)  ploadbar=  1.00989650180279E+05
 cg2d: Sum(rhs),rhsMax =  -8.34912310364167E+01  1.72518783212607E+00
(PID.TID 0000.0001)  ploadbar=  1.00990219153343E+05
 cg2d: Sum(rhs),rhsMax =  -8.29487399883244E+01  1.73657812950761E+00
(PID.TID 0000.0001)  ploadbar=  1.00990788126408E+05
 cg2d: Sum(rhs),rhsMax =  -8.23604594116873E+01  1.74906297114543E+00
(PID.TID 0000.0001)  ploadbar=  1.00991357099472E+05
 cg2d: Sum(rhs),rhsMax =  -8.17431373933580E+01  1.76231779612532E+00
(PID.TID 0000.0001)  ploadbar=  1.00991926072537E+05
 cg2d: Sum(rhs),rhsMax =  -8.09311534300832E+01  1.78004281945297E+00
(PID.TID 0000.0001)  ploadbar=  1.00993028721019E+05
 cg2d: Sum(rhs),rhsMax =  -7.99823575100959E+01  1.80118726575501E+00
(PID.TID 0000.0001)  ploadbar=  1.00994131369501E+05
 cg2d: Sum(rhs),rhsMax =  -7.89358824513714E+01  1.82506392458702E+00
(PID.TID 0000.0001)  ploadbar=  1.00995234017984E+05
 cg2d: Sum(rhs),rhsMax =  -7.79084261216341E+01  1.84908765671208E+00
(PID.TID 0000.0001)  ploadbar=  1.00996336666466E+05
 cg2d: Sum(rhs),rhsMax =  -7.69133383684235E+01  1.87290713658443E+00
(PID.TID 0000.0001)  ploadbar=  1.00997439314948E+05
 cg2d: Sum(rhs),rhsMax =  -7.59600481869183E+01  1.89623811595874E+00
(PID.TID 0000.0001)  ploadbar=  1.00998541963430E+05
 cg2d: Sum(rhs),rhsMax =  -7.51519477118187E+01  1.91642386421260E+00
(PID.TID 0000.0001)  ploadbar=  1.01001164703723E+05
 cg2d: Sum(rhs),rhsMax =  -7.44901993765234E+01  1.93320511258895E+00
(PID.TID 0000.0001)  ploadbar=  1.01003787444017E+05
 cg2d: Sum(rhs),rhsMax =  -7.39543615439445E+01  1.94691935799453E+00
(PID.TID 0000.0001)  ploadbar=  1.01006410184310E+05
 cg2d: Sum(rhs),rhsMax =  -7.34943582438874E+01  1.95875330873669E+00
(PID.TID 0000.0001)  ploadbar=  1.01009032924603E+05
 cg2d: Sum(rhs),rhsMax =  -7.31603246919496E+01  1.96727277895137E+00
(PID.TID 0000.0001)  ploadbar=  1.01011655664896E+05
 cg2d: Sum(rhs),rhsMax =  -6.86397491697834E+01  2.09630369294913E+00
(PID.TID 0000.0001)  ploadbar=  1.01014278405190E+05
 cg2d: Sum(rhs),rhsMax =  -6.46400780259503E+01  2.22558424208136E+00
(PID.TID 0000.0001)  ploadbar=  1.01016545521486E+05
 cg2d: Sum(rhs),rhsMax =  -6.08018534274597E+01  2.36574123358419E+00
(PID.TID 0000.0001)  ploadbar=  1.01018812637782E+05
 cg2d: Sum(rhs),rhsMax =  -5.70333005173025E+01  2.52178200495211E+00
(PID.TID 0000.0001)  ploadbar=  1.01021079754078E+05
 cg2d: Sum(rhs),rhsMax =  -5.34638899839401E+01  2.68989726891507E+00
(PID.TID 0000.0001)  ploadbar=  1.01023346870374E+05
 cg2d: Sum(rhs),rhsMax =  -5.01426434146838E+01  2.86785727327655E+00
(PID.TID 0000.0001)  ploadbar=  1.01025613986670E+05
 cg2d: Sum(rhs),rhsMax =  -4.70975900674184E+01  3.05311367504967E+00
(PID.TID 0000.0001)  ploadbar=  1.01027881102965E+05
 cg2d: Sum(rhs),rhsMax =  -4.43780328296859E+01  3.24007591356375E+00
(PID.TID 0000.0001)  ploadbar=  1.01030789601109E+05
 cg2d: Sum(rhs),rhsMax =  -4.19743140722049E+01  3.42548464396962E+00
(PID.TID 0000.0001)  ploadbar=  1.01033698099253E+05
 cg2d: Sum(rhs),rhsMax =  -3.98802233657805E+01  3.60518075762181E+00
(PID.TID 0000.0001)  ploadbar=  1.01036606597397E+05
 cg2d: Sum(rhs),rhsMax =  -3.80529869442483E+01  3.77807270646974E+00
(PID.TID 0000.0001)  ploadbar=  1.01039515095541E+05
 cg2d: Sum(rhs),rhsMax =  -3.64412912572591E+01  3.94487897121692E+00
(PID.TID 0000.0001)  ploadbar=  1.01042423593685E+05
 cg2d: Sum(rhs),rhsMax =  -3.50120665827589E+01  4.10553911744736E+00
(PID.TID 0000.0001)  ploadbar=  1.01045332091829E+05
 cg2d: Sum(rhs),rhsMax =  -3.38162688524383E+01  4.25034298623434E+00
(PID.TID 0000.0001)  ploadbar=  1.01047107492887E+05
 cg2d: Sum(rhs),rhsMax =  -3.28483895345406E+01  4.37517723464131E+00
(PID.TID 0000.0001)  ploadbar=  1.01048882893945E+05
 cg2d: Sum(rhs),rhsMax =  -3.21110084891549E+01  4.47518411808425E+00
(PID.TID 0000.0001)  ploadbar=  1.01050658295004E+05
 cg2d: Sum(rhs),rhsMax =  -3.15735693264565E+01  4.55079513578132E+00
(PID.TID 0000.0001)  ploadbar=  1.01052433696062E+05
 cg2d: Sum(rhs),rhsMax =  -3.11919071292660E+01  4.60577523348900E+00
(PID.TID 0000.0001)  ploadbar=  1.01054209097120E+05
 cg2d: Sum(rhs),rhsMax =  -3.09185085086594E+01  4.64562748700503E+00
(PID.TID 0000.0001)  ploadbar=  1.01055984498178E+05
 cg2d: Sum(rhs),rhsMax =  -3.06939566365348E+01  4.67870145933065E+00
(PID.TID 0000.0001)  ploadbar=  1.01058338061934E+05
 cg2d: Sum(rhs),rhsMax =  -3.05129994734496E+01  4.70546592423644E+00
(PID.TID 0000.0001)  ploadbar=  1.01060691625691E+05
 cg2d: Sum(rhs),rhsMax =  -3.03727960231824E+01  4.72611373341942E+00
(PID.TID 0000.0001)  ploadbar=  1.01063045189447E+05
 cg2d: Sum(rhs),rhsMax =  -3.02680066277452E+01  4.74129815829597E+00
(PID.TID 0000.0001)  ploadbar=  1.01065398753203E+05
 cg2d: Sum(rhs),rhsMax =  -3.02052487084477E+01  4.74985308586448E+00
(PID.TID 0000.0001)  ploadbar=  1.01067752316959E+05
 cg2d: Sum(rhs),rhsMax =  -3.02115595899966E+01  4.74744606890789E+00
(PID.TID 0000.0001)  ploadbar=  1.01070105880715E+05
 cg2d: Sum(rhs),rhsMax =  -3.04218203078733E+01  4.71348893996004E+00
(PID.TID 0000.0001)  ploadbar=  1.01071310237694E+05
 cg2d: Sum(rhs),rhsMax =  -3.07274293738949E+01  4.66568355139913E+00
(PID.TID 0000.0001)  ploadbar=  1.01072514594673E+05
 cg2d: Sum(rhs),rhsMax =  -3.11130236072730E+01  4.60710515885659E+00
(PID.TID 0000.0001)  ploadbar=  1.01073718951651E+05
 cg2d: Sum(rhs),rhsMax =  -3.15761184902492E+01  4.53890937746106E+00
(PID.TID 0000.0001)  ploadbar=  1.01074923308630E+05
 cg2d: Sum(rhs),rhsMax =  -3.21195009840707E+01  4.46160100424622E+00
(PID.TID 0000.0001)  ploadbar=  1.01076127665609E+05
 cg2d: Sum(rhs),rhsMax =  -3.27241715964079E+01  4.37872252661120E+00
(PID.TID 0000.0001)  ploadbar=  1.01077332022588E+05
 cg2d: Sum(rhs),rhsMax =  -3.28875029483625E+01  4.35657873227924E+00
(PID.TID 0000.0001)  ploadbar=  1.01077887013803E+05
 cg2d: Sum(rhs),rhsMax =  -3.30305926831355E+01  4.33732833518364E+00
(PID.TID 0000.0001)  ploadbar=  1.01078442005018E+05
 cg2d: Sum(rhs),rhsMax =  -3.31382801852187E+01  4.32284987656541E+00
(PID.TID 0000.0001)  ploadbar=  1.01078996996234E+05
 cg2d: Sum(rhs),rhsMax =  -3.31909398908208E+01  4.31558367276743E+00
(PID.TID 0000.0001)  ploadbar=  1.01079551987449E+05
 cg2d: Sum(rhs),rhsMax =  -3.31541458896033E+01  4.31991741587919E+00
(PID.TID 0000.0001)  ploadbar=  1.01080106978665E+05
 cg2d: Sum(rhs),rhsMax =  -3.31121358351125E+01  4.32486159394586E+00
(PID.TID 0000.0001)  ploadbar=  1.01080661969880E+05
 cg2d: Sum(rhs),rhsMax =  -3.32819708485691E+01  4.30223682499167E+00
(PID.TID 0000.0001)  ploadbar=  1.01080982710045E+05
 cg2d: Sum(rhs),rhsMax =  -3.35373353380942E+01  4.26888240937617E+00
(PID.TID 0000.0001)  ploadbar=  1.01081303450210E+05
 cg2d: Sum(rhs),rhsMax =  -3.38096540924443E+01  4.23382543392988E+00
(PID.TID 0000.0001)  ploadbar=  1.01081624190374E+05
 cg2d: Sum(rhs),rhsMax =  -3.40723476638507E+01  4.20040740544593E+00
(PID.TID 0000.0001)  ploadbar=  1.01081944930539E+05
 cg2d: Sum(rhs),rhsMax =  -3.43267160183659E+01  4.16838824170969E+00
(PID.TID 0000.0001)  ploadbar=  1.01082265670704E+05
 cg2d: Sum(rhs),rhsMax =  -3.45763492507950E+01  4.13727509404787E+00
(PID.TID 0000.0001)  ploadbar=  1.01082586410869E+05
 cg2d: Sum(rhs),rhsMax =  -3.48581455471470E+01  4.10283700421022E+00
(PID.TID 0000.0001)  ploadbar=  1.01082160799389E+05
 cg2d: Sum(rhs),rhsMax =  -3.51592497787310E+01  4.06670879970082E+00
(PID.TID 0000.0001)  ploadbar=  1.01081735187909E+05
 cg2d: Sum(rhs),rhsMax =  -3.54239340243410E+01  4.03531776978945E+00
(PID.TID 0000.0001)  ploadbar=  1.01081309576430E+05
 cg2d: Sum(rhs),rhsMax =  -3.56558076923423E+01  4.00805146030933E+00
(PID.TID 0000.0001)  ploadbar=  1.01080883964950E+05
 cg2d: Sum(rhs),rhsMax =  -3.60412874253389E+01  3.96414332993180E+00
(PID.TID 0000.0001)  ploadbar=  1.01080458353470E+05
 cg2d: Sum(rhs),rhsMax =  -3.64068341768215E+01  3.92326533080182E+00
(PID.TID 0000.0001)  ploadbar=  1.01080032741991E+05
 cg2d: Sum(rhs),rhsMax =  -3.68331452614214E+01  3.87698890363807E+00
(PID.TID 0000.0001)  ploadbar=  1.01079199508022E+05
 cg2d: Sum(rhs),rhsMax =  -3.72313048661653E+01  3.83483642040755E+00
(PID.TID 0000.0001)  ploadbar=  1.01078366274053E+05
 cg2d: Sum(rhs),rhsMax =  -3.75321611345306E+01  3.80355660921956E+00
(PID.TID 0000.0001)  ploadbar=  1.01077533040084E+05
 cg2d: Sum(rhs),rhsMax =  -3.77374444447604E+01  3.78244711906581E+00
(PID.TID 0000.0001)  ploadbar=  1.01076699806115E+05
 cg2d: Sum(rhs),rhsMax =  -3.78693501276195E+01  3.76894830072812E+00
(PID.TID 0000.0001)  ploadbar=  1.01075866572146E+05
 cg2d: Sum(rhs),rhsMax =  -3.79350721782929E+01  3.76217174227882E+00
(PID.TID 0000.0001)  ploadbar=  1.01075033338177E+05
 cg2d: Sum(rhs),rhsMax =  -3.80370347788726E+01  3.75186770967384E+00
(PID.TID 0000.0001)  ploadbar=  1.01074550733611E+05
 cg2d: Sum(rhs),rhsMax =  -3.82311859797312E+01  3.73260201110564E+00
(PID.TID 0000.0001)  ploadbar=  1.01074068129044E+05
 cg2d: Sum(rhs),rhsMax =  -3.85937821576353E+01  3.69731156585421E+00
(PID.TID 0000.0001)  ploadbar=  1.01073585524477E+05
 cg2d: Sum(rhs),rhsMax =  -3.91463676445736E+01  3.64487140439261E+00
(PID.TID 0000.0001)  ploadbar=  1.01073102919911E+05
 cg2d: Sum(rhs),rhsMax =  -3.97946331429494E+01  3.58520345987158E+00
(PID.TID 0000.0001)  ploadbar=  1.01072620315344E+05
 cg2d: Sum(rhs),rhsMax =  -4.05267531868683E+01  3.52008647046909E+00
(PID.TID 0000.0001)  ploadbar=  1.01072137710777E+05
 cg2d: Sum(rhs),rhsMax =  -4.13529835600638E+01  3.44945957224281E+00
(PID.TID 0000.0001)  ploadbar=  1.01072105149548E+05
 cg2d: Sum(rhs),rhsMax =  -4.22575323715598E+01  3.37536335024455E+00
(PID.TID 0000.0001)  ploadbar=  1.01072072588319E+05
 cg2d: Sum(rhs),rhsMax =  -4.32298997593699E+01  3.29919258835816E+00
(PID.TID 0000.0001)  ploadbar=  1.01072040027090E+05
 cg2d: Sum(rhs),rhsMax =  -4.42654914182513E+01  3.22173370066501E+00
(PID.TID 0000.0001)  ploadbar=  1.01072007465860E+05
 cg2d: Sum(rhs),rhsMax =  -4.53620524756590E+01  3.14353842692302E+00
(PID.TID 0000.0001)  ploadbar=  1.01071974904631E+05
 cg2d: Sum(rhs),rhsMax =  -4.65255121976125E+01  3.06456193149894E+00
(PID.TID 0000.0001)  ploadbar=  1.01071942343402E+05
 cg2d: Sum(rhs),rhsMax =  -4.76910953536364E+01  2.98927745702237E+00
(PID.TID 0000.0001)  ploadbar=  1.01071327913834E+05
 cg2d: Sum(rhs),rhsMax =  -4.88255183163743E+01  2.91940033577297E+00
(PID.TID 0000.0001)  ploadbar=  1.01070713484266E+05
 cg2d: Sum(rhs),rhsMax =  -4.98796786827161E+01  2.85723178360481E+00
(PID.TID 0000.0001)  ploadbar=  1.01070099054698E+05
 cg2d: Sum(rhs),rhsMax =  -5.08207005734720E+01  2.80379133087711E+00
(PID.TID 0000.0001)  ploadbar=  1.01069484625130E+05
 cg2d: Sum(rhs),rhsMax =  -5.16263580437746E+01  2.75943292499914E+00
(PID.TID 0000.0001)  ploadbar=  1.01068870195562E+05
 cg2d: Sum(rhs),rhsMax =  -5.22629841581353E+01  2.72513883052372E+00
(PID.TID 0000.0001)  ploadbar=  1.01068255765994E+05
 cg2d: Sum(rhs),rhsMax =  -5.27780189156335E+01  2.69802889476217E+00
(PID.TID 0000.0001)  ploadbar=  1.01068073246127E+05
 cg2d: Sum(rhs),rhsMax =  -5.32120058551936E+01  2.67564269919822E+00
(PID.TID 0000.0001)  ploadbar=  1.01067890726261E+05
 cg2d: Sum(rhs),rhsMax =  -5.35926931289694E+01  2.65636233295398E+00
(PID.TID 0000.0001)  ploadbar=  1.01067708206394E+05
 cg2d: Sum(rhs),rhsMax =  -5.39090541526704E+01  2.64056861269388E+00
(PID.TID 0000.0001)  ploadbar=  1.01067525686527E+05
 cg2d: Sum(rhs),rhsMax =  -5.41597900546519E+01  2.62819230371090E+00
(PID.TID 0000.0001)  ploadbar=  1.01067343166661E+05
 cg2d: Sum(rhs),rhsMax =  -5.43381322155481E+01  2.61946637341946E+00
(PID.TID 0000.0001)  ploadbar=  1.01067160646794E+05
 cg2d: Sum(rhs),rhsMax =  -5.44427016871112E+01  2.61434788198006E+00
(PID.TID 0000.0001)  ploadbar=  1.01067361060294E+05
 cg2d: Sum(rhs),rhsMax =  -5.44983173250246E+01  2.61158519953701E+00
(PID.TID 0000.0001)  ploadbar=  1.01067561473795E+05
 cg2d: Sum(rhs),rhsMax =  -5.45086935459027E+01  2.61098147154507E+00
(PID.TID 0000.0001)  ploadbar=  1.01067761887295E+05
 cg2d: Sum(rhs),rhsMax =  -5.44795823734910E+01  2.61225490130435E+00
(PID.TID 0000.0001)  ploadbar=  1.01067962300796E+05
 cg2d: Sum(rhs),rhsMax =  -5.44203113293197E+01  2.61495595036234E+00
(PID.TID 0000.0001)  ploadbar=  1.01068162714297E+05
 cg2d: Sum(rhs),rhsMax =  -5.43259254466547E+01  2.61932397838152E+00
(PID.TID 0000.0001)  ploadbar=  1.01068363127797E+05
 cg2d: Sum(rhs),rhsMax =  -5.42532442042585E+01  2.62269953576205E+00
(PID.TID 0000.0001)  ploadbar=  1.01069265232358E+05
 cg2d: Sum(rhs),rhsMax =  -5.42045027853063E+01  2.62494605219651E+00
(PID.TID 0000.0001)  ploadbar=  1.01070167336919E+05
 cg2d: Sum(rhs),rhsMax =  -5.41815270484060E+01  2.62594459143359E+00
(PID.TID 0000.0001)  ploadbar=  1.01071069441479E+05
 cg2d: Sum(rhs),rhsMax =  -5.41744150041406E+01  2.62614903228275E+00
(PID.TID 0000.0001)  ploadbar=  1.01071971546040E+05
 cg2d: Sum(rhs),rhsMax =  -5.41765371661289E+01  2.62585457804382E+00
(PID.TID 0000.0001)  ploadbar=  1.01072873650601E+05
 cg2d: Sum(rhs),rhsMax =  -5.41853794381540E+01  2.62516288815328E+00
(PID.TID 0000.0001)  ploadbar=  1.01073775755162E+05
 cg2d: Sum(rhs),rhsMax =  -5.41982299487882E+01  2.62425419194954E+00
(PID.TID 0000.0001)  ploadbar=  1.01074422790850E+05
 cg2d: Sum(rhs),rhsMax =  -5.42139351916463E+01  2.62317350936043E+00
(PID.TID 0000.0001)  ploadbar=  1.01075069826538E+05
 cg2d: Sum(rhs),rhsMax =  -5.42469401061362E+01  2.62121297517338E+00
(PID.TID 0000.0001)  ploadbar=  1.01075716862226E+05
 cg2d: Sum(rhs),rhsMax =  -5.42931292377370E+01  2.61856516951485E+00
(PID.TID 0000.0001)  ploadbar=  1.01076363897914E+05
 cg2d: Sum(rhs),rhsMax =  -5.43493325690117E+01  2.61538120806289E+00
(PID.TID 0000.0001)  ploadbar=  1.01077010933602E+05
 cg2d: Sum(rhs),rhsMax =  -5.44168144233346E+01  2.61159469436089E+00
(PID.TID 0000.0001)  ploadbar=  1.01077657969290E+05
 cg2d: Sum(rhs),rhsMax =  -5.45228252249242E+01  2.60612008317733E+00
(PID.TID 0000.0001)  ploadbar=  1.01077651943103E+05
 cg2d: Sum(rhs),rhsMax =  -5.46702954724900E+01  2.59880584839761E+00
(PID.TID 0000.0001)  ploadbar=  1.01077645916916E+05
 cg2d: Sum(rhs),rhsMax =  -5.48694915791682E+01  2.58916436066710E+00
(PID.TID 0000.0001)  ploadbar=  1.01077639890730E+05
 cg2d: Sum(rhs),rhsMax =  -5.51196873178405E+01  2.57727525645292E+00
(PID.TID 0000.0001)  ploadbar=  1.01077633864543E+05
 cg2d: Sum(rhs),rhsMax =  -5.54195971892814E+01  2.56325803323084E+00
(PID.TID 0000.0001)  ploadbar=  1.01077627838356E+05
 cg2d: Sum(rhs),rhsMax =  -5.57887084252411E+01  2.54629601608374E+00
(PID.TID 0000.0001)  ploadbar=  1.01077621812170E+05
 cg2d: Sum(rhs),rhsMax =  -5.62477644588608E+01  2.52548968734210E+00
(PID.TID 0000.0001)  ploadbar=  1.01079009584848E+05
 cg2d: Sum(rhs),rhsMax =  -5.68070312879472E+01  2.50056030828075E+00
(PID.TID 0000.0001)  ploadbar=  1.01080397357527E+05
 cg2d: Sum(rhs),rhsMax =  -5.74915760249197E+01  2.47067871909535E+00
(PID.TID 0000.0001)  ploadbar=  1.01081785130205E+05
 cg2d: Sum(rhs),rhsMax =  -5.83128213360773E+01  2.43573266482478E+00
(PID.TID 0000.0001)  ploadbar=  1.01083172902884E+05
 cg2d: Sum(rhs),rhsMax =  -5.92802400937806E+01  2.39578489426550E+00
(PID.TID 0000.0001)  ploadbar=  1.01084560675562E+05
 cg2d: Sum(rhs),rhsMax =  -6.04000739427368E+01  2.35110945400864E+00
(PID.TID 0000.0001)  ploadbar=  1.01085948448241E+05
 cg2d: Sum(rhs),rhsMax =  -6.15959123282262E+01  2.30524084097274E+00
(PID.TID 0000.0001)  ploadbar=  1.01086925408154E+05
 cg2d: Sum(rhs),rhsMax =  -6.28384100316996E+01  2.25945396999078E+00
(PID.TID 0000.0001)  ploadbar=  1.01087902368067E+05
 cg2d: Sum(rhs),rhsMax =  -6.41150628547517E+01  2.21426419875726E+00
(PID.TID 0000.0001)  ploadbar=  1.01088879327979E+05
 cg2d: Sum(rhs),rhsMax =  -6.54236139185550E+01  2.16975991237812E+00
(PID.TID 0000.0001)  ploadbar=  1.01089856287892E+05
 cg2d: Sum(rhs),rhsMax =  -6.67596242588129E+01  2.12607549943932E+00
(PID.TID 0000.0001)  ploadbar=  1.01090833247805E+05
 cg2d: Sum(rhs),rhsMax =  -6.81128100577074E+01  2.08351929150616E+00
(PID.TID 0000.0001)  ploadbar=  1.01091810207718E+05
 cg2d: Sum(rhs),rhsMax =  -6.94686146011238E+01  2.04256507883655E+00
(PID.TID 0000.0001)  ploadbar=  1.01091670770936E+05
 cg2d: Sum(rhs),rhsMax =  -7.08324938691005E+01  2.00295239836046E+00
(PID.TID 0000.0001)  ploadbar=  1.01091531334153E+05
 cg2d: Sum(rhs),rhsMax =  -7.21957453453807E+01  1.96484289389718E+00
(PID.TID 0000.0001)  ploadbar=  1.01091391897371E+05
 cg2d: Sum(rhs),rhsMax =  -7.35568040932359E+01  1.92817980751732E+00
(PID.TID 0000.0001)  ploadbar=  1.01091252460589E+05
 cg2d: Sum(rhs),rhsMax =  -7.49166796741572E+01  1.89284775575310E+00
(PID.TID 0000.0001)  ploadbar=  1.01091113023807E+05
 cg2d: Sum(rhs),rhsMax =  -7.62761856980201E+01  1.85874561246533E+00
(PID.TID 0000.0001)  ploadbar=  1.01090973587025E+05
 cg2d: Sum(rhs),rhsMax =  -7.77890237056723E+01  1.82234416235402E+00
(PID.TID 0000.0001)  ploadbar=  1.01090315171361E+05
 cg2d: Sum(rhs),rhsMax =  -7.95273295244971E+01  1.78234753579536E+00
(PID.TID 0000.0001)  ploadbar=  1.01089656755698E+05
 cg2d: Sum(rhs),rhsMax =  -8.15480101108705E+01  1.73808027230549E+00
(PID.TID 0000.0001)  ploadbar=  1.01088998340034E+05
 cg2d: Sum(rhs),rhsMax =  -8.39736204570391E+01  1.68782193025299E+00
(PID.TID 0000.0001)  ploadbar=  1.01088339924371E+05
 cg2d: Sum(rhs),rhsMax =  -8.68152157179489E+01  1.63256675981554E+00
(PID.TID 0000.0001)  ploadbar=  1.01087681508708E+05
 cg2d: Sum(rhs),rhsMax =  -8.94549589549730E+01  1.58441232571786E+00
(PID.TID 0000.0001)  ploadbar=  1.01087023093044E+05
 cg2d: Sum(rhs),rhsMax =  -8.73027050511631E+01  1.62350397850393E+00
(PID.TID 0000.0001)  ploadbar=  1.01087268087877E+05
 cg2d: Sum(rhs),rhsMax =  -8.52363968175318E+01  1.66289693140945E+00
(PID.TID 0000.0001)  ploadbar=  1.01087513082710E+05
 cg2d: Sum(rhs),rhsMax =  -8.33541458245532E+01  1.70048481463242E+00
(PID.TID 0000.0001)  ploadbar=  1.01087758077542E+05
 cg2d: Sum(rhs),rhsMax =  -8.16451874603082E+01  1.73611670331985E+00
(PID.TID 0000.0001)  ploadbar=  1.01088003072375E+05
 cg2d: Sum(rhs),rhsMax =  -8.00614564120091E+01  1.77048539119130E+00
(PID.TID 0000.0001)  ploadbar=  1.01088248067208E+05
 cg2d: Sum(rhs),rhsMax =  -7.85678789694570E+01  1.80414619244091E+00
(PID.TID 0000.0001)  ploadbar=  1.01088493062040E+05
 cg2d: Sum(rhs),rhsMax =  -7.72590328249147E+01  1.83474425542018E+00
(PID.TID 0000.0001)  ploadbar=  1.01088111225146E+05
 cg2d: Sum(rhs),rhsMax =  -7.61475348201679E+01  1.86157203822830E+00
(PID.TID 0000.0001)  ploadbar=  1.01087729388251E+05
 cg2d: Sum(rhs),rhsMax =  -7.52351821943239E+01  1.88419175878005E+00
(PID.TID 0000.0001)  ploadbar=  1.01087347551357E+05
 cg2d: Sum(rhs),rhsMax =  -7.45102025296218E+01  1.90255184892342E+00
(PID.TID 0000.0001)  ploadbar=  1.01086965714462E+05
 cg2d: Sum(rhs),rhsMax =  -7.39620118768358E+01  1.91664441003379E+00
(PID.TID 0000.0001)  ploadbar=  1.01086583877568E+05
 cg2d: Sum(rhs),rhsMax =  -7.35729959418702E+01  1.92672385629447E+00
(PID.TID 0000.0001)  ploadbar=  1.01086202040673E+05
 cg2d: Sum(rhs),rhsMax =  -7.32932525148533E+01  1.93403875654222E+00
(PID.TID 0000.0001)  ploadbar=  1.01086535921007E+05
 cg2d: Sum(rhs),rhsMax =  -7.30834863688830E+01  1.93955487253863E+00
(PID.TID 0000.0001)  ploadbar=  1.01086869801341E+05
 cg2d: Sum(rhs),rhsMax =  -7.29195696888391E+01  1.94387701462194E+00
(PID.TID 0000.0001)  ploadbar=  1.01087203681674E+05
 cg2d: Sum(rhs),rhsMax =  -7.27793379944053E+01  1.94757186106889E+00
(PID.TID 0000.0001)  ploadbar=  1.01087537562008E+05
 cg2d: Sum(rhs),rhsMax =  -7.26448314624226E+01  1.95110039209490E+00
(PID.TID 0000.0001)  ploadbar=  1.01087871442341E+05
 cg2d: Sum(rhs),rhsMax =  -7.25069465054024E+01  1.95469907910052E+00
(PID.TID 0000.0001)  ploadbar=  1.01088205322675E+05
 cg2d: Sum(rhs),rhsMax =  -7.22879769789734E+01  1.96058638386880E+00
(PID.TID 0000.0001)  ploadbar=  1.01087725972228E+05
 cg2d: Sum(rhs),rhsMax =  -7.19088237089666E+01  1.97094665224662E+00
(PID.TID 0000.0001)  ploadbar=  1.01087246621782E+05
 cg2d: Sum(rhs),rhsMax =  -7.13605397213127E+01  1.98613721481561E+00
(PID.TID 0000.0001)  ploadbar=  1.01086767271335E+05
 cg2d: Sum(rhs),rhsMax =  -7.07448792385853E+01  2.00347904744759E+00
(PID.TID 0000.0001)  ploadbar=  1.01086287920889E+05
 cg2d: Sum(rhs),rhsMax =  -7.02680265977498E+01  2.01712422149569E+00
(PID.TID 0000.0001)  ploadbar=  1.01085808570442E+05
 cg2d: Sum(rhs),rhsMax =  -7.02791926210598E+01  2.01683197317187E+00
(PID.TID 0000.0001)  ploadbar=  1.01085329219996E+05
 cg2d: Sum(rhs),rhsMax =  -7.03676368504487E+01  2.01431270475923E+00
(PID.TID 0000.0001)  ploadbar=  1.01085317849964E+05
 cg2d: Sum(rhs),rhsMax =  -7.04629237467744E+01  2.01157932257835E+00
(PID.TID 0000.0001)  ploadbar=  1.01085306479932E+05
 cg2d: Sum(rhs),rhsMax =  -7.05086122440724E+01  2.01023547277540E+00
(PID.TID 0000.0001)  ploadbar=  1.01085295109901E+05
 cg2d: Sum(rhs),rhsMax =  -7.04655057545665E+01  2.01138902950022E+00
(PID.TID 0000.0001)  ploadbar=  1.01085283739869E+05
 cg2d: Sum(rhs),rhsMax =  -7.03094192648416E+01  2.01573111927942E+00
(PID.TID 0000.0001)  ploadbar=  1.01085272369837E+05
 cg2d: Sum(rhs),rhsMax =  -7.00279313947111E+01  2.02364929476605E+00
(PID.TID 0000.0001)  ploadbar=  1.01085260999805E+05
 cg2d: Sum(rhs),rhsMax =  -6.96582112722257E+01  2.03422474203748E+00
(PID.TID 0000.0001)  ploadbar=  1.01083852654049E+05
 cg2d: Sum(rhs),rhsMax =  -6.92250692454006E+01  2.04679161150719E+00
(PID.TID 0000.0001)  ploadbar=  1.01082444308292E+05
 cg2d: Sum(rhs),rhsMax =  -6.87737602271113E+01  2.06005590614260E+00
(PID.TID 0000.0001)  ploadbar=  1.01081035962535E+05
 cg2d: Sum(rhs),rhsMax =  -6.83404955773283E+01  2.07292794846034E+00
(PID.TID 0000.0001)  ploadbar=  1.01079627616778E+05
 cg2d: Sum(rhs),rhsMax =  -6.79413627737767E+01  2.08487705350316E+00
(PID.TID 0000.0001)  ploadbar=  1.01078219271022E+05
 cg2d: Sum(rhs),rhsMax =  -6.75864931125621E+01  2.09554145430500E+00
(PID.TID 0000.0001)  ploadbar=  1.01076810925265E+05
 cg2d: Sum(rhs),rhsMax =  -6.72963149353050E+01  2.10431980552800E+00
(PID.TID 0000.0001)  ploadbar=  1.01076020861471E+05
 cg2d: Sum(rhs),rhsMax =  -6.70833978504032E+01  2.11075806073275E+00
(PID.TID 0000.0001)  ploadbar=  1.01075230797678E+05
 cg2d: Sum(rhs),rhsMax =  -6.69415172580299E+01  2.11500198351852E+00
(PID.TID 0000.0001)  ploadbar=  1.01074440733884E+05
 cg2d: Sum(rhs),rhsMax =  -6.68618817114623E+01  2.11729249112716E+00
(PID.TID 0000.0001)  ploadbar=  1.01073650670091E+05
 cg2d: Sum(rhs),rhsMax =  -6.68377662702788E+01  2.11782195177934E+00
(PID.TID 0000.0001)  ploadbar=  1.01072860606298E+05
 cg2d: Sum(rhs),rhsMax =  -6.68629195592589E+01  2.11677328877935E+00
(PID.TID 0000.0001)  ploadbar=  1.01072070542504E+05
 cg2d: Sum(rhs),rhsMax =  -6.69291648300995E+01  2.11451964450242E+00
(PID.TID 0000.0001)  ploadbar=  1.01072644046058E+05
 cg2d: Sum(rhs),rhsMax =  -6.70302968882610E+01  2.11123260568660E+00
(PID.TID 0000.0001)  ploadbar=  1.01073217549613E+05
 cg2d: Sum(rhs),rhsMax =  -6.71637319358192E+01  2.10697141343799E+00
(PID.TID 0000.0001)  ploadbar=  1.01073791053167E+05
 cg2d: Sum(rhs),rhsMax =  -6.73290865083196E+01  2.10174512972055E+00
(PID.TID 0000.0001)  ploadbar=  1.01074364556721E+05
 cg2d: Sum(rhs),rhsMax =  -6.75284291737663E+01  2.09549651617378E+00
(PID.TID 0000.0001)  ploadbar=  1.01074938060275E+05
 cg2d: Sum(rhs),rhsMax =  -6.77609803230967E+01  2.08826531608987E+00
(PID.TID 0000.0001)  ploadbar=  1.01075511563829E+05
 cg2d: Sum(rhs),rhsMax =  -6.79993465997282E+01  2.08091160278569E+00
(PID.TID 0000.0001)  ploadbar=  1.01075732430884E+05
 cg2d: Sum(rhs),rhsMax =  -6.82292342599476E+01  2.07387300150161E+00
(PID.TID 0000.0001)  ploadbar=  1.01075953297939E+05
 cg2d: Sum(rhs),rhsMax =  -6.84407149974558E+01  2.06744479039953E+00
(PID.TID 0000.0001)  ploadbar=  1.01076174164994E+05
 cg2d: Sum(rhs),rhsMax =  -6.86360924945301E+01  2.06154440006550E+00
(PID.TID 0000.0001)  ploadbar=  1.01076395032049E+05
 cg2d: Sum(rhs),rhsMax =  -6.88177260924758E+01  2.05607245214805E+00
(PID.TID 0000.0001)  ploadbar=  1.01076615899104E+05
 cg2d: Sum(rhs),rhsMax =  -6.89818108814342E+01  2.05111822412785E+00
(PID.TID 0000.0001)  ploadbar=  1.01076836766158E+05
 cg2d: Sum(rhs),rhsMax =  -6.91440748066346E+01  2.04625393836265E+00
(PID.TID 0000.0001)  ploadbar=  1.01077295934017E+05
 cg2d: Sum(rhs),rhsMax =  -6.93169307025874E+01  2.04109416372330E+00
(PID.TID 0000.0001)  ploadbar=  1.01077755101876E+05
 cg2d: Sum(rhs),rhsMax =  -6.95252622980438E+01  2.03490422345722E+00
(PID.TID 0000.0001)  ploadbar=  1.01078214269735E+05
 cg2d: Sum(rhs),rhsMax =  -6.98005937531869E+01  2.02677580825835E+00
(PID.TID 0000.0001)  ploadbar=  1.01078673437593E+05
 cg2d: Sum(rhs),rhsMax =  -7.01770276638602E+01  2.01576131465690E+00
(PID.TID 0000.0001)  ploadbar=  1.01079132605452E+05
 cg2d: Sum(rhs),rhsMax =  -7.06714788340164E+01  2.00145577444173E+00
(PID.TID 0000.0001)  ploadbar=  1.01079591773311E+05
 cg2d: Sum(rhs),rhsMax =  -7.14018289666836E+01  1.98081554174162E+00
(PID.TID 0000.0001)  ploadbar=  1.01080115811629E+05
 cg2d: Sum(rhs),rhsMax =  -7.23508606196282E+01  1.95468803772762E+00
(PID.TID 0000.0001)  ploadbar=  1.01080639849948E+05
 cg2d: Sum(rhs),rhsMax =  -7.34913193679472E+01  1.92421585671301E+00
(PID.TID 0000.0001)  ploadbar=  1.01081163888266E+05
 cg2d: Sum(rhs),rhsMax =  -7.47895227423678E+01  1.89067244263402E+00
(PID.TID 0000.0001)  ploadbar=  1.01081687926585E+05
 cg2d: Sum(rhs),rhsMax =  -7.62104490701104E+01  1.85527382804292E+00
(PID.TID 0000.0001)  ploadbar=  1.01082211964903E+05
 cg2d: Sum(rhs),rhsMax =  -7.77202291073825E+01  1.81907693924174E+00
(PID.TID 0000.0001)  ploadbar=  1.01082736003221E+05
 cg2d: Sum(rhs),rhsMax =  -7.93485981598917E+01  1.78166622381656E+00
(PID.TID 0000.0001)  ploadbar=  1.01083171392902E+05
 cg2d: Sum(rhs),rhsMax =  -8.11042140314620E+01  1.74305409025335E+00
(PID.TID 0000.0001)  ploadbar=  1.01083606782583E+05
 cg2d: Sum(rhs),rhsMax =  -8.30264633527768E+01  1.70267586805357E+00
(PID.TID 0000.0001)  ploadbar=  1.01084042172264E+05
 cg2d: Sum(rhs),rhsMax =  -8.51658424816704E+01  1.65990296614418E+00
(PID.TID 0000.0001)  ploadbar=  1.01084477561945E+05
 cg2d: Sum(rhs),rhsMax =  -8.75694311298434E+01  1.61435645290478E+00
(PID.TID 0000.0001)  ploadbar=  1.01084912951627E+05
 cg2d: Sum(rhs),rhsMax =  -9.02756430522724E+01  1.56599029539617E+00
(PID.TID 0000.0001)  ploadbar=  1.01085348341308E+05
 cg2d: Sum(rhs),rhsMax =  -9.31451085149647E+01  1.51779465830876E+00
(PID.TID 0000.0001)  ploadbar=  1.01086110034529E+05
 cg2d: Sum(rhs),rhsMax =  -9.60870651627379E+01  1.47138619851705E+00
(PID.TID 0000.0001)  ploadbar=  1.01086871727751E+05
 cg2d: Sum(rhs),rhsMax =  -9.89998521640345E+01  1.42817623806940E+00
(PID.TID 0000.0001)  ploadbar=  1.01087633420972E+05
 cg2d: Sum(rhs),rhsMax =  -1.01711551867669E+02  1.39018784434647E+00
(PID.TID 0000.0001)  ploadbar=  1.01088395114194E+05
 cg2d: Sum(rhs),rhsMax =  -1.04419210723385E+02  1.35421790081872E+00
(PID.TID 0000.0001)  ploadbar=  1.01089156807416E+05
 cg2d: Sum(rhs),rhsMax =  -1.06688788765684E+02  1.32546769431141E+00
(PID.TID 0000.0001)  ploadbar=  1.01089918500637E+05
 cg2d: Sum(rhs),rhsMax =  -1.08812320525663E+02  1.29966456082927E+00
(PID.TID 0000.0001)  ploadbar=  1.01089747346356E+05
 cg2d: Sum(rhs),rhsMax =  -1.10923817572702E+02  1.27498415255108E+00
(PID.TID 0000.0001)  ploadbar=  1.01089576192075E+05
 cg2d: Sum(rhs),rhsMax =  -1.13169004678968E+02  1.24973277881317E+00
(PID.TID 0000.0001)  ploadbar=  1.01089405037794E+05
 cg2d: Sum(rhs),rhsMax =  -1.15685132202506E+02  1.22257088982214E+00
(PID.TID 0000.0001)  ploadbar=  1.01089233883513E+05
 cg2d: Sum(rhs),rhsMax =  -1.18576501060330E+02  1.19275099751078E+00
(PID.TID 0000.0001)  ploadbar=  1.01089062729232E+05
 cg2d: Sum(rhs),rhsMax =  -1.21945823888994E+02  1.15976008821713E+00
(PID.TID 0000.0001)  ploadbar=  1.01088891574951E+05
 cg2d: Sum(rhs),rhsMax =  -1.25103172156875E+02  1.13046433177814E+00
(PID.TID 0000.0001)  ploadbar=  1.01087897234371E+05
 cg2d: Sum(rhs),rhsMax =  -1.25707516661142E+02  1.12500360516672E+00
(PID.TID 0000.0001)  ploadbar=  1.01086902893790E+05
 cg2d: Sum(rhs),rhsMax =  -1.26448580706875E+02  1.11838248617866E+00
(PID.TID 0000.0001)  ploadbar=  1.01085908553209E+05
 cg2d: Sum(rhs),rhsMax =  -1.27244891788500E+02  1.11134434869095E+00
(PID.TID 0000.0001)  ploadbar=  1.01084914212628E+05
 cg2d: Sum(rhs),rhsMax =  -1.27965509370931E+02  1.10502544872038E+00
(PID.TID 0000.0001)  ploadbar=  1.01083919872048E+05
 cg2d: Sum(rhs),rhsMax =  -1.28389891528650E+02  1.10128612014306E+00
(PID.TID 0000.0001)  ploadbar=  1.01082925531467E+05
 cg2d: Sum(rhs),rhsMax =  -1.29107598224990E+02  1.09511156877473E+00
(PID.TID 0000.0001)  ploadbar=  1.01082320228132E+05
 cg2d: Sum(rhs),rhsMax =  -1.29456844695427E+02  1.09211923649857E+00
(PID.TID 0000.0001)  ploadbar=  1.01081714924797E+05
 cg2d: Sum(rhs),rhsMax =  -1.29847648399272E+02  1.08880470426105E+00
(PID.TID 0000.0001)  ploadbar=  1.01081109621463E+05
 cg2d: Sum(rhs),rhsMax =  -1.30369969337222E+02  1.08442534697294E+00
(PID.TID 0000.0001)  ploadbar=  1.01080504318128E+05
 cg2d: Sum(rhs),rhsMax =  -1.31232896793784E+02  1.07728787953244E+00
(PID.TID 0000.0001)  ploadbar=  1.01079899014793E+05
 cg2d: Sum(rhs),rhsMax =  -1.31594225946175E+02  1.07433313504684E+00
(PID.TID 0000.0001)  ploadbar=  1.01079293711458E+05
 cg2d: Sum(rhs),rhsMax =  -1.31691710802702E+02  1.07355691740151E+00
(PID.TID 0000.0001)  ploadbar=  1.01078429904125E+05
 cg2d: Sum(rhs),rhsMax =  -1.31735706692191E+02  1.07322630569717E+00
(PID.TID 0000.0001)  ploadbar=  1.01077566096792E+05
 cg2d: Sum(rhs),rhsMax =  -1.31751022219575E+02  1.07313601806962E+00
(PID.TID 0000.0001)  ploadbar=  1.01076702289458E+05
 cg2d: Sum(rhs),rhsMax =  -1.31748463617824E+02  1.07319436895438E+00
(PID.TID 0000.0001)  ploadbar=  1.01075838482125E+05
 cg2d: Sum(rhs),rhsMax =  -1.30739102277769E+02  1.08151815359458E+00
(PID.TID 0000.0001)  ploadbar=  1.01074974674791E+05
 cg2d: Sum(rhs),rhsMax =  -1.28194272148898E+02  1.10302316851345E+00
(PID.TID 0000.0001)  ploadbar=  1.01074110867458E+05
 cg2d: Sum(rhs),rhsMax =  -1.25433865345289E+02  1.12732407698782E+00
(PID.TID 0000.0001)  ploadbar=  1.01073057279495E+05
 cg2d: Sum(rhs),rhsMax =  -1.22795900166745E+02  1.15154709862581E+00
(PID.TID 0000.0001)  ploadbar=  1.01072003691532E+05
 cg2d: Sum(rhs),rhsMax =  -1.21800172310776E+02  1.16093418171831E+00
(PID.TID 0000.0001)  ploadbar=  1.01070950103569E+05
 cg2d: Sum(rhs),rhsMax =  -1.21181631639758E+02  1.16679644951769E+00
(PID.TID 0000.0001)  ploadbar=  1.01069896515607E+05
 cg2d: Sum(rhs),rhsMax =  -1.20414994428115E+02  1.17412263188582E+00
(PID.TID 0000.0001)  ploadbar=  1.01068842927644E+05
 cg2d: Sum(rhs),rhsMax =  -1.19602318386935E+02  1.18195468973932E+00
(PID.TID 0000.0001)  ploadbar=  1.01067789339681E+05
 cg2d: Sum(rhs),rhsMax =  -1.19552805985657E+02  1.18228961080426E+00
(PID.TID 0000.0001)  ploadbar=  1.01067341780322E+05
 cg2d: Sum(rhs),rhsMax =  -1.19829428684017E+02  1.17939430881046E+00
(PID.TID 0000.0001)  ploadbar=  1.01066894220962E+05
 cg2d: Sum(rhs),rhsMax =  -1.17269286379208E+02  1.20495387690736E+00
(PID.TID 0000.0001)  ploadbar=  1.01066446661603E+05
 cg2d: Sum(rhs),rhsMax =  -1.14628143501546E+02  1.23250183179557E+00
(PID.TID 0000.0001)  ploadbar=  1.01065999102244E+05
 cg2d: Sum(rhs),rhsMax =  -1.12409467792340E+02  1.25658119420332E+00
(PID.TID 0000.0001)  ploadbar=  1.01065551542884E+05
 cg2d: Sum(rhs),rhsMax =  -1.10536709942765E+02  1.27758911833833E+00
(PID.TID 0000.0001)  ploadbar=  1.01065103983525E+05
 cg2d: Sum(rhs),rhsMax =  -1.08862653403174E+02  1.29699449972821E+00
(PID.TID 0000.0001)  ploadbar=  1.01064135629359E+05
 cg2d: Sum(rhs),rhsMax =  -1.07448978951726E+02  1.31384247548024E+00
(PID.TID 0000.0001)  ploadbar=  1.01063167275193E+05
 cg2d: Sum(rhs),rhsMax =  -1.06203821034365E+02  1.32905090107948E+00
(PID.TID 0000.0001)  ploadbar=  1.01062198921027E+05
 cg2d: Sum(rhs),rhsMax =  -1.05109027994004E+02  1.34271515995665E+00
(PID.TID 0000.0001)  ploadbar=  1.01061230566860E+05
 cg2d: Sum(rhs),rhsMax =  -1.04152293678918E+02  1.35488415957796E+00
(PID.TID 0000.0001)  ploadbar=  1.01060262212694E+05
 cg2d: Sum(rhs),rhsMax =  -1.03330524630604E+02  1.36551219225396E+00
(PID.TID 0000.0001)  ploadbar=  1.01059293858528E+05
 cg2d: Sum(rhs),rhsMax =  -1.02659888581615E+02  1.37430604227990E+00
(PID.TID 0000.0001)  ploadbar=  1.01058827564707E+05
 cg2d: Sum(rhs),rhsMax =  -1.02130222233996E+02  1.38132221157763E+00
(PID.TID 0000.0001)  ploadbar=  1.01058361270887E+05
 cg2d: Sum(rhs),rhsMax =  -1.01712297465995E+02  1.38690001429215E+00
(PID.TID 0000.0001)  ploadbar=  1.01057894977066E+05
 cg2d: Sum(rhs),rhsMax =  -1.01379790691603E+02  1.39135849346244E+00
(PID.TID 0000.0001)  ploadbar=  1.01057428683246E+05
 cg2d: Sum(rhs),rhsMax =  -1.01150665965437E+02  1.39442307561178E+00
(PID.TID 0000.0001)  ploadbar=  1.01056962389425E+05
 cg2d: Sum(rhs),rhsMax =  -1.01042193792432E+02  1.39583407840476E+00
(PID.TID 0000.0001)  ploadbar=  1.01056496095605E+05
 cg2d: Sum(rhs),rhsMax =  -1.01102156587736E+02  1.39493595629344E+00
(PID.TID 0000.0001)  ploadbar=  1.01055692146475E+05
 cg2d: Sum(rhs),rhsMax =  -1.01319794936475E+02  1.39187523891652E+00
(PID.TID 0000.0001)  ploadbar=  1.01054888197346E+05
 cg2d: Sum(rhs),rhsMax =  -1.00573238845756E+02  1.40214392189745E+00
(PID.TID 0000.0001)  ploadbar=  1.01054084248216E+05
 cg2d: Sum(rhs),rhsMax =  -9.85866355795728E+01  1.43033684192482E+00
(PID.TID 0000.0001)  ploadbar=  1.01053280299087E+05
 cg2d: Sum(rhs),rhsMax =  -9.66494632306655E+01  1.45894488927702E+00
(PID.TID 0000.0001)  ploadbar=  1.01052476349957E+05
 cg2d: Sum(rhs),rhsMax =  -9.47503982844544E+01  1.48811475386651E+00
(PID.TID 0000.0001)  ploadbar=  1.01051672400828E+05
 cg2d: Sum(rhs),rhsMax =  -9.28840336285233E+01  1.51793773542022E+00
(PID.TID 0000.0001)  ploadbar=  1.01050797868151E+05
 cg2d: Sum(rhs),rhsMax =  -9.11059924758124E+01  1.54746922825497E+00
(PID.TID 0000.0001)  ploadbar=  1.01049923335473E+05
 cg2d: Sum(rhs),rhsMax =  -8.94562671841634E+01  1.57589285363166E+00
(PID.TID 0000.0001)  ploadbar=  1.01049048802796E+05
 cg2d: Sum(rhs),rhsMax =  -8.77113358459172E+01  1.60710708765543E+00
(PID.TID 0000.0001)  ploadbar=  1.01048174270119E+05
 cg2d: Sum(rhs),rhsMax =  -8.61175541429172E+01  1.63669129407733E+00
(PID.TID 0000.0001)  ploadbar=  1.01047299737441E+05
 cg2d: Sum(rhs),rhsMax =  -8.46549853113915E+01  1.66478527473396E+00
(PID.TID 0000.0001)  ploadbar=  1.01046425204764E+05
 cg2d: Sum(rhs),rhsMax =  -8.32757172669963E+01  1.69224183053543E+00
(PID.TID 0000.0001)  ploadbar=  1.01044666812121E+05
 cg2d: Sum(rhs),rhsMax =  -8.19845715135646E+01  1.71881722907720E+00
(PID.TID 0000.0001)  ploadbar=  1.01042908419478E+05
 cg2d: Sum(rhs),rhsMax =  -8.07609267559879E+01  1.74481350935431E+00
(PID.TID 0000.0001)  ploadbar=  1.01041150026834E+05
 cg2d: Sum(rhs),rhsMax =  -7.96012709332132E+01  1.77020877418818E+00
(PID.TID 0000.0001)  ploadbar=  1.01039391634191E+05
 cg2d: Sum(rhs),rhsMax =  -7.85340302523992E+01  1.79425768985897E+00
(PID.TID 0000.0001)  ploadbar=  1.01037633241548E+05
 cg2d: Sum(rhs),rhsMax =  -7.76024644110194E+01  1.81580491516604E+00
(PID.TID 0000.0001)  ploadbar=  1.01035874848905E+05
 cg2d: Sum(rhs),rhsMax =  -7.68385664290976E+01  1.83388098610102E+00
(PID.TID 0000.0001)  ploadbar=  1.01035761598783E+05
 cg2d: Sum(rhs),rhsMax =  -7.62877792235930E+01  1.84715195735782E+00
(PID.TID 0000.0001)  ploadbar=  1.01035648348661E+05
 cg2d: Sum(rhs),rhsMax =  -7.59968280294932E+01  1.85425931645463E+00
(PID.TID 0000.0001)  ploadbar=  1.01035535098539E+05
 cg2d: Sum(rhs),rhsMax =  -7.42361485853191E+01  1.89827180826730E+00
(PID.TID 0000.0001)  ploadbar=  1.01035421848418E+05
 cg2d: Sum(rhs),rhsMax =  -7.19746152166501E+01  1.95795356478537E+00
(PID.TID 0000.0001)  ploadbar=  1.01035308598296E+05
 cg2d: Sum(rhs),rhsMax =  -7.00530600116709E+01  2.01169466253720E+00
(PID.TID 0000.0001)  ploadbar=  1.01035195348174E+05
 cg2d: Sum(rhs),rhsMax =  -6.84329594400646E+01  2.05937816220404E+00
(PID.TID 0000.0001)  ploadbar=  1.01034248035384E+05
 cg2d: Sum(rhs),rhsMax =  -6.70154496224545E+01  2.10300766486247E+00
(PID.TID 0000.0001)  ploadbar=  1.01033300722593E+05
 cg2d: Sum(rhs),rhsMax =  -6.57911569719521E+01  2.14220863568379E+00
(PID.TID 0000.0001)  ploadbar=  1.01032353409803E+05
 cg2d: Sum(rhs),rhsMax =  -6.47288315797354E+01  2.17741121410476E+00
(PID.TID 0000.0001)  ploadbar=  1.01031406097013E+05
 cg2d: Sum(rhs),rhsMax =  -6.38067667174745E+01  2.20888233167023E+00
(PID.TID 0000.0001)  ploadbar=  1.01030458784222E+05
 cg2d: Sum(rhs),rhsMax =  -6.30027477274913E+01  2.23702104482603E+00
(PID.TID 0000.0001)  ploadbar=  1.01029511471432E+05
 cg2d: Sum(rhs),rhsMax =  -6.22593251265545E+01  2.26365792501315E+00
(PID.TID 0000.0001)  ploadbar=  1.01030461059375E+05
 cg2d: Sum(rhs),rhsMax =  -6.15736227866227E+01  2.28875721279587E+00
(PID.TID 0000.0001)  ploadbar=  1.01031410647319E+05
 cg2d: Sum(rhs),rhsMax =  -6.09299797314655E+01  2.31278852567873E+00
(PID.TID 0000.0001)  ploadbar=  1.01032360235262E+05
 cg2d: Sum(rhs),rhsMax =  -6.03253113618324E+01  2.33578004751895E+00
(PID.TID 0000.0001)  ploadbar=  1.01033309823206E+05
 cg2d: Sum(rhs),rhsMax =  -5.98620817354777E+01  2.35361885100968E+00
(PID.TID 0000.0001)  ploadbar=  1.01034259411149E+05
 cg2d: Sum(rhs),rhsMax =  -5.95982281805123E+01  2.36375482632887E+00
(PID.TID 0000.0001)  ploadbar=  1.01035208999093E+05
 cg2d: Sum(rhs),rhsMax =  -5.94758817161366E+01  2.36841395341804E+00
(PID.TID 0000.0001)  ploadbar=  1.01037263178513E+05
 cg2d: Sum(rhs),rhsMax =  -5.95168724103407E+01  2.36663642606709E+00
(PID.TID 0000.0001)  ploadbar=  1.01039317357933E+05
 cg2d: Sum(rhs),rhsMax =  -5.97000431038126E+01  2.35926792090013E+00
(PID.TID 0000.0001)  ploadbar=  1.01041371537353E+05
 cg2d: Sum(rhs),rhsMax =  -6.00266207081956E+01  2.34634996070241E+00
(PID.TID 0000.0001)  ploadbar=  1.01043425716773E+05
 cg2d: Sum(rhs),rhsMax =  -6.04839784514133E+01  2.32854370007734E+00
(PID.TID 0000.0001)  ploadbar=  1.01045479896193E+05
 cg2d: Sum(rhs),rhsMax =  -6.09990228476430E+01  2.30884120091895E+00
(PID.TID 0000.0001)  ploadbar=  1.01047534075613E+05
 cg2d: Sum(rhs),rhsMax =  -6.14682777005550E+01  2.29118810632994E+00
(PID.TID 0000.0001)  ploadbar=  1.01049022910155E+05
 cg2d: Sum(rhs),rhsMax =  -6.19002203571329E+01  2.27516890104091E+00
(PID.TID 0000.0001)  ploadbar=  1.01050511744697E+05
 cg2d: Sum(rhs),rhsMax =  -6.22935678851383E+01  2.26076565521932E+00
(PID.TID 0000.0001)  ploadbar=  1.01052000579239E+05
 cg2d: Sum(rhs),rhsMax =  -6.26635051848552E+01  2.24738130817400E+00
(PID.TID 0000.0001)  ploadbar=  1.01053489413780E+05
 cg2d: Sum(rhs),rhsMax =  -6.30212517745474E+01  2.23458885333365E+00
(PID.TID 0000.0001)  ploadbar=  1.01054978248322E+05
 cg2d: Sum(rhs),rhsMax =  -6.33592104272987E+01  2.22263354806598E+00
(PID.TID 0000.0001)  ploadbar=  1.01056467082864E+05
 cg2d: Sum(rhs),rhsMax =  -6.35243255220460E+01  2.21688164059064E+00
(PID.TID 0000.0001)  ploadbar=  1.01057784765472E+05
 cg2d: Sum(rhs),rhsMax =  -6.34547638627403E+01  2.21936355090679E+00
(PID.TID 0000.0001)  ploadbar=  1.01059102448081E+05
 cg2d: Sum(rhs),rhsMax =  -6.31227830839302E+01  2.23110043690015E+00
(PID.TID 0000.0001)  ploadbar=  1.01060420130689E+05
 cg2d: Sum(rhs),rhsMax =  -6.25429519489573E+01  2.25185722351726E+00
(PID.TID 0000.0001)  ploadbar=  1.01061737813297E+05
 cg2d: Sum(rhs),rhsMax =  -6.19150115203492E+01  2.27476493765151E+00
(PID.TID 0000.0001)  ploadbar=  1.01063055495905E+05
 cg2d: Sum(rhs),rhsMax =  -6.12570851642754E+01  2.29927227979098E+00
(PID.TID 0000.0001)  ploadbar=  1.01064373178514E+05
 cg2d: Sum(rhs),rhsMax =  -6.05957104708076E+01  2.32444818205645E+00
(PID.TID 0000.0001)  ploadbar=  1.01065924456343E+05
 cg2d: Sum(rhs),rhsMax =  -6.01153724357734E+01  2.34308422430081E+00
(PID.TID 0000.0001)  ploadbar=  1.01067475734172E+05
 cg2d: Sum(rhs),rhsMax =  -5.98145875751339E+01  2.35490225858534E+00
(PID.TID 0000.0001)  ploadbar=  1.01069027012002E+05
 cg2d: Sum(rhs),rhsMax =  -5.96425331606700E+01  2.36170325381958E+00
(PID.TID 0000.0001)  ploadbar=  1.01070578289831E+05
 cg2d: Sum(rhs),rhsMax =  -5.94142457823551E+01  2.37075338406738E+00
(PID.TID 0000.0001)  ploadbar=  1.01072129567660E+05
 cg2d: Sum(rhs),rhsMax =  -5.92463016516370E+01  2.37740823492033E+00
(PID.TID 0000.0001)  ploadbar=  1.01073680845490E+05
 cg2d: Sum(rhs),rhsMax =  -5.91291320750664E+01  2.38216644195752E+00
(PID.TID 0000.0001)  ploadbar=  1.01075478000331E+05
 cg2d: Sum(rhs),rhsMax =  -5.90371495744256E+01  2.38600975049386E+00
(PID.TID 0000.0001)  ploadbar=  1.01077275155173E+05
 cg2d: Sum(rhs),rhsMax =  -5.89874519400910E+01  2.38821753335312E+00
(PID.TID 0000.0001)  ploadbar=  1.01079072310015E+05
 cg2d: Sum(rhs),rhsMax =  -5.89769022489065E+01  2.38889690040835E+00
(PID.TID 0000.0001)  ploadbar=  1.01080869464856E+05
 cg2d: Sum(rhs),rhsMax =  -5.90108076011436E+01  2.38782057872243E+00
(PID.TID 0000.0001)  ploadbar=  1.01082666619698E+05
 cg2d: Sum(rhs),rhsMax =  -5.91034340981165E+01  2.38440864111531E+00
(PID.TID 0000.0001)  ploadbar=  1.01084463774539E+05
 cg2d: Sum(rhs),rhsMax =  -5.92853612768261E+01  2.37740509800853E+00
(PID.TID 0000.0001)  ploadbar=  1.01085328530702E+05
 cg2d: Sum(rhs),rhsMax =  -5.95326694552623E+01  2.36781760733105E+00
(PID.TID 0000.0001)  ploadbar=  1.01086193286865E+05
 cg2d: Sum(rhs),rhsMax =  -5.98474080461211E+01  2.35563416080671E+00
(PID.TID 0000.0001)  ploadbar=  1.01087058043027E+05
 cg2d: Sum(rhs),rhsMax =  -6.02186802401030E+01  2.34135686670427E+00
(PID.TID 0000.0001)  ploadbar=  1.01087922799190E+05
 cg2d: Sum(rhs),rhsMax =  -6.06643212838621E+01  2.32437820557845E+00
(PID.TID 0000.0001)  ploadbar=  1.01088787555352E+05
 cg2d: Sum(rhs),rhsMax =  -6.11743530268327E+01  2.30519380312384E+00
(PID.TID 0000.0001)  ploadbar=  1.01089652311515E+05
 cg2d: Sum(rhs),rhsMax =  -6.17647908028445E+01  2.28340290484205E+00
(PID.TID 0000.0001)  ploadbar=  1.01089881012785E+05
 cg2d: Sum(rhs),rhsMax =  -6.23072866387146E+01  2.26379107700906E+00
(PID.TID 0000.0001)  ploadbar=  1.01090109714055E+05
 cg2d: Sum(rhs),rhsMax =  -6.27704201106860E+01  2.24736255632384E+00
(PID.TID 0000.0001)  ploadbar=  1.01090338415325E+05
 cg2d: Sum(rhs),rhsMax =  -6.31183087282789E+01  2.23524368071349E+00
(PID.TID 0000.0001)  ploadbar=  1.01090567116595E+05
 cg2d: Sum(rhs),rhsMax =  -6.33563813702545E+01  2.22709668077262E+00
(PID.TID 0000.0001)  ploadbar=  1.01090795817864E+05
 cg2d: Sum(rhs),rhsMax =  -6.34744416671428E+01  2.22319059077483E+00
(PID.TID 0000.0001)  ploadbar=  1.01091024519134E+05
 cg2d: Sum(rhs),rhsMax =  -6.34942666689427E+01  2.22269838170168E+00
(PID.TID 0000.0001)  ploadbar=  1.01091407586066E+05
 cg2d: Sum(rhs),rhsMax =  -6.34235748600153E+01  2.22533476126136E+00
(PID.TID 0000.0001)  ploadbar=  1.01091790652997E+05
 cg2d: Sum(rhs),rhsMax =  -6.32521190792211E+01  2.23147911224611E+00
(PID.TID 0000.0001)  ploadbar=  1.01092173719928E+05
 cg2d: Sum(rhs),rhsMax =  -6.30611250237325E+01  2.23829914323913E+00
(PID.TID 0000.0001)  ploadbar=  1.01092556786860E+05
 cg2d: Sum(rhs),rhsMax =  -6.28727533958486E+01  2.24500875880454E+00
(PID.TID 0000.0001)  ploadbar=  1.01092939853791E+05
 cg2d: Sum(rhs),rhsMax =  -6.27115174649023E+01  2.25071823824342E+00
(PID.TID 0000.0001)  ploadbar=  1.01093322920723E+05
 cg2d: Sum(rhs),rhsMax =  -6.25138403611299E+01  2.25785729771504E+00
(PID.TID 0000.0001)  ploadbar=  1.01093234217025E+05
 cg2d: Sum(rhs),rhsMax =  -6.23361876252660E+01  2.26437277647553E+00
(PID.TID 0000.0001)  ploadbar=  1.01093145513328E+05
 cg2d: Sum(rhs),rhsMax =  -6.21776257245761E+01  2.27026833744148E+00
(PID.TID 0000.0001)  ploadbar=  1.01093056809630E+05
 cg2d: Sum(rhs),rhsMax =  -6.20138083230222E+01  2.27641294812825E+00
(PID.TID 0000.0001)  ploadbar=  1.01092968105932E+05
 cg2d: Sum(rhs),rhsMax =  -6.18398544956234E+01  2.28298096703558E+00
(PID.TID 0000.0001)  ploadbar=  1.01092879402235E+05
 cg2d: Sum(rhs),rhsMax =  -6.16356352431238E+01  2.29072751259965E+00
(PID.TID 0000.0001)  ploadbar=  1.01092790698537E+05
 cg2d: Sum(rhs),rhsMax =  -6.14351733777876E+01  2.29833994628976E+00
(PID.TID 0000.0001)  ploadbar=  1.01092998235478E+05
 cg2d: Sum(rhs),rhsMax =  -6.12309633576150E+01  2.30609238964399E+00
(PID.TID 0000.0001)  ploadbar=  1.01093205772418E+05
 cg2d: Sum(rhs),rhsMax =  -6.10011007257939E+01  2.31482169483683E+00
(PID.TID 0000.0001)  ploadbar=  1.01093413309358E+05
 cg2d: Sum(rhs),rhsMax =  -6.07550067400102E+01  2.32418103623230E+00
(PID.TID 0000.0001)  ploadbar=  1.01093620846299E+05
 cg2d: Sum(rhs),rhsMax =  -6.05159546238938E+01  2.33327849169588E+00
(PID.TID 0000.0001)  ploadbar=  1.01093828383239E+05
 cg2d: Sum(rhs),rhsMax =  -6.03058672246150E+01  2.34124969446850E+00
(PID.TID 0000.0001)  ploadbar=  1.01094035920180E+05
 cg2d: Sum(rhs),rhsMax =  -6.00727150759745E+01  2.35016848792061E+00
(PID.TID 0000.0001)  ploadbar=  1.01094666386219E+05
 cg2d: Sum(rhs),rhsMax =  -5.98991975197011E+01  2.35677510459308E+00
(PID.TID 0000.0001)  ploadbar=  1.01095296852257E+05
 cg2d: Sum(rhs),rhsMax =  -5.97981359650027E+01  2.36051111889725E+00
(PID.TID 0000.0001)  ploadbar=  1.01095927318296E+05
 cg2d: Sum(rhs),rhsMax =  -5.97604052233220E+01  2.36170206159294E+00
(PID.TID 0000.0001)  ploadbar=  1.01096557784335E+05
 cg2d: Sum(rhs),rhsMax =  -5.97950242805066E+01  2.35998194714483E+00
(PID.TID 0000.0001)  ploadbar=  1.01097188250374E+05
 cg2d: Sum(rhs),rhsMax =  -5.98951832979801E+01  2.35561995701592E+00
(PID.TID 0000.0001)  ploadbar=  1.01097818716413E+05
 cg2d: Sum(rhs),rhsMax =  -6.00434259746401E+01  2.34938685365658E+00
(PID.TID 0000.0001)  ploadbar=  1.01097639274686E+05
 cg2d: Sum(rhs),rhsMax =  -6.02256355877953E+01  2.34184696214235E+00
(PID.TID 0000.0001)  ploadbar=  1.01097459832959E+05
 cg2d: Sum(rhs),rhsMax =  -6.04659650675989E+01  2.33208378785179E+00
(PID.TID 0000.0001)  ploadbar=  1.01097280391232E+05
 cg2d: Sum(rhs),rhsMax =  -6.07627982332918E+01  2.32020477015474E+00
(PID.TID 0000.0001)  ploadbar=  1.01097100949505E+05
 cg2d: Sum(rhs),rhsMax =  -6.11161381384933E+01  2.30626910259585E+00
(PID.TID 0000.0001)  ploadbar=  1.01096921507778E+05
 cg2d: Sum(rhs),rhsMax =  -6.15240454239462E+01  2.29042057454335E+00
(PID.TID 0000.0001)  ploadbar=  1.01096742066051E+05
 cg2d: Sum(rhs),rhsMax =  -6.20041575324492E+01  2.27223117412024E+00
(PID.TID 0000.0001)  ploadbar=  1.01096834011377E+05
 cg2d: Sum(rhs),rhsMax =  -6.25268282370351E+01  2.25284079247665E+00
(PID.TID 0000.0001)  ploadbar=  1.01096925956702E+05
 cg2d: Sum(rhs),rhsMax =  -6.31055115013685E+01  2.23183057904435E+00
(PID.TID 0000.0001)  ploadbar=  1.01097017902028E+05
 cg2d: Sum(rhs),rhsMax =  -6.37372094688780E+01  2.20939588476763E+00
(PID.TID 0000.0001)  ploadbar=  1.01097109847353E+05
 cg2d: Sum(rhs),rhsMax =  -6.44123895149104E+01  2.18595616567870E+00
(PID.TID 0000.0001)  ploadbar=  1.01097201792679E+05
 cg2d: Sum(rhs),rhsMax =  -6.51294185429937E+01  2.16164778519645E+00
(PID.TID 0000.0001)  ploadbar=  1.01097293738004E+05
 cg2d: Sum(rhs),rhsMax =  -6.58978471295230E+01  2.13621835644268E+00
(PID.TID 0000.0001)  ploadbar=  1.01096573663068E+05
 cg2d: Sum(rhs),rhsMax =  -6.67008094152602E+01  2.11028210782757E+00
(PID.TID 0000.0001)  ploadbar=  1.01095853588132E+05
 cg2d: Sum(rhs),rhsMax =  -6.75349577205621E+01  2.08400451060779E+00
(PID.TID 0000.0001)  ploadbar=  1.01095133513196E+05
 cg2d: Sum(rhs),rhsMax =  -6.84177322703475E+01  2.05690317424580E+00
(PID.TID 0000.0001)  ploadbar=  1.01094413438260E+05
 cg2d: Sum(rhs),rhsMax =  -6.93563556762698E+01  2.02884660071743E+00
(PID.TID 0000.0001)  ploadbar=  1.01093693363324E+05
 cg2d: Sum(rhs),rhsMax =  -7.03609902930169E+01  1.99964526133198E+00
(PID.TID 0000.0001)  ploadbar=  1.01092973288388E+05
 cg2d: Sum(rhs),rhsMax =  -7.14681061420173E+01  1.96844278640451E+00
(PID.TID 0000.0001)  ploadbar=  1.01091358429383E+05
 cg2d: Sum(rhs),rhsMax =  -7.26299149049576E+01  1.93672125578426E+00
(PID.TID 0000.0001)  ploadbar=  1.01089743570377E+05
 cg2d: Sum(rhs),rhsMax =  -7.38240867058392E+01  1.90514998430376E+00
(PID.TID 0000.0001)  ploadbar=  1.01088128711372E+05
 cg2d: Sum(rhs),rhsMax =  -7.50233405952644E+01  1.87444084873966E+00
(PID.TID 0000.0001)  ploadbar=  1.01086513852367E+05
 cg2d: Sum(rhs),rhsMax =  -7.61987144387705E+01  1.84525098717856E+00
(PID.TID 0000.0001)  ploadbar=  1.01084898993362E+05
 cg2d: Sum(rhs),rhsMax =  -7.73228894330999E+01  1.81811143215979E+00
(PID.TID 0000.0001)  ploadbar=  1.01083284134357E+05
 cg2d: Sum(rhs),rhsMax =  -7.83520679360605E+01  1.79392661833849E+00
(PID.TID 0000.0001)  ploadbar=  1.01081496680890E+05
 cg2d: Sum(rhs),rhsMax =  -7.92448556318015E+01  1.77341411870098E+00
(PID.TID 0000.0001)  ploadbar=  1.01079709227424E+05
 cg2d: Sum(rhs),rhsMax =  -8.00155428171619E+01  1.75602302161047E+00
(PID.TID 0000.0001)  ploadbar=  1.01077921773958E+05
 cg2d: Sum(rhs),rhsMax =  -8.06579835446430E+01  1.74170992865329E+00
(PID.TID 0000.0001)  ploadbar=  1.01076134320492E+05
 cg2d: Sum(rhs),rhsMax =  -8.06539717485505E+01  1.74144189177036E+00
(PID.TID 0000.0001)  ploadbar=  1.01074346867026E+05
 cg2d: Sum(rhs),rhsMax =  -8.00028466961061E+01  1.75522328045247E+00
(PID.TID 0000.0001)  ploadbar=  1.01072559413560E+05
 cg2d: Sum(rhs),rhsMax =  -7.95151795231219E+01  1.76566108379829E+00
(PID.TID 0000.0001)  ploadbar=  1.01069915658318E+05
 cg2d: Sum(rhs),rhsMax =  -7.92230402759098E+01  1.77188835538477E+00
(PID.TID 0000.0001)  ploadbar=  1.01067271903075E+05
 cg2d: Sum(rhs),rhsMax =  -7.91287339026656E+01  1.77375175541839E+00
(PID.TID 0000.0001)  ploadbar=  1.01064628147833E+05
 cg2d: Sum(rhs),rhsMax =  -7.91996344402743E+01  1.77194559802988E+00
(PID.TID 0000.0001)  ploadbar=  1.01061984392591E+05
 cg2d: Sum(rhs),rhsMax =  -7.93964441677408E+01  1.76736172441735E+00
(PID.TID 0000.0001)  ploadbar=  1.01059340637348E+05
 cg2d: Sum(rhs),rhsMax =  -7.97258958317069E+01  1.75989843697429E+00
(PID.TID 0000.0001)  ploadbar=  1.01056696882106E+05
 cg2d: Sum(rhs),rhsMax =  -8.02712353292350E+01  1.74782883104537E+00
(PID.TID 0000.0001)  ploadbar=  1.01055037477589E+05
 cg2d: Sum(rhs),rhsMax =  -8.09307861749131E+01  1.73349402729821E+00
(PID.TID 0000.0001)  ploadbar=  1.01053378073072E+05
 cg2d: Sum(rhs),rhsMax =  -8.17028485600381E+01  1.71704033997253E+00
(PID.TID 0000.0001)  ploadbar=  1.01051718668554E+05
 cg2d: Sum(rhs),rhsMax =  -8.25948843582090E+01  1.69843396388634E+00
(PID.TID 0000.0001)  ploadbar=  1.01050059264037E+05
 cg2d: Sum(rhs),rhsMax =  -8.36300569320343E+01  1.67735450952090E+00
(PID.TID 0000.0001)  ploadbar=  1.01048399859520E+05
 cg2d: Sum(rhs),rhsMax =  -8.47751391602586E+01  1.65464348100533E+00
(PID.TID 0000.0001)  ploadbar=  1.01046740455003E+05
 cg2d: Sum(rhs),rhsMax =  -8.59804957812291E+01  1.63141813528028E+00
(PID.TID 0000.0001)  ploadbar=  1.01044243121800E+05
 cg2d: Sum(rhs),rhsMax =  -8.71653300333394E+01  1.60922335734703E+00
(PID.TID 0000.0001)  ploadbar=  1.01041745788598E+05
 cg2d: Sum(rhs),rhsMax =  -8.82858431614810E+01  1.58877811822766E+00
(PID.TID 0000.0001)  ploadbar=  1.01039248455395E+05
 cg2d: Sum(rhs),rhsMax =  -8.93241962687467E+01  1.57027867294894E+00
(PID.TID 0000.0001)  ploadbar=  1.01036751122193E+05
 cg2d: Sum(rhs),rhsMax =  -9.02851773744036E+01  1.55351854027053E+00
(PID.TID 0000.0001)  ploadbar=  1.01034253788990E+05
 cg2d: Sum(rhs),rhsMax =  -9.11828166533202E+01  1.53815719153575E+00
(PID.TID 0000.0001)  ploadbar=  1.01031756455788E+05
 cg2d: Sum(rhs),rhsMax =  -9.20965057340000E+01  1.52281635920307E+00
(PID.TID 0000.0001)  ploadbar=  1.01029637118681E+05
 cg2d: Sum(rhs),rhsMax =  -9.30364722546755E+01  1.50733140876003E+00
(PID.TID 0000.0001)  ploadbar=  1.01027517781575E+05
 cg2d: Sum(rhs),rhsMax =  -9.40116130633992E+01  1.49157234719834E+00
(PID.TID 0000.0001)  ploadbar=  1.01025398444468E+05
 cg2d: Sum(rhs),rhsMax =  -9.50246200529124E+01  1.47551905607648E+00
(PID.TID 0000.0001)  ploadbar=  1.01023279107361E+05
 cg2d: Sum(rhs),rhsMax =  -9.61705661418104E+01  1.45775398273648E+00
(PID.TID 0000.0001)  ploadbar=  1.01021159770255E+05
 cg2d: Sum(rhs),rhsMax =  -9.74135993008716E+01  1.43893918474386E+00
(PID.TID 0000.0001)  ploadbar=  1.01019040433148E+05
 cg2d: Sum(rhs),rhsMax =  -9.73664017340695E+01  1.43947457027430E+00
(PID.TID 0000.0001)  ploadbar=  1.01018256923231E+05
 cg2d: Sum(rhs),rhsMax =  -9.72953507064271E+01  1.44039018455989E+00
(PID.TID 0000.0001)  ploadbar=  1.01017473413314E+05
 cg2d: Sum(rhs),rhsMax =  -9.73565082752662E+01  1.43936080168250E+00
(PID.TID 0000.0001)  ploadbar=  1.01016689903397E+05
 cg2d: Sum(rhs),rhsMax =  -9.75104650700303E+01  1.43697258664122E+00
(PID.TID 0000.0001)  ploadbar=  1.01015906393480E+05
 cg2d: Sum(rhs),rhsMax =  -9.77520148925943E+01  1.43331575757869E+00
(PID.TID 0000.0001)  ploadbar=  1.01015122883563E+05
 cg2d: Sum(rhs),rhsMax =  -9.81088677382494E+01  1.42800654314668E+00
(PID.TID 0000.0001)  ploadbar=  1.01014339373646E+05
 cg2d: Sum(rhs),rhsMax =  -9.84646201690312E+01  1.42276761776275E+00
(PID.TID 0000.0001)  ploadbar=  1.01013563305015E+05
 cg2d: Sum(rhs),rhsMax =  -9.88840210746685E+01  1.41666639382235E+00
(PID.TID 0000.0001)  ploadbar=  1.01012787236384E+05
 cg2d: Sum(rhs),rhsMax =  -9.93601285444560E+01  1.40982415916334E+00
(PID.TID 0000.0001)  ploadbar=  1.01012011167753E+05
 cg2d: Sum(rhs),rhsMax =  -9.99004237062293E+01  1.40215459811533E+00
(PID.TID 0000.0001)  ploadbar=  1.01011235099122E+05
 cg2d: Sum(rhs),rhsMax =  -1.00511867419957E+02  1.39358245098713E+00
(PID.TID 0000.0001)  ploadbar=  1.01010459030490E+05
 cg2d: Sum(rhs),rhsMax =  -1.01198248616810E+02  1.38408246765551E+00
(PID.TID 0000.0001)  ploadbar=  1.01009682961859E+05
 cg2d: Sum(rhs),rhsMax =  -1.02036874657088E+02  1.37267559116443E+00
(PID.TID 0000.0001)  ploadbar=  1.01009900955962E+05
 cg2d: Sum(rhs),rhsMax =  -1.03023621475903E+02  1.35950012085846E+00
(PID.TID 0000.0001)  ploadbar=  1.01010118950065E+05
 cg2d: Sum(rhs),rhsMax =  -1.04064852698624E+02  1.34586949933841E+00
(PID.TID 0000.0001)  ploadbar=  1.01010336944168E+05
 cg2d: Sum(rhs),rhsMax =  -1.05088333720775E+02  1.33273022678332E+00
(PID.TID 0000.0001)  ploadbar=  1.01010554938271E+05
 cg2d: Sum(rhs),rhsMax =  -1.06096168229853E+02  1.32002812981788E+00
(PID.TID 0000.0001)  ploadbar=  1.01010772932374E+05
 cg2d: Sum(rhs),rhsMax =  -1.07080158661304E+02  1.30784130144024E+00
(PID.TID 0000.0001)  ploadbar=  1.01010990926477E+05
 cg2d: Sum(rhs),rhsMax =  -1.07865259607691E+02  1.29828237354561E+00
(PID.TID 0000.0001)  ploadbar=  1.01010086997080E+05
 cg2d: Sum(rhs),rhsMax =  -1.08434664893329E+02  1.29143260965877E+00
(PID.TID 0000.0001)  ploadbar=  1.01009183067684E+05
 cg2d: Sum(rhs),rhsMax =  -1.08871345496902E+02  1.28622370382057E+00
(PID.TID 0000.0001)  ploadbar=  1.01008279138287E+05
 cg2d: Sum(rhs),rhsMax =  -1.09259405162434E+02  1.28162768395326E+00
(PID.TID 0000.0001)  ploadbar=  1.01007375208891E+05
 cg2d: Sum(rhs),rhsMax =  -1.09646474111803E+02  1.27707520406713E+00
(PID.TID 0000.0001)  ploadbar=  1.01006471279494E+05
 cg2d: Sum(rhs),rhsMax =  -1.10054599755584E+02  1.27230772780970E+00
(PID.TID 0000.0001)  ploadbar=  1.01005567350098E+05
 cg2d: Sum(rhs),rhsMax =  -1.10611930967225E+02  1.26590801343812E+00
(PID.TID 0000.0001)  ploadbar=  1.01004998860418E+05
 cg2d: Sum(rhs),rhsMax =  -1.11362284798251E+02  1.25740912914161E+00
(PID.TID 0000.0001)  ploadbar=  1.01004430370738E+05
 cg2d: Sum(rhs),rhsMax =  -1.12323147682457E+02  1.24669739982932E+00
(PID.TID 0000.0001)  ploadbar=  1.01003861881058E+05
 cg2d: Sum(rhs),rhsMax =  -1.13437051528767E+02  1.23451046994488E+00
(PID.TID 0000.0001)  ploadbar=  1.01003293391378E+05
 cg2d: Sum(rhs),rhsMax =  -1.12585173951843E+02  1.24392004524290E+00
(PID.TID 0000.0001)  ploadbar=  1.01002724901698E+05
 cg2d: Sum(rhs),rhsMax =  -1.10602180410143E+02  1.26631567098861E+00
(PID.TID 0000.0001)  ploadbar=  1.01002156412018E+05
 cg2d: Sum(rhs),rhsMax =  -1.08351619103334E+02  1.29272288249101E+00
(PID.TID 0000.0001)  ploadbar=  1.01001961978017E+05
 cg2d: Sum(rhs),rhsMax =  -1.06064552456819E+02  1.32070554207729E+00
(PID.TID 0000.0001)  ploadbar=  1.01001767544015E+05
 cg2d: Sum(rhs),rhsMax =  -1.04277779500668E+02  1.34344517362765E+00
(PID.TID 0000.0001)  ploadbar=  1.01001573110014E+05
 cg2d: Sum(rhs),rhsMax =  -1.02861573392264E+02  1.36204985679058E+00
(PID.TID 0000.0001)  ploadbar=  1.01001378676013E+05
 cg2d: Sum(rhs),rhsMax =  -1.01810599891710E+02  1.37620767587927E+00
(PID.TID 0000.0001)  ploadbar=  1.01001184242011E+05
 cg2d: Sum(rhs),rhsMax =  -1.01036452588443E+02  1.38683078200414E+00
(PID.TID 0000.0001)  ploadbar=  1.01000989808010E+05
 cg2d: Sum(rhs),rhsMax =  -1.00445902459384E+02  1.39507560682621E+00
(PID.TID 0000.0001)  ploadbar=  1.01002179554155E+05
 cg2d: Sum(rhs),rhsMax =  -9.99558557326507E+01  1.40201203395808E+00
(PID.TID 0000.0001)  ploadbar=  1.01003369300300E+05
 cg2d: Sum(rhs),rhsMax =  -9.95352039774830E+01  1.40804192425242E+00
(PID.TID 0000.0001)  ploadbar=  1.01004559046446E+05
 cg2d: Sum(rhs),rhsMax =  -9.91503746422823E+01  1.41362680126608E+00
(PID.TID 0000.0001)  ploadbar=  1.01005748792591E+05
 cg2d: Sum(rhs),rhsMax =  -9.87901555950698E+01  1.41891951540838E+00
(PID.TID 0000.0001)  ploadbar=  1.01006938538736E+05
 cg2d: Sum(rhs),rhsMax =  -9.84624550920237E+01  1.42378952966032E+00
(PID.TID 0000.0001)  ploadbar=  1.01008128284881E+05
 cg2d: Sum(rhs),rhsMax =  -9.80691849934636E+01  1.42963178937624E+00
(PID.TID 0000.0001)  ploadbar=  1.01008532541168E+05
 cg2d: Sum(rhs),rhsMax =  -9.77009064627432E+01  1.43512082735391E+00
(PID.TID 0000.0001)  ploadbar=  1.01008936797454E+05
 cg2d: Sum(rhs),rhsMax =  -9.73768767540998E+01  1.43995743892957E+00
(PID.TID 0000.0001)  ploadbar=  1.01009341053741E+05
 cg2d: Sum(rhs),rhsMax =  -9.70724913871826E+01  1.44448844522236E+00
(PID.TID 0000.0001)  ploadbar=  1.01009745310027E+05
 cg2d: Sum(rhs),rhsMax =  -9.67756919975983E+01  1.44888682483957E+00
(PID.TID 0000.0001)  ploadbar=  1.01010149566314E+05
 cg2d: Sum(rhs),rhsMax =  -9.64870408105108E+01  1.45313801444498E+00
(PID.TID 0000.0001)  ploadbar=  1.01010553822600E+05
 cg2d: Sum(rhs),rhsMax =  -9.61610449432493E+01  1.45801079943887E+00
(PID.TID 0000.0001)  ploadbar=  1.01011167914075E+05
 cg2d: Sum(rhs),rhsMax =  -9.57781982726057E+01  1.46379652390201E+00
(PID.TID 0000.0001)  ploadbar=  1.01011782005549E+05
 cg2d: Sum(rhs),rhsMax =  -9.54138540737001E+01  1.46934657077279E+00
(PID.TID 0000.0001)  ploadbar=  1.01012396097023E+05
 cg2d: Sum(rhs),rhsMax =  -9.50831662859358E+01  1.47441828425645E+00
(PID.TID 0000.0001)  ploadbar=  1.01013010188498E+05
 cg2d: Sum(rhs),rhsMax =  -9.47703127613509E+01  1.47925092932805E+00
(PID.TID 0000.0001)  ploadbar=  1.01013624279972E+05
 cg2d: Sum(rhs),rhsMax =  -9.45002858818355E+01  1.48345409009406E+00
(PID.TID 0000.0001)  ploadbar=  1.01014238371447E+05
 cg2d: Sum(rhs),rhsMax =  -9.42680139860458E+01  1.48709661237871E+00
(PID.TID 0000.0001)  ploadbar=  1.01015712500994E+05
 cg2d: Sum(rhs),rhsMax =  -9.40967260605098E+01  1.48979626710423E+00
(PID.TID 0000.0001)  ploadbar=  1.01017186630542E+05
 cg2d: Sum(rhs),rhsMax =  -9.39758744601230E+01  1.49171147457708E+00
(PID.TID 0000.0001)  ploadbar=  1.01018660760089E+05
 cg2d: Sum(rhs),rhsMax =  -9.38972065830001E+01  1.49296755825106E+00
(PID.TID 0000.0001)  ploadbar=  1.01020134889637E+05
 cg2d: Sum(rhs),rhsMax =  -9.38664338199533E+01  1.49346460421559E+00
(PID.TID 0000.0001)  ploadbar=  1.01021609019184E+05
 cg2d: Sum(rhs),rhsMax =  -9.39122591045854E+01  1.49273654172856E+00
(PID.TID 0000.0001)  ploadbar=  1.01023083148732E+05
 cg2d: Sum(rhs),rhsMax =  -9.39669961448463E+01  1.49187000262082E+00
(PID.TID 0000.0001)  ploadbar=  1.01024949051396E+05
 cg2d: Sum(rhs),rhsMax =  -9.39765072155106E+01  1.49171437532663E+00
(PID.TID 0000.0001)  ploadbar=  1.01026814954059E+05
 cg2d: Sum(rhs),rhsMax =  -9.39601926222990E+01  1.49195978917921E+00
(PID.TID 0000.0001)  ploadbar=  1.01028680856723E+05
 cg2d: Sum(rhs),rhsMax =  -9.39703413039197E+01  1.49177803415399E+00
(PID.TID 0000.0001)  ploadbar=  1.01030546759387E+05
 cg2d: Sum(rhs),rhsMax =  -9.40418624323572E+01  1.49061222246238E+00
(PID.TID 0000.0001)  ploadbar=  1.01032412662050E+05
 cg2d: Sum(rhs),rhsMax =  -9.42425891438180E+01  1.48739037619799E+00
(PID.TID 0000.0001)  ploadbar=  1.01034278564714E+05
 cg2d: Sum(rhs),rhsMax =  -9.45521216901988E+01  1.48245113644302E+00
(PID.TID 0000.0001)  ploadbar=  1.01034960584166E+05
 cg2d: Sum(rhs),rhsMax =  -9.49672500046136E+01  1.47585908164308E+00
(PID.TID 0000.0001)  ploadbar=  1.01035642603617E+05
 cg2d: Sum(rhs),rhsMax =  -9.54674420049130E+01  1.46796778476879E+00
(PID.TID 0000.0001)  ploadbar=  1.01036324623069E+05
 cg2d: Sum(rhs),rhsMax =  -9.60031050924625E+01  1.45956851499572E+00
(PID.TID 0000.0001)  ploadbar=  1.01037006642520E+05
 cg2d: Sum(rhs),rhsMax =  -9.65297275270644E+01  1.45134637180021E+00
(PID.TID 0000.0001)  ploadbar=  1.01037688661972E+05
 cg2d: Sum(rhs),rhsMax =  -9.70067645542245E+01  1.44390010623199E+00
(PID.TID 0000.0001)  ploadbar=  1.01038370681424E+05
 cg2d: Sum(rhs),rhsMax =  -9.75720423592436E+01  1.43528949774146E+00
(PID.TID 0000.0001)  ploadbar=  1.01037815520526E+05
 cg2d: Sum(rhs),rhsMax =  -9.82678243305791E+01  1.42492806854551E+00
(PID.TID 0000.0001)  ploadbar=  1.01037260359627E+05
 cg2d: Sum(rhs),rhsMax =  -9.91419438709547E+01  1.41220284118863E+00
(PID.TID 0000.0001)  ploadbar=  1.01036705198729E+05
 cg2d: Sum(rhs),rhsMax =  -1.00223938110762E+02  1.39683335809076E+00
(PID.TID 0000.0001)  ploadbar=  1.01036150037831E+05
 cg2d: Sum(rhs),rhsMax =  -1.01524011418280E+02  1.37886490565049E+00
(PID.TID 0000.0001)  ploadbar=  1.01035594876933E+05
 cg2d: Sum(rhs),rhsMax =  -1.03088857480683E+02  1.35790761569636E+00
(PID.TID 0000.0001)  ploadbar=  1.01035039716035E+05
 cg2d: Sum(rhs),rhsMax =  -1.04859887815974E+02  1.33497226307231E+00
(PID.TID 0000.0001)  ploadbar=  1.01035274606822E+05
 cg2d: Sum(rhs),rhsMax =  -1.06762653643392E+02  1.31118922127842E+00
(PID.TID 0000.0001)  ploadbar=  1.01035509497610E+05
 cg2d: Sum(rhs),rhsMax =  -1.08777917606828E+02  1.28691715986283E+00
(PID.TID 0000.0001)  ploadbar=  1.01035744388397E+05
 cg2d: Sum(rhs),rhsMax =  -1.10877374579644E+02  1.26257515369179E+00
(PID.TID 0000.0001)  ploadbar=  1.01035979279184E+05
 cg2d: Sum(rhs),rhsMax =  -1.12857484827386E+02  1.24045107067939E+00
(PID.TID 0000.0001)  ploadbar=  1.01036214169971E+05
 cg2d: Sum(rhs),rhsMax =  -1.13502812672021E+02  1.23342978268216E+00
(PID.TID 0000.0001)  ploadbar=  1.01036449060759E+05
 cg2d: Sum(rhs),rhsMax =  -1.13436720358088E+02  1.23420257174830E+00
(PID.TID 0000.0001)  ploadbar=  1.01034725440858E+05
 cg2d: Sum(rhs),rhsMax =  -1.13374706194636E+02  1.23494355975260E+00
(PID.TID 0000.0001)  ploadbar=  1.01033001820957E+05
 cg2d: Sum(rhs),rhsMax =  -1.13345019870273E+02  1.23534193262399E+00
(PID.TID 0000.0001)  ploadbar=  1.01031278201056E+05
 cg2d: Sum(rhs),rhsMax =  -1.13361729206420E+02  1.23524162220153E+00
(PID.TID 0000.0001)  ploadbar=  1.01029554581155E+05
 cg2d: Sum(rhs),rhsMax =  -1.13433183700269E+02  1.23455070050706E+00
(PID.TID 0000.0001)  ploadbar=  1.01027830961254E+05
 cg2d: Sum(rhs),rhsMax =  -1.13557753880150E+02  1.23327786085431E+00
(PID.TID 0000.0001)  ploadbar=  1.01026107341353E+05
 cg2d: Sum(rhs),rhsMax =  -1.13751881399907E+02  1.23124065834794E+00
(PID.TID 0000.0001)  ploadbar=  1.01024373580336E+05
 cg2d: Sum(rhs),rhsMax =  -1.12898836077607E+02  1.24059050578601E+00
(PID.TID 0000.0001)  ploadbar=  1.01022639819319E+05
 cg2d: Sum(rhs),rhsMax =  -1.11946937667343E+02  1.25116493544343E+00
(PID.TID 0000.0001)  ploadbar=  1.01020906058302E+05
 cg2d: Sum(rhs),rhsMax =  -1.11036019697941E+02  1.26143412449663E+00
(PID.TID 0000.0001)  ploadbar=  1.01019172297285E+05
 cg2d: Sum(rhs),rhsMax =  -1.10167722488159E+02  1.27135790025035E+00
(PID.TID 0000.0001)  ploadbar=  1.01017438536267E+05
 cg2d: Sum(rhs),rhsMax =  -1.09339287246875E+02  1.28094716240249E+00
(PID.TID 0000.0001)  ploadbar=  1.01015704775250E+05
 cg2d: Sum(rhs),rhsMax =  -1.08489437845374E+02  1.29099102544887E+00
(PID.TID 0000.0001)  ploadbar=  1.01013556491227E+05
 cg2d: Sum(rhs),rhsMax =  -1.07683318671377E+02  1.30069327315679E+00
(PID.TID 0000.0001)  ploadbar=  1.01011408207204E+05
 cg2d: Sum(rhs),rhsMax =  -1.06876010793081E+02  1.31057877767107E+00
(PID.TID 0000.0001)  ploadbar=  1.01009259923181E+05
 cg2d: Sum(rhs),rhsMax =  -1.06094351108385E+02  1.32031790430832E+00
(PID.TID 0000.0001)  ploadbar=  1.01007111639157E+05
 cg2d: Sum(rhs),rhsMax =  -1.05358930447871E+02  1.32964501442177E+00
(PID.TID 0000.0001)  ploadbar=  1.01004963355134E+05
 cg2d: Sum(rhs),rhsMax =  -1.04681770052981E+02  1.33839288077679E+00
(PID.TID 0000.0001)  ploadbar=  1.01002815071111E+05
 cg2d: Sum(rhs),rhsMax =  -1.04089977062268E+02  1.34614548427640E+00
(PID.TID 0000.0001)  ploadbar=  1.01002100758710E+05
 cg2d: Sum(rhs),rhsMax =  -1.03559799804127E+02  1.35316160139398E+00
(PID.TID 0000.0001)  ploadbar=  1.01001386446310E+05
 cg2d: Sum(rhs),rhsMax =  -1.03101046431389E+02  1.35928216648989E+00
(PID.TID 0000.0001)  ploadbar=  1.01000672133909E+05
 cg2d: Sum(rhs),rhsMax =  -1.02741161744258E+02  1.36411500826270E+00
(PID.TID 0000.0001)  ploadbar=  1.00999957821509E+05
 cg2d: Sum(rhs),rhsMax =  -1.02500281542286E+02  1.36736321038280E+00
(PID.TID 0000.0001)  ploadbar=  1.00999243509108E+05
 cg2d: Sum(rhs),rhsMax =  -1.02393016513137E+02  1.36880772074944E+00
(PID.TID 0000.0001)  ploadbar=  1.00998529196708E+05
 cg2d: Sum(rhs),rhsMax =  -1.02391387991711E+02  1.36886693330574E+00
(PID.TID 0000.0001)  ploadbar=  1.00996871790977E+05
 cg2d: Sum(rhs),rhsMax =  -1.02541485769879E+02  1.36691873714948E+00
(PID.TID 0000.0001)  ploadbar=  1.00995214385247E+05
 cg2d: Sum(rhs),rhsMax =  -1.02805424994154E+02  1.36347821727197E+00
(PID.TID 0000.0001)  ploadbar=  1.00993556979517E+05
 cg2d: Sum(rhs),rhsMax =  -1.03168429354960E+02  1.35875537796677E+00
(PID.TID 0000.0001)  ploadbar=  1.00991899573787E+05
 cg2d: Sum(rhs),rhsMax =  -1.03607954661058E+02  1.35306451642418E+00
(PID.TID 0000.0001)  ploadbar=  1.00990242168057E+05
 cg2d: Sum(rhs),rhsMax =  -1.04143905080859E+02  1.34616710631431E+00
(PID.TID 0000.0001)  ploadbar=  1.00988584762327E+05
 cg2d: Sum(rhs),rhsMax =  -1.04734185966622E+02  1.33863929392392E+00
(PID.TID 0000.0001)  ploadbar=  1.00986630479484E+05
 cg2d: Sum(rhs),rhsMax =  -1.05395849359237E+02  1.33027809911363E+00
(PID.TID 0000.0001)  ploadbar=  1.00984676196641E+05
 cg2d: Sum(rhs),rhsMax =  -1.06108324501583E+02  1.32137112963165E+00
(PID.TID 0000.0001)  ploadbar=  1.00982721913798E+05
 cg2d: Sum(rhs),rhsMax =  -1.06852732778442E+02  1.31216920013801E+00
(PID.TID 0000.0001)  ploadbar=  1.00980767630956E+05
 cg2d: Sum(rhs),rhsMax =  -1.07626504650320E+02  1.30271229563856E+00
(PID.TID 0000.0001)  ploadbar=  1.00978813348113E+05
 cg2d: Sum(rhs),rhsMax =  -1.08427897749746E+02  1.29302731229351E+00
(PID.TID 0000.0001)  ploadbar=  1.00976859065270E+05
 cg2d: Sum(rhs),rhsMax =  -1.09288082304594E+02  1.28284305605928E+00
(PID.TID 0000.0001)  ploadbar=  1.00975125326769E+05
 cg2d: Sum(rhs),rhsMax =  -1.10186237448970E+02  1.27241315126905E+00
(PID.TID 0000.0001)  ploadbar=  1.00973391588268E+05
 cg2d: Sum(rhs),rhsMax =  -1.11161188292172E+02  1.26131022601806E+00
(PID.TID 0000.0001)  ploadbar=  1.00971657849767E+05
 cg2d: Sum(rhs),rhsMax =  -1.11744245254036E+02  1.25481492608594E+00
(PID.TID 0000.0001)  ploadbar=  1.00969924111267E+05
 cg2d: Sum(rhs),rhsMax =  -1.11761658142239E+02  1.25473786041466E+00
(PID.TID 0000.0001)  ploadbar=  1.00968190372766E+05
 cg2d: Sum(rhs),rhsMax =  -1.11890685479079E+02  1.25344774501248E+00
(PID.TID 0000.0001)  ploadbar=  1.00966456634265E+05
 cg2d: Sum(rhs),rhsMax =  -1.12043675196639E+02  1.25189123286093E+00
(PID.TID 0000.0001)  ploadbar=  1.00965739105134E+05
 cg2d: Sum(rhs),rhsMax =  -1.11287209189488E+02  1.26054615617388E+00
(PID.TID 0000.0001)  ploadbar=  1.00965021576004E+05
 cg2d: Sum(rhs),rhsMax =  -1.10173172819322E+02  1.27342582271429E+00
(PID.TID 0000.0001)  ploadbar=  1.00964304046873E+05
 cg2d: Sum(rhs),rhsMax =  -1.09077426118374E+02  1.28633638214977E+00
(PID.TID 0000.0001)  ploadbar=  1.00963586517742E+05
 cg2d: Sum(rhs),rhsMax =  -1.08046363571738E+02  1.29870985002838E+00
(PID.TID 0000.0001)  ploadbar=  1.00962868988611E+05
 cg2d: Sum(rhs),rhsMax =  -1.06971558844534E+02  1.31183141939464E+00
(PID.TID 0000.0001)  ploadbar=  1.00962151459481E+05
 cg2d: Sum(rhs),rhsMax =  -1.05993088807116E+02  1.32402472522787E+00
(PID.TID 0000.0001)  ploadbar=  1.00962245858398E+05
 cg2d: Sum(rhs),rhsMax =  -1.05146528060506E+02  1.33476968364315E+00
(PID.TID 0000.0001)  ploadbar=  1.00962340257315E+05
 cg2d: Sum(rhs),rhsMax =  -1.04441734076227E+02  1.34385988796606E+00
(PID.TID 0000.0001)  ploadbar=  1.00962434656231E+05
 cg2d: Sum(rhs),rhsMax =  -1.03871745589395E+02  1.35131247515279E+00
(PID.TID 0000.0001)  ploadbar=  1.00962529055148E+05
 cg2d: Sum(rhs),rhsMax =  -1.03427073955128E+02  1.35719753937933E+00
(PID.TID 0000.0001)  ploadbar=  1.00962623454065E+05
 cg2d: Sum(rhs),rhsMax =  -1.03099942941547E+02  1.36157376463403E+00
(PID.TID 0000.0001)  ploadbar=  1.00962717852982E+05
 cg2d: Sum(rhs),rhsMax =  -1.02801021384457E+02  1.36559787516946E+00
(PID.TID 0000.0001)  ploadbar=  1.00962100775949E+05
 cg2d: Sum(rhs),rhsMax =  -1.02503054491466E+02  1.36961714124979E+00
(PID.TID 0000.0001)  ploadbar=  1.00961483698916E+05
 cg2d: Sum(rhs),rhsMax =  -1.02209507443563E+02  1.37357514846633E+00
(PID.TID 0000.0001)  ploadbar=  1.00960866621883E+05
 cg2d: Sum(rhs),rhsMax =  -1.02078637320464E+02  1.37533154187219E+00
(PID.TID 0000.0001)  ploadbar=  1.00960249544850E+05
 cg2d: Sum(rhs),rhsMax =  -1.02214521858920E+02  1.37346593507170E+00
(PID.TID 0000.0001)  ploadbar=  1.00959632467817E+05
 cg2d: Sum(rhs),rhsMax =  -1.02580922869698E+02  1.36848870246540E+00
(PID.TID 0000.0001)  ploadbar=  1.00959015390784E+05
 cg2d: Sum(rhs),rhsMax =  -1.03138357234839E+02  1.36106999603557E+00
(PID.TID 0000.0001)  ploadbar=  1.00958758632445E+05
 cg2d: Sum(rhs),rhsMax =  -1.03752303178620E+02  1.35302743489391E+00
(PID.TID 0000.0001)  ploadbar=  1.00958501874106E+05
 cg2d: Sum(rhs),rhsMax =  -1.04523873758915E+02  1.34307911197803E+00
(PID.TID 0000.0001)  ploadbar=  1.00958245115767E+05
 cg2d: Sum(rhs),rhsMax =  -1.05472055490199E+02  1.33106925894856E+00
(PID.TID 0000.0001)  ploadbar=  1.00957988357428E+05
 cg2d: Sum(rhs),rhsMax =  -1.06559141857175E+02  1.31758290902721E+00
(PID.TID 0000.0001)  ploadbar=  1.00957731599090E+05
 cg2d: Sum(rhs),rhsMax =  -1.07770700561373E+02  1.30289566471697E+00
(PID.TID 0000.0001)  ploadbar=  1.00957474840751E+05
 cg2d: Sum(rhs),rhsMax =  -1.09051791220663E+02  1.28770853026489E+00
(PID.TID 0000.0001)  ploadbar=  1.00958372071887E+05
 cg2d: Sum(rhs),rhsMax =  -1.10403779830433E+02  1.27203165212345E+00
(PID.TID 0000.0001)  ploadbar=  1.00959269303024E+05
 cg2d: Sum(rhs),rhsMax =  -1.11856300198071E+02  1.25558099485827E+00
(PID.TID 0000.0001)  ploadbar=  1.00960166534160E+05
 cg2d: Sum(rhs),rhsMax =  -1.13490219504954E+02  1.23754691624802E+00
(PID.TID 0000.0001)  ploadbar=  1.00961063765297E+05
 cg2d: Sum(rhs),rhsMax =  -1.13660036482178E+02  1.23571294269447E+00
(PID.TID 0000.0001)  ploadbar=  1.00961960996433E+05
 cg2d: Sum(rhs),rhsMax =  -1.13417871643150E+02  1.23833703248790E+00
(PID.TID 0000.0001)  ploadbar=  1.00962858227570E+05
 cg2d: Sum(rhs),rhsMax =  -1.13145285950640E+02  1.24131590650181E+00
(PID.TID 0000.0001)  ploadbar=  1.00963504467155E+05
 cg2d: Sum(rhs),rhsMax =  -1.12836512039713E+02  1.24470906608387E+00
(PID.TID 0000.0001)  ploadbar=  1.00964150706740E+05
 cg2d: Sum(rhs),rhsMax =  -1.12511360458518E+02  1.24830470962087E+00
(PID.TID 0000.0001)  ploadbar=  1.00964796946326E+05
 cg2d: Sum(rhs),rhsMax =  -1.12197379849214E+02  1.25180273159554E+00
(PID.TID 0000.0001)  ploadbar=  1.00965443185911E+05
 cg2d: Sum(rhs),rhsMax =  -1.11920988001584E+02  1.25490334180294E+00
(PID.TID 0000.0001)  ploadbar=  1.00966089425496E+05
 cg2d: Sum(rhs),rhsMax =  -1.11715885816032E+02  1.25721182136659E+00
(PID.TID 0000.0001)  ploadbar=  1.00966735665082E+05
 cg2d: Sum(rhs),rhsMax =  -1.10819652446721E+02  1.26737800839203E+00
(PID.TID 0000.0001)  ploadbar=  1.00967849196375E+05
 cg2d: Sum(rhs),rhsMax =  -1.10026542700409E+02  1.27648991865722E+00
(PID.TID 0000.0001)  ploadbar=  1.00968962727667E+05
 cg2d: Sum(rhs),rhsMax =  -1.09296680495175E+02  1.28496106402967E+00
(PID.TID 0000.0001)  ploadbar=  1.00970076258960E+05
 cg2d: Sum(rhs),rhsMax =  -1.08580063038060E+02  1.29335692935036E+00
(PID.TID 0000.0001)  ploadbar=  1.00971189790253E+05
 cg2d: Sum(rhs),rhsMax =  -1.07872081378310E+02  1.30172782148910E+00
(PID.TID 0000.0001)  ploadbar=  1.00972303321546E+05
 cg2d: Sum(rhs),rhsMax =  -1.07228236952161E+02  1.30939278728028E+00
(PID.TID 0000.0001)  ploadbar=  1.00973416852839E+05
 cg2d: Sum(rhs),rhsMax =  -1.06388091108117E+02  1.31964497561506E+00
(PID.TID 0000.0001)  ploadbar=  1.00974583684650E+05
 cg2d: Sum(rhs),rhsMax =  -1.05401508039069E+02  1.33195962169688E+00
(PID.TID 0000.0001)  ploadbar=  1.00975750516461E+05
 cg2d: Sum(rhs),rhsMax =  -1.04388200095261E+02  1.34489903740909E+00
(PID.TID 0000.0001)  ploadbar=  1.00976917348272E+05
 cg2d: Sum(rhs),rhsMax =  -1.03399777780679E+02  1.35781462182227E+00
(PID.TID 0000.0001)  ploadbar=  1.00978084180084E+05
 cg2d: Sum(rhs),rhsMax =  -1.02485690464089E+02  1.37003601917611E+00
(PID.TID 0000.0001)  ploadbar=  1.00979251011895E+05
 cg2d: Sum(rhs),rhsMax =  -1.01709052450263E+02  1.38065992377658E+00
(PID.TID 0000.0001)  ploadbar=  1.00980417843707E+05
 cg2d: Sum(rhs),rhsMax =  -1.00676912554851E+02  1.39497039048228E+00
(PID.TID 0000.0001)  ploadbar=  1.00981159009481E+05
 cg2d: Sum(rhs),rhsMax =  -9.92052991716273E+01  1.41579838080653E+00
(PID.TID 0000.0001)  ploadbar=  1.00981900175255E+05
 cg2d: Sum(rhs),rhsMax =  -9.77997497755447E+01  1.43625720166493E+00
(PID.TID 0000.0001)  ploadbar=  1.00982641341028E+05
 cg2d: Sum(rhs),rhsMax =  -9.63075058732093E+01  1.45859854870417E+00
(PID.TID 0000.0001)  ploadbar=  1.00983382506803E+05
 cg2d: Sum(rhs),rhsMax =  -9.48753440907425E+01  1.48068024046586E+00
(PID.TID 0000.0001)  ploadbar=  1.00984123672577E+05
 cg2d: Sum(rhs),rhsMax =  -9.34870888463692E+01  1.50270266336147E+00
(PID.TID 0000.0001)  ploadbar=  1.00984864838350E+05
 cg2d: Sum(rhs),rhsMax =  -9.22316578889697E+01  1.52321204134500E+00
(PID.TID 0000.0001)  ploadbar=  1.00985202528938E+05
 cg2d: Sum(rhs),rhsMax =  -9.11656100077661E+01  1.54108718653890E+00
(PID.TID 0000.0001)  ploadbar=  1.00985540219525E+05
 cg2d: Sum(rhs),rhsMax =  -9.02825127669941E+01  1.55622858830786E+00
(PID.TID 0000.0001)  ploadbar=  1.00985877910112E+05
 cg2d: Sum(rhs),rhsMax =  -8.95499345423398E+01  1.56902787271710E+00
(PID.TID 0000.0001)  ploadbar=  1.00986215600699E+05
 cg2d: Sum(rhs),rhsMax =  -8.89337535224850E+01  1.57995792364231E+00
(PID.TID 0000.0001)  ploadbar=  1.00986553291286E+05
 cg2d: Sum(rhs),rhsMax =  -8.84595485364946E+01  1.58845404171653E+00
(PID.TID 0000.0001)  ploadbar=  1.00986890981873E+05
 cg2d: Sum(rhs),rhsMax =  -8.80616881913293E+01  1.59563573946741E+00
(PID.TID 0000.0001)  ploadbar=  1.00987642909215E+05
 cg2d: Sum(rhs),rhsMax =  -8.77464428854545E+01  1.60133761623104E+00
(PID.TID 0000.0001)  ploadbar=  1.00988394836557E+05
 cg2d: Sum(rhs),rhsMax =  -8.75310909648315E+01  1.60520255075628E+00
(PID.TID 0000.0001)  ploadbar=  1.00989146763898E+05
 cg2d: Sum(rhs),rhsMax =  -8.74198984472207E+01  1.60712308711640E+00
(PID.TID 0000.0001)  ploadbar=  1.00989898691240E+05
 cg2d: Sum(rhs),rhsMax =  -8.74198364323365E+01  1.60695920314381E+00
(PID.TID 0000.0001)  ploadbar=  1.00990650618582E+05
 cg2d: Sum(rhs),rhsMax =  -8.75320267427239E+01  1.60469593218989E+00
(PID.TID 0000.0001)  ploadbar=  1.00991402545924E+05
 cg2d: Sum(rhs),rhsMax =  -8.76890490490340E+01  1.60167969418501E+00
(PID.TID 0000.0001)  ploadbar=  1.00992140637129E+05
 cg2d: Sum(rhs),rhsMax =  -8.78664385700080E+01  1.59833596602404E+00
(PID.TID 0000.0001)  ploadbar=  1.00992878728335E+05
 cg2d: Sum(rhs),rhsMax =  -8.80820169200231E+01  1.59433244213219E+00
(PID.TID 0000.0001)  ploadbar=  1.00993616819540E+05
 cg2d: Sum(rhs),rhsMax =  -8.83289616617526E+01  1.58979837099640E+00
(PID.TID 0000.0001)  ploadbar=  1.00994354910745E+05
 cg2d: Sum(rhs),rhsMax =  -8.86116538417867E+01  1.58465997801513E+00
(PID.TID 0000.0001)  ploadbar=  1.00995093001951E+05
 cg2d: Sum(rhs),rhsMax =  -8.89405079255023E+01  1.57874081435074E+00
(PID.TID 0000.0001)  ploadbar=  1.00995831093156E+05
 cg2d: Sum(rhs),rhsMax =  -8.92454738111791E+01  1.57327828942415E+00
(PID.TID 0000.0001)  ploadbar=  1.00997480277912E+05
 cg2d: Sum(rhs),rhsMax =  -8.95662325315567E+01  1.56756066205619E+00
(PID.TID 0000.0001)  ploadbar=  1.00999129462667E+05
 cg2d: Sum(rhs),rhsMax =  -9.00437555002564E+01  1.55914869611018E+00
(PID.TID 0000.0001)  ploadbar=  1.01000778647422E+05
 cg2d: Sum(rhs),rhsMax =  -9.06788160150089E+01  1.54811538885819E+00
(PID.TID 0000.0001)  ploadbar=  1.01002427832177E+05
 cg2d: Sum(rhs),rhsMax =  -9.14719393070288E+01  1.53456088950551E+00
(PID.TID 0000.0001)  ploadbar=  1.01004077016933E+05
 cg2d: Sum(rhs),rhsMax =  -9.24183967779114E+01  1.51869576615532E+00
(PID.TID 0000.0001)  ploadbar=  1.01005726201688E+05
 cg2d: Sum(rhs),rhsMax =  -9.34384697544734E+01  1.50199934965455E+00
(PID.TID 0000.0001)  ploadbar=  1.01006788109150E+05
 cg2d: Sum(rhs),rhsMax =  -9.44750158963308E+01  1.48542166505653E+00
(PID.TID 0000.0001)  ploadbar=  1.01007850016612E+05
 cg2d: Sum(rhs),rhsMax =  -9.55172436404615E+01  1.46913256844212E+00
(PID.TID 0000.0001)  ploadbar=  1.01008911924074E+05
 cg2d: Sum(rhs),rhsMax =  -9.65750667375306E+01  1.45297468208913E+00
(PID.TID 0000.0001)  ploadbar=  1.01009973831536E+05
 cg2d: Sum(rhs),rhsMax =  -9.76432210564131E+01  1.43701946301309E+00
(PID.TID 0000.0001)  ploadbar=  1.01011035738998E+05
 cg2d: Sum(rhs),rhsMax =  -9.87488868746493E+01  1.42085629584966E+00
(PID.TID 0000.0001)  ploadbar=  1.01012097646460E+05
 cg2d: Sum(rhs),rhsMax =  -9.98813523258919E+01  1.40467518235301E+00
(PID.TID 0000.0001)  ploadbar=  1.01013008242109E+05
 cg2d: Sum(rhs),rhsMax =  -1.01045512538939E+02  1.38840691204883E+00
(PID.TID 0000.0001)  ploadbar=  1.01013918837757E+05
 cg2d: Sum(rhs),rhsMax =  -1.02240597088471E+02  1.37207202960348E+00
(PID.TID 0000.0001)  ploadbar=  1.01014829433406E+05
 cg2d: Sum(rhs),rhsMax =  -1.03475513399023E+02  1.35557335723420E+00
(PID.TID 0000.0001)  ploadbar=  1.01015740029055E+05
 cg2d: Sum(rhs),rhsMax =  -1.04745166405939E+02  1.33900052649913E+00
(PID.TID 0000.0001)  ploadbar=  1.01016650624703E+05
 cg2d: Sum(rhs),rhsMax =  -1.06039867285657E+02  1.32249397230601E+00
(PID.TID 0000.0001)  ploadbar=  1.01017561220352E+05
 cg2d: Sum(rhs),rhsMax =  -1.07388684477096E+02  1.30578347433560E+00
(PID.TID 0000.0001)  ploadbar=  1.01018482032866E+05
 cg2d: Sum(rhs),rhsMax =  -1.08746949288707E+02  1.28941313223719E+00
(PID.TID 0000.0001)  ploadbar=  1.01019402845380E+05
 cg2d: Sum(rhs),rhsMax =  -1.10137061565722E+02  1.27310538691431E+00
(PID.TID 0000.0001)  ploadbar=  1.01020323657894E+05
 cg2d: Sum(rhs),rhsMax =  -1.11564453432581E+02  1.25680882541065E+00
(PID.TID 0000.0001)  ploadbar=  1.01021244470408E+05
 cg2d: Sum(rhs),rhsMax =  -1.13037448349539E+02  1.24044881944627E+00
(PID.TID 0000.0001)  ploadbar=  1.01022165282922E+05
 cg2d: Sum(rhs),rhsMax =  -1.13790374631006E+02  1.23228348262179E+00
(PID.TID 0000.0001)  ploadbar=  1.01023086095436E+05
 cg2d: Sum(rhs),rhsMax =  -1.13778541686671E+02  1.23245823587126E+00
(PID.TID 0000.0001)  ploadbar=  1.01023125635523E+05
 cg2d: Sum(rhs),rhsMax =  -1.14111271945694E+02  1.22890691580282E+00
(PID.TID 0000.0001)  ploadbar=  1.01023165175610E+05
 cg2d: Sum(rhs),rhsMax =  -1.14771136259402E+02  1.22188486064186E+00
(PID.TID 0000.0001)  ploadbar=  1.01023204715698E+05
 cg2d: Sum(rhs),rhsMax =  -1.15694535003551E+02  1.21217765345679E+00
(PID.TID 0000.0001)  ploadbar=  1.01023244255786E+05
 cg2d: Sum(rhs),rhsMax =  -1.16828477234855E+02  1.20045422746668E+00
(PID.TID 0000.0001)  ploadbar=  1.01023283795873E+05
 cg2d: Sum(rhs),rhsMax =  -1.18147026753012E+02  1.18709148383265E+00
(PID.TID 0000.0001)  ploadbar=  1.01023323335961E+05
 cg2d: Sum(rhs),rhsMax =  -1.19006569693868E+02  1.17855750460604E+00
(PID.TID 0000.0001)  ploadbar=  1.01023021048700E+05
 cg2d: Sum(rhs),rhsMax =  -1.19198690993149E+02  1.17669488885338E+00
(PID.TID 0000.0001)  ploadbar=  1.01022718761439E+05
 cg2d: Sum(rhs),rhsMax =  -1.19476883256307E+02  1.17398599555568E+00
(PID.TID 0000.0001)  ploadbar=  1.01022416474178E+05
 cg2d: Sum(rhs),rhsMax =  -1.19836210889670E+02  1.17048973456745E+00
(PID.TID 0000.0001)  ploadbar=  1.01022114186917E+05
 cg2d: Sum(rhs),rhsMax =  -1.18387322590674E+02  1.18482525178568E+00
(PID.TID 0000.0001)  ploadbar=  1.01021811899657E+05
 cg2d: Sum(rhs),rhsMax =  -1.17040252972088E+02  1.19846560999954E+00
(PID.TID 0000.0001)  ploadbar=  1.01021509612396E+05
 cg2d: Sum(rhs),rhsMax =  -1.15819967828030E+02  1.21108840801399E+00
(PID.TID 0000.0001)  ploadbar=  1.01021851840618E+05
 cg2d: Sum(rhs),rhsMax =  -1.14740889226161E+02  1.22243660913105E+00
(PID.TID 0000.0001)  ploadbar=  1.01022194068839E+05
 cg2d: Sum(rhs),rhsMax =  -1.13798777996062E+02  1.23247284832696E+00
(PID.TID 0000.0001)  ploadbar=  1.01022536297061E+05
 cg2d: Sum(rhs),rhsMax =  -1.12966227798173E+02  1.24143186917930E+00
(PID.TID 0000.0001)  ploadbar=  1.01022878525283E+05
 cg2d: Sum(rhs),rhsMax =  -1.12231546949665E+02  1.24939687491871E+00
(PID.TID 0000.0001)  ploadbar=  1.01023220753505E+05
 cg2d: Sum(rhs),rhsMax =  -1.11576479298724E+02  1.25653537438976E+00
(PID.TID 0000.0001)  ploadbar=  1.01023562981726E+05
 cg2d: Sum(rhs),rhsMax =  -1.10903487834648E+02  1.26400915545276E+00
(PID.TID 0000.0001)  ploadbar=  1.01023835710298E+05
 cg2d: Sum(rhs),rhsMax =  -1.10172543440343E+02  1.27227225090575E+00
(PID.TID 0000.0001)  ploadbar=  1.01024108438870E+05
 cg2d: Sum(rhs),rhsMax =  -1.09363625772073E+02  1.28158354258678E+00
(PID.TID 0000.0001)  ploadbar=  1.01024381167441E+05
 cg2d: Sum(rhs),rhsMax =  -1.08534428407151E+02  1.29130333978489E+00
(PID.TID 0000.0001)  ploadbar=  1.01024653896013E+05
 cg2d: Sum(rhs),rhsMax =  -1.07730232147954E+02  1.30090017986635E+00
(PID.TID 0000.0001)  ploadbar=  1.01024926624585E+05
 cg2d: Sum(rhs),rhsMax =  -1.06977749723884E+02  1.31003390976293E+00
(PID.TID 0000.0001)  ploadbar=  1.01025199353156E+05
 cg2d: Sum(rhs),rhsMax =  -1.06323756460506E+02  1.31809603345320E+00
(PID.TID 0000.0001)  ploadbar=  1.01026171224153E+05
 cg2d: Sum(rhs),rhsMax =  -1.05778759685636E+02  1.32490143469511E+00
(PID.TID 0000.0001)  ploadbar=  1.01027143095150E+05
 cg2d: Sum(rhs),rhsMax =  -1.05315344481573E+02  1.33075142137895E+00
(PID.TID 0000.0001)  ploadbar=  1.01028114966147E+05
 cg2d: Sum(rhs),rhsMax =  -1.04899379352543E+02  1.33605565838658E+00
(PID.TID 0000.0001)  ploadbar=  1.01029086837144E+05
 cg2d: Sum(rhs),rhsMax =  -1.04486965584713E+02  1.34136369409206E+00
(PID.TID 0000.0001)  ploadbar=  1.01030058708141E+05
 cg2d: Sum(rhs),rhsMax =  -1.04062105461064E+02  1.34687948987855E+00
(PID.TID 0000.0001)  ploadbar=  1.01031030579138E+05
 cg2d: Sum(rhs),rhsMax =  -1.03601776612697E+02  1.35289389624013E+00
(PID.TID 0000.0001)  ploadbar=  1.01031954661854E+05
 cg2d: Sum(rhs),rhsMax =  -1.03086450020875E+02  1.35966555417662E+00
(PID.TID 0000.0001)  ploadbar=  1.01032878744570E+05
 cg2d: Sum(rhs),rhsMax =  -1.02529592930123E+02  1.36703268452171E+00
(PID.TID 0000.0001)  ploadbar=  1.01033802827286E+05
 cg2d: Sum(rhs),rhsMax =  -1.01938530288848E+02  1.37491426583806E+00
(PID.TID 0000.0001)  ploadbar=  1.01034726910001E+05
 cg2d: Sum(rhs),rhsMax =  -1.01337203283855E+02  1.38299113843588E+00
(PID.TID 0000.0001)  ploadbar=  1.01035650992717E+05
 cg2d: Sum(rhs),rhsMax =  -1.00785684806399E+02  1.39043995395670E+00
(PID.TID 0000.0001)  ploadbar=  1.01036575075433E+05
 cg2d: Sum(rhs),rhsMax =  -1.00227874824828E+02  1.39804549976783E+00
(PID.TID 0000.0001)  ploadbar=  1.01037786881868E+05
 cg2d: Sum(rhs),rhsMax =  -9.97496855627830E+01  1.40457706749592E+00
(PID.TID 0000.0001)  ploadbar=  1.01038998688302E+05
 cg2d: Sum(rhs),rhsMax =  -9.93678492372957E+01  1.40975997168209E+00
(PID.TID 0000.0001)  ploadbar=  1.01040210494737E+05
 cg2d: Sum(rhs),rhsMax =  -9.90829515453552E+01  1.41355356134740E+00
(PID.TID 0000.0001)  ploadbar=  1.01041422301172E+05
 cg2d: Sum(rhs),rhsMax =  -9.88665552400294E+01  1.41634395002007E+00
(PID.TID 0000.0001)  ploadbar=  1.01042634107607E+05
 cg2d: Sum(rhs),rhsMax =  -9.86956833262232E+01  1.41845316633054E+00
(PID.TID 0000.0001)  ploadbar=  1.01043845914042E+05
 cg2d: Sum(rhs),rhsMax =  -9.85359555236599E+01  1.42046425478878E+00
(PID.TID 0000.0001)  ploadbar=  1.01044941467327E+05
 cg2d: Sum(rhs),rhsMax =  -9.83903417880979E+01  1.42231302079593E+00
(PID.TID 0000.0001)  ploadbar=  1.01046037020612E+05
 cg2d: Sum(rhs),rhsMax =  -9.82645026648992E+01  1.42391372656536E+00
(PID.TID 0000.0001)  ploadbar=  1.01047132573896E+05
 cg2d: Sum(rhs),rhsMax =  -9.81650217985516E+01  1.42517270653975E+00
(PID.TID 0000.0001)  ploadbar=  1.01048228127181E+05
 cg2d: Sum(rhs),rhsMax =  -9.81057726668367E+01  1.42589740864178E+00
(PID.TID 0000.0001)  ploadbar=  1.01049323680466E+05
 cg2d: Sum(rhs),rhsMax =  -9.81033082000011E+01  1.42585623088071E+00
(PID.TID 0000.0001)  ploadbar=  1.01050419233751E+05
 cg2d: Sum(rhs),rhsMax =  -9.82918688633389E+01  1.42308652062666E+00
(PID.TID 0000.0001)  ploadbar=  1.01050632295125E+05
 cg2d: Sum(rhs),rhsMax =  -9.84603247862232E+01  1.42063740049348E+00
(PID.TID 0000.0001)  ploadbar=  1.01050845356499E+05
 cg2d: Sum(rhs),rhsMax =  -9.86886219054663E+01  1.41735038753673E+00
(PID.TID 0000.0001)  ploadbar=  1.01051058417872E+05
 cg2d: Sum(rhs),rhsMax =  -9.90057466038691E+01  1.41282041830051E+00
(PID.TID 0000.0001)  ploadbar=  1.01051271479246E+05
 cg2d: Sum(rhs),rhsMax =  -9.93553947487500E+01  1.40786394723556E+00
(PID.TID 0000.0001)  ploadbar=  1.01051484540619E+05
 cg2d: Sum(rhs),rhsMax =  -9.97198428730363E+01  1.40273529499941E+00
(PID.TID 0000.0001)  ploadbar=  1.01051697601993E+05
 cg2d: Sum(rhs),rhsMax =  -1.00030115514487E+02  1.39840458855227E+00
(PID.TID 0000.0001)  ploadbar=  1.01052125351764E+05
 cg2d: Sum(rhs),rhsMax =  -1.00224264710195E+02  1.39571034521018E+00
(PID.TID 0000.0001)  ploadbar=  1.01052553101535E+05
 cg2d: Sum(rhs),rhsMax =  -1.00323187736310E+02  1.39434333422690E+00
(PID.TID 0000.0001)  ploadbar=  1.01052980851306E+05
 cg2d: Sum(rhs),rhsMax =  -1.00344202749609E+02  1.39405125351253E+00
(PID.TID 0000.0001)  ploadbar=  1.01053408601077E+05
 cg2d: Sum(rhs),rhsMax =  -1.00318256881605E+02  1.39439883853000E+00
(PID.TID 0000.0001)  ploadbar=  1.01053836350848E+05
 cg2d: Sum(rhs),rhsMax =  -1.00299743342921E+02  1.39462758499009E+00
(PID.TID 0000.0001)  ploadbar=  1.01054264100619E+05
 cg2d: Sum(rhs),rhsMax =  -1.00323122121446E+02  1.39426082573430E+00
(PID.TID 0000.0001)  ploadbar=  1.01054417503460E+05
 cg2d: Sum(rhs),rhsMax =  -1.00404720288697E+02  1.39305506361486E+00
(PID.TID 0000.0001)  ploadbar=  1.01054570906301E+05
 cg2d: Sum(rhs),rhsMax =  -1.00525963700798E+02  1.39126676642765E+00
(PID.TID 0000.0001)  ploadbar=  1.01054724309143E+05
 cg2d: Sum(rhs),rhsMax =  -1.00664565117658E+02  1.38920724080648E+00
(PID.TID 0000.0001)  ploadbar=  1.01054877711984E+05
 cg2d: Sum(rhs),rhsMax =  -1.00790249407008E+02  1.38729312529268E+00
(PID.TID 0000.0001)  ploadbar=  1.01055031114825E+05
 cg2d: Sum(rhs),rhsMax =  -1.00879275650495E+02  1.38584769857604E+00
(PID.TID 0000.0001)  ploadbar=  1.01055184517667E+05
 cg2d: Sum(rhs),rhsMax =  -1.00941962456290E+02  1.38481099158764E+00
(PID.TID 0000.0001)  ploadbar=  1.01055832862900E+05
 cg2d: Sum(rhs),rhsMax =  -1.00918023891410E+02  1.38499129119241E+00
(PID.TID 0000.0001)  ploadbar=  1.01056481208134E+05
 cg2d: Sum(rhs),rhsMax =  -1.00800788847562E+02  1.38648083143491E+00
(PID.TID 0000.0001)  ploadbar=  1.01057129553368E+05
 cg2d: Sum(rhs),rhsMax =  -1.00629957493745E+02  1.38874372916792E+00
(PID.TID 0000.0001)  ploadbar=  1.01057777898602E+05
 cg2d: Sum(rhs),rhsMax =  -1.00442191394223E+02  1.39129235443968E+00
(PID.TID 0000.0001)  ploadbar=  1.01058426243835E+05
 cg2d: Sum(rhs),rhsMax =  -1.00286259669985E+02  1.39346333830229E+00
(PID.TID 0000.0001)  ploadbar=  1.01059074589069E+05
 cg2d: Sum(rhs),rhsMax =  -1.00257575203776E+02  1.39391216156514E+00
(PID.TID 0000.0001)  ploadbar=  1.01060024701810E+05
 cg2d: Sum(rhs),rhsMax =  -1.00340274651375E+02  1.39282459462120E+00
(PID.TID 0000.0001)  ploadbar=  1.01060974814551E+05
 cg2d: Sum(rhs),rhsMax =  -1.00546952384132E+02  1.39003399816082E+00
(PID.TID 0000.0001)  ploadbar=  1.01061924927292E+05
 cg2d: Sum(rhs),rhsMax =  -1.00939604480726E+02  1.38471055323631E+00
(PID.TID 0000.0001)  ploadbar=  1.01062875040033E+05
 cg2d: Sum(rhs),rhsMax =  -1.01515527549239E+02  1.37695128992576E+00
(PID.TID 0000.0001)  ploadbar=  1.01063825152774E+05
 cg2d: Sum(rhs),rhsMax =  -1.02211944948181E+02  1.36766802613078E+00
(PID.TID 0000.0001)  ploadbar=  1.01064775265514E+05
 cg2d: Sum(rhs),rhsMax =  -1.02958789336646E+02  1.35783015059182E+00
(PID.TID 0000.0001)  ploadbar=  1.01065732532221E+05
 cg2d: Sum(rhs),rhsMax =  -1.02872218521972E+02  1.35903268351729E+00
(PID.TID 0000.0001)  ploadbar=  1.01066689798928E+05
 cg2d: Sum(rhs),rhsMax =  -1.01811900570907E+02  1.37322423456586E+00
(PID.TID 0000.0001)  ploadbar=  1.01067647065634E+05
 cg2d: Sum(rhs),rhsMax =  -1.00920727504988E+02  1.38536937659883E+00
(PID.TID 0000.0001)  ploadbar=  1.01068604332341E+05
 cg2d: Sum(rhs),rhsMax =  -1.00191665241204E+02  1.39544714224694E+00
(PID.TID 0000.0001)  ploadbar=  1.01069561599048E+05
 cg2d: Sum(rhs),rhsMax =  -9.96008447446553E+01  1.40369045324684E+00
(PID.TID 0000.0001)  ploadbar=  1.01070518865754E+05
 cg2d: Sum(rhs),rhsMax =  -9.93931484868974E+01  1.40657344197824E+00
(PID.TID 0000.0001)  ploadbar=  1.01071487658011E+05
 cg2d: Sum(rhs),rhsMax =  -9.95271658274125E+01  1.40460147450088E+00
(PID.TID 0000.0001)  ploadbar=  1.01072456450268E+05
 cg2d: Sum(rhs),rhsMax =  -9.99584586265262E+01  1.39843014922081E+00
(PID.TID 0000.0001)  ploadbar=  1.01073425242526E+05
 cg2d: Sum(rhs),rhsMax =  -1.00640961433120E+02  1.38880882965955E+00
(PID.TID 0000.0001)  ploadbar=  1.01074394034783E+05
 cg2d: Sum(rhs),rhsMax =  -1.01531260109517E+02  1.37646987660347E+00
(PID.TID 0000.0001)  ploadbar=  1.01075362827040E+05
 cg2d: Sum(rhs),rhsMax =  -1.02598854531711E+02  1.36196010914095E+00
(PID.TID 0000.0001)  ploadbar=  1.01076331619297E+05
 cg2d: Sum(rhs),rhsMax =  -1.03865536618515E+02  1.34521579205141E+00
(PID.TID 0000.0001)  ploadbar=  1.01077076329856E+05
 cg2d: Sum(rhs),rhsMax =  -1.05419318948364E+02  1.32528508230908E+00
(PID.TID 0000.0001)  ploadbar=  1.01077821040416E+05
 cg2d: Sum(rhs),rhsMax =  -1.07115519242050E+02  1.30422019795193E+00
(PID.TID 0000.0001)  ploadbar=  1.01078565750976E+05
 cg2d: Sum(rhs),rhsMax =  -1.06922733433149E+02  1.30651601370782E+00
(PID.TID 0000.0001)  ploadbar=  1.01079310461536E+05
 cg2d: Sum(rhs),rhsMax =  -1.06545097302601E+02  1.31112905441172E+00
(PID.TID 0000.0001)  ploadbar=  1.01080055172095E+05
 cg2d: Sum(rhs),rhsMax =  -1.06131610446898E+02  1.31628033447689E+00
(PID.TID 0000.0001)  ploadbar=  1.01080799882655E+05
 cg2d: Sum(rhs),rhsMax =  -1.05773698040168E+02  1.32079795412503E+00
(PID.TID 0000.0001)  ploadbar=  1.01081911663028E+05
 cg2d: Sum(rhs),rhsMax =  -1.05531765484931E+02  1.32389205024374E+00
(PID.TID 0000.0001)  ploadbar=  1.01083023443400E+05
 cg2d: Sum(rhs),rhsMax =  -1.05439770704593E+02  1.32511972591835E+00
(PID.TID 0000.0001)  ploadbar=  1.01084135223773E+05
 cg2d: Sum(rhs),rhsMax =  -1.05460514563378E+02  1.32494355247138E+00
(PID.TID 0000.0001)  ploadbar=  1.01085247004145E+05
 cg2d: Sum(rhs),rhsMax =  -1.05537247963312E+02  1.32407406429819E+00
(PID.TID 0000.0001)  ploadbar=  1.01086358784518E+05
 cg2d: Sum(rhs),rhsMax =  -1.05611940808355E+02  1.32323156045829E+00
(PID.TID 0000.0001)  ploadbar=  1.01087470564890E+05
 cg2d: Sum(rhs),rhsMax =  -1.05646002696259E+02  1.32291570834433E+00
(PID.TID 0000.0001)  ploadbar=  1.01088679107958E+05
 cg2d: Sum(rhs),rhsMax =  -1.05586299127852E+02  1.32378406822883E+00
(PID.TID 0000.0001)  ploadbar=  1.01089887651027E+05
 cg2d: Sum(rhs),rhsMax =  -1.05418325345364E+02  1.32602515117429E+00
(PID.TID 0000.0001)  ploadbar=  1.01091096194095E+05
 cg2d: Sum(rhs),rhsMax =  -1.05123568466159E+02  1.32988094044986E+00
(PID.TID 0000.0001)  ploadbar=  1.01092304737163E+05
 cg2d: Sum(rhs),rhsMax =  -1.04767329931503E+02  1.33453883132634E+00
(PID.TID 0000.0001)  ploadbar=  1.01093513280232E+05
 cg2d: Sum(rhs),rhsMax =  -1.04389961439000E+02  1.33948940656378E+00
(PID.TID 0000.0001)  ploadbar=  1.01094721823300E+05
 cg2d: Sum(rhs),rhsMax =  -1.04058535625727E+02  1.34386331555896E+00
(PID.TID 0000.0001)  ploadbar=  1.01095371102940E+05
 cg2d: Sum(rhs),rhsMax =  -1.03789128945656E+02  1.34742790195438E+00
(PID.TID 0000.0001)  ploadbar=  1.01096020382580E+05
 cg2d: Sum(rhs),rhsMax =  -1.03621280190503E+02  1.34964943075795E+00
(PID.TID 0000.0001)  ploadbar=  1.01096669662220E+05
 cg2d: Sum(rhs),rhsMax =  -1.03562201272234E+02  1.35042051862955E+00
(PID.TID 0000.0001)  ploadbar=  1.01097318941861E+05
 cg2d: Sum(rhs),rhsMax =  -1.03580014085450E+02  1.35015336748043E+00
(PID.TID 0000.0001)  ploadbar=  1.01097968221501E+05
 cg2d: Sum(rhs),rhsMax =  -1.03666805914668E+02  1.34895318558867E+00
(PID.TID 0000.0001)  ploadbar=  1.01098617501141E+05
 cg2d: Sum(rhs),rhsMax =  -1.03848674141716E+02  1.34656999321193E+00
(PID.TID 0000.0001)  ploadbar=  1.01099430925222E+05
 cg2d: Sum(rhs),rhsMax =  -1.04060746564075E+02  1.34383237755052E+00
(PID.TID 0000.0001)  ploadbar=  1.01100244349304E+05
 cg2d: Sum(rhs),rhsMax =  -1.04245673110574E+02  1.34148418193357E+00
(PID.TID 0000.0001)  ploadbar=  1.01101057773385E+05
 cg2d: Sum(rhs),rhsMax =  -1.04398354561288E+02  1.33959179044203E+00
(PID.TID 0000.0001)  ploadbar=  1.01101871197466E+05
 cg2d: Sum(rhs),rhsMax =  -1.04508530902115E+02  1.33828772314152E+00
(PID.TID 0000.0001)  ploadbar=  1.01102684621547E+05
 cg2d: Sum(rhs),rhsMax =  -1.04583603923769E+02  1.33747238924771E+00
(PID.TID 0000.0001)  ploadbar=  1.01103498045629E+05
 cg2d: Sum(rhs),rhsMax =  -1.04645612753659E+02  1.33684229948565E+00
(PID.TID 0000.0001)  ploadbar=  1.01103703119545E+05
 cg2d: Sum(rhs),rhsMax =  -1.04703359143525E+02  1.33626773972410E+00
(PID.TID 0000.0001)  ploadbar=  1.01103908193462E+05
 cg2d: Sum(rhs),rhsMax =  -1.04753381479807E+02  1.33579816684716E+00
(PID.TID 0000.0001)  ploadbar=  1.01104113267379E+05
 cg2d: Sum(rhs),rhsMax =  -1.04851148181526E+02  1.33472609921091E+00
(PID.TID 0000.0001)  ploadbar=  1.01104318341296E+05
 cg2d: Sum(rhs),rhsMax =  -1.05056804824387E+02  1.33228617624455E+00
(PID.TID 0000.0001)  ploadbar=  1.01104523415213E+05
 cg2d: Sum(rhs),rhsMax =  -1.05323410873349E+02  1.32908047050417E+00
(PID.TID 0000.0001)  ploadbar=  1.01104728489130E+05
 cg2d: Sum(rhs),rhsMax =  -1.05553570949207E+02  1.32634127681808E+00
(PID.TID 0000.0001)  ploadbar=  1.01105199167165E+05
 cg2d: Sum(rhs),rhsMax =  -1.05737772102814E+02  1.32417327393660E+00
(PID.TID 0000.0001)  ploadbar=  1.01105669845201E+05
 cg2d: Sum(rhs),rhsMax =  -1.05823615379919E+02  1.32322508361312E+00
(PID.TID 0000.0001)  ploadbar=  1.01106140523236E+05
 cg2d: Sum(rhs),rhsMax =  -1.05794425232672E+02  1.32369866549924E+00
(PID.TID 0000.0001)  ploadbar=  1.01106611201272E+05
 cg2d: Sum(rhs),rhsMax =  -1.05650365120850E+02  1.32559060722848E+00
(PID.TID 0000.0001)  ploadbar=  1.01107081879307E+05
 cg2d: Sum(rhs),rhsMax =  -1.05385841768075E+02  1.32897086970908E+00
(PID.TID 0000.0001)  ploadbar=  1.01107552557342E+05
 cg2d: Sum(rhs),rhsMax =  -1.05026924941253E+02  1.33355721085038E+00
(PID.TID 0000.0001)  ploadbar=  1.01107038172342E+05
 cg2d: Sum(rhs),rhsMax =  -1.04688500063759E+02  1.33789547068158E+00
(PID.TID 0000.0001)  ploadbar=  1.01106523787342E+05
 cg2d: Sum(rhs),rhsMax =  -1.04369085855616E+02  1.34199611110189E+00
(PID.TID 0000.0001)  ploadbar=  1.01106009402342E+05
 cg2d: Sum(rhs),rhsMax =  -1.04045861096834E+02  1.34614970362705E+00
(PID.TID 0000.0001)  ploadbar=  1.01105495017342E+05
 cg2d: Sum(rhs),rhsMax =  -1.03737475142906E+02  1.35011439005800E+00
(PID.TID 0000.0001)  ploadbar=  1.01104980632342E+05
 cg2d: Sum(rhs),rhsMax =  -1.03485111612901E+02  1.35334640895561E+00
(PID.TID 0000.0001)  ploadbar=  1.01104466247342E+05
 cg2d: Sum(rhs),rhsMax =  -1.03294144224679E+02  1.35585054056242E+00
(PID.TID 0000.0001)  ploadbar=  1.01104112476018E+05
 cg2d: Sum(rhs),rhsMax =  -1.03135928954277E+02  1.35797070286777E+00
(PID.TID 0000.0001)  ploadbar=  1.01103758704693E+05
 cg2d: Sum(rhs),rhsMax =  -1.03014202366680E+02  1.35965217106176E+00
(PID.TID 0000.0001)  ploadbar=  1.01103404933368E+05
 cg2d: Sum(rhs),rhsMax =  -1.02914562745534E+02  1.36108241558262E+00
(PID.TID 0000.0001)  ploadbar=  1.01103051162044E+05
 cg2d: Sum(rhs),rhsMax =  -1.02833529628250E+02  1.36230747004217E+00
(PID.TID 0000.0001)  ploadbar=  1.01102697390719E+05
 cg2d: Sum(rhs),rhsMax =  -1.02786937782285E+02  1.36313361879493E+00
(PID.TID 0000.0001)  ploadbar=  1.01102343619394E+05
 cg2d: Sum(rhs),rhsMax =  -1.02790465191854E+02  1.36331766056103E+00
(PID.TID 0000.0001)  ploadbar=  1.01101332667425E+05
 cg2d: Sum(rhs),rhsMax =  -1.02838035447069E+02  1.36292367765048E+00
(PID.TID 0000.0001)  ploadbar=  1.01100321715456E+05
 cg2d: Sum(rhs),rhsMax =  -1.02955712176529E+02  1.36160970174254E+00
(PID.TID 0000.0001)  ploadbar=  1.01099310763487E+05
 cg2d: Sum(rhs),rhsMax =  -1.03126386775341E+02  1.35960414050579E+00
(PID.TID 0000.0001)  ploadbar=  1.01098299811517E+05
 cg2d: Sum(rhs),rhsMax =  -1.03324991865332E+02  1.35723258485442E+00
(PID.TID 0000.0001)  ploadbar=  1.01097288859548E+05
 cg2d: Sum(rhs),rhsMax =  -1.03531477252748E+02  1.35475518166722E+00
(PID.TID 0000.0001)  ploadbar=  1.01096277907579E+05
 cg2d: Sum(rhs),rhsMax =  -1.03797545467125E+02  1.35150106850576E+00
(PID.TID 0000.0001)  ploadbar=  1.01094518388269E+05
 cg2d: Sum(rhs),rhsMax =  -1.04041653917862E+02  1.34853050871694E+00
(PID.TID 0000.0001)  ploadbar=  1.01092758868959E+05
 cg2d: Sum(rhs),rhsMax =  -1.04240310758826E+02  1.34614327439967E+00
(PID.TID 0000.0001)  ploadbar=  1.01090999349649E+05
 cg2d: Sum(rhs),rhsMax =  -1.04376500431075E+02  1.34455223479926E+00
(PID.TID 0000.0001)  ploadbar=  1.01089239830339E+05
 cg2d: Sum(rhs),rhsMax =  -1.04463135192599E+02  1.34357861949910E+00
(PID.TID 0000.0001)  ploadbar=  1.01087480311030E+05
 cg2d: Sum(rhs),rhsMax =  -1.04615360014236E+02  1.34173438857589E+00
(PID.TID 0000.0001)  ploadbar=  1.01085720791720E+05
 cg2d: Sum(rhs),rhsMax =  -1.04745338102898E+02  1.34018120618497E+00
(PID.TID 0000.0001)  ploadbar=  1.01084030024133E+05
 cg2d: Sum(rhs),rhsMax =  -1.04825764620726E+02  1.33925552479947E+00
(PID.TID 0000.0001)  ploadbar=  1.01082339256547E+05
 cg2d: Sum(rhs),rhsMax =  -1.04895382463782E+02  1.33845546625760E+00
(PID.TID 0000.0001)  ploadbar=  1.01080648488960E+05
 cg2d: Sum(rhs),rhsMax =  -1.05037439831961E+02  1.33671827863212E+00
(PID.TID 0000.0001)  ploadbar=  1.01078957721374E+05
 cg2d: Sum(rhs),rhsMax =  -1.05280080632210E+02  1.33369093821803E+00
(PID.TID 0000.0001)  ploadbar=  1.01077266953787E+05
 cg2d: Sum(rhs),rhsMax =  -1.05647115302077E+02  1.32908699102407E+00
(PID.TID 0000.0001)  ploadbar=  1.01075576186201E+05
 cg2d: Sum(rhs),rhsMax =  -1.06121873361929E+02  1.32321876247227E+00
(PID.TID 0000.0001)  ploadbar=  1.01074345200349E+05
 cg2d: Sum(rhs),rhsMax =  -1.06467830262667E+02  1.31902265092726E+00
(PID.TID 0000.0001)  ploadbar=  1.01073114214496E+05
 cg2d: Sum(rhs),rhsMax =  -1.05680804558693E+02  1.32897430548288E+00
(PID.TID 0000.0001)  ploadbar=  1.01071883228644E+05
 cg2d: Sum(rhs),rhsMax =  -1.04854365254441E+02  1.33960149307304E+00
(PID.TID 0000.0001)  ploadbar=  1.01070652242792E+05
 cg2d: Sum(rhs),rhsMax =  -1.04082977137317E+02  1.34970242456967E+00
(PID.TID 0000.0001)  ploadbar=  1.01069421256940E+05
 cg2d: Sum(rhs),rhsMax =  -1.03393911347714E+02  1.35889376418280E+00
(PID.TID 0000.0001)  ploadbar=  1.01068190271088E+05
 cg2d: Sum(rhs),rhsMax =  -1.02827285490820E+02  1.36660829616473E+00
(PID.TID 0000.0001)  ploadbar=  1.01068201800849E+05
 cg2d: Sum(rhs),rhsMax =  -1.02403816707377E+02  1.37250647839330E+00
(PID.TID 0000.0001)  ploadbar=  1.01068213330611E+05
 cg2d: Sum(rhs),rhsMax =  -1.02132667308147E+02  1.37641488994684E+00
(PID.TID 0000.0001)  ploadbar=  1.01068224860372E+05
 cg2d: Sum(rhs),rhsMax =  -1.02061422819700E+02  1.37765500740648E+00
(PID.TID 0000.0001)  ploadbar=  1.01068236390134E+05
 cg2d: Sum(rhs),rhsMax =  -1.02155042133033E+02  1.37667940715430E+00
(PID.TID 0000.0001)  ploadbar=  1.01068247919895E+05
 cg2d: Sum(rhs),rhsMax =  -1.02401139806659E+02  1.37365432531406E+00
(PID.TID 0000.0001)  ploadbar=  1.01068259449657E+05
 cg2d: Sum(rhs),rhsMax =  -1.02718971391464E+02  1.36967545800396E+00
(PID.TID 0000.0001)  ploadbar=  1.01067693816830E+05
 cg2d: Sum(rhs),rhsMax =  -1.03056023021723E+02  1.36544493639067E+00
(PID.TID 0000.0001)  ploadbar=  1.01067128184004E+05
 cg2d: Sum(rhs),rhsMax =  -1.03424447814559E+02  1.36080441339055E+00
(PID.TID 0000.0001)  ploadbar=  1.01066562551178E+05
 cg2d: Sum(rhs),rhsMax =  -1.03835412516430E+02  1.35561687295987E+00
(PID.TID 0000.0001)  ploadbar=  1.01065996918351E+05
 cg2d: Sum(rhs),rhsMax =  -1.04287256841576E+02  1.34991286389753E+00
(PID.TID 0000.0001)  ploadbar=  1.01065431285525E+05
 cg2d: Sum(rhs),rhsMax =  -1.04766870854204E+02  1.34387089911149E+00
(PID.TID 0000.0001)  ploadbar=  1.01064865652699E+05
 cg2d: Sum(rhs),rhsMax =  -1.05229119684507E+02  1.33809552786900E+00
(PID.TID 0000.0001)  ploadbar=  1.01065165672544E+05
 cg2d: Sum(rhs),rhsMax =  -1.05612932222152E+02  1.33333525908533E+00
(PID.TID 0000.0001)  ploadbar=  1.01065465692388E+05
 cg2d: Sum(rhs),rhsMax =  -1.05906157111520E+02  1.32971625290748E+00
(PID.TID 0000.0001)  ploadbar=  1.01065765712233E+05
 cg2d: Sum(rhs),rhsMax =  -1.06185035069542E+02  1.32626665365822E+00
(PID.TID 0000.0001)  ploadbar=  1.01066065732078E+05
 cg2d: Sum(rhs),rhsMax =  -1.06557931849679E+02  1.32163493837665E+00
(PID.TID 0000.0001)  ploadbar=  1.01066365751923E+05
 cg2d: Sum(rhs),rhsMax =  -1.07024575436395E+02  1.31584387692859E+00
(PID.TID 0000.0001)  ploadbar=  1.01066665771768E+05
 cg2d: Sum(rhs),rhsMax =  -1.07398278263959E+02  1.31127550816225E+00
(PID.TID 0000.0001)  ploadbar=  1.01067705448289E+05
 cg2d: Sum(rhs),rhsMax =  -1.07622748539159E+02  1.30856940113939E+00
(PID.TID 0000.0001)  ploadbar=  1.01068745124810E+05
 cg2d: Sum(rhs),rhsMax =  -1.07766252613873E+02  1.30687384039342E+00
(PID.TID 0000.0001)  ploadbar=  1.01069784801330E+05
 cg2d: Sum(rhs),rhsMax =  -1.07863651477893E+02  1.30575933870659E+00
(PID.TID 0000.0001)  ploadbar=  1.01070824477851E+05
 cg2d: Sum(rhs),rhsMax =  -1.08002421828777E+02  1.30416154581027E+00
(PID.TID 0000.0001)  ploadbar=  1.01071864154372E+05
 cg2d: Sum(rhs),rhsMax =  -1.08182325311423E+02  1.30208370439637E+00
(PID.TID 0000.0001)  ploadbar=  1.01072903830893E+05
 cg2d: Sum(rhs),rhsMax =  -1.08446398489783E+02  1.29901315706666E+00
(PID.TID 0000.0001)  ploadbar=  1.01073676514122E+05
 cg2d: Sum(rhs),rhsMax =  -1.08782019395526E+02  1.29510675329147E+00
(PID.TID 0000.0001)  ploadbar=  1.01074449197350E+05
 cg2d: Sum(rhs),rhsMax =  -1.09178978882707E+02  1.29049878692640E+00
(PID.TID 0000.0001)  ploadbar=  1.01075221880578E+05
 cg2d: Sum(rhs),rhsMax =  -1.09618167741438E+02  1.28542396533187E+00
(PID.TID 0000.0001)  ploadbar=  1.01075994563807E+05
 cg2d: Sum(rhs),rhsMax =  -1.10098308917036E+02  1.27989905970707E+00
(PID.TID 0000.0001)  ploadbar=  1.01076767247035E+05
 cg2d: Sum(rhs),rhsMax =  -1.10677910428483E+02  1.27325620122937E+00
(PID.TID 0000.0001)  ploadbar=  1.01077539930264E+05
 cg2d: Sum(rhs),rhsMax =  -1.11259966127531E+02  1.26665227760015E+00
(PID.TID 0000.0001)  ploadbar=  1.01077942405293E+05
 cg2d: Sum(rhs),rhsMax =  -1.11786770059692E+02  1.26072871534735E+00
(PID.TID 0000.0001)  ploadbar=  1.01078344880321E+05
 cg2d: Sum(rhs),rhsMax =  -1.12247232497899E+02  1.25559139547289E+00
(PID.TID 0000.0001)  ploadbar=  1.01078747355350E+05
 cg2d: Sum(rhs),rhsMax =  -1.12358225820838E+02  1.25437364512208E+00
(PID.TID 0000.0001)  ploadbar=  1.01079149830379E+05
 cg2d: Sum(rhs),rhsMax =  -1.12474729293910E+02  1.25308132503669E+00
(PID.TID 0000.0001)  ploadbar=  1.01079552305408E+05
 cg2d: Sum(rhs),rhsMax =  -1.12613017386692E+02  1.25152858075969E+00
(PID.TID 0000.0001)  ploadbar=  1.01079954780437E+05
 cg2d: Sum(rhs),rhsMax =  -1.12680091020581E+02  1.25075585631294E+00
(PID.TID 0000.0001)  ploadbar=  1.01080394725756E+05
 cg2d: Sum(rhs),rhsMax =  -1.12764806217237E+02  1.24976248221852E+00
(PID.TID 0000.0001)  ploadbar=  1.01080834671075E+05
 cg2d: Sum(rhs),rhsMax =  -1.12897080258651E+02  1.24821228860173E+00
(PID.TID 0000.0001)  ploadbar=  1.01081274616394E+05
 cg2d: Sum(rhs),rhsMax =  -1.13185990833505E+02  1.24490153224362E+00
(PID.TID 0000.0001)  ploadbar=  1.01081714561713E+05
 cg2d: Sum(rhs),rhsMax =  -1.13586745343057E+02  1.24034338160821E+00
(PID.TID 0000.0001)  ploadbar=  1.01082154507031E+05
 cg2d: Sum(rhs),rhsMax =  -1.14206698426264E+02  1.23340351997375E+00
(PID.TID 0000.0001)  ploadbar=  1.01082594452350E+05
 cg2d: Sum(rhs),rhsMax =  -1.14718755448096E+02  1.22775529399119E+00
(PID.TID 0000.0001)  ploadbar=  1.01082372582597E+05
 cg2d: Sum(rhs),rhsMax =  -1.15113652654877E+02  1.22344680538910E+00
(PID.TID 0000.0001)  ploadbar=  1.01082150712844E+05
 cg2d: Sum(rhs),rhsMax =  -1.15385697634718E+02  1.22050590365193E+00
(PID.TID 0000.0001)  ploadbar=  1.01081928843090E+05
 cg2d: Sum(rhs),rhsMax =  -1.15507857824686E+02  1.21919843680949E+00
(PID.TID 0000.0001)  ploadbar=  1.01081706973337E+05
 cg2d: Sum(rhs),rhsMax =  -1.15304265664279E+02  1.22137060878916E+00
(PID.TID 0000.0001)  ploadbar=  1.01081485103584E+05
 cg2d: Sum(rhs),rhsMax =  -1.15072254636344E+02  1.22388328156794E+00
(PID.TID 0000.0001)  ploadbar=  1.01081263233830E+05
 cg2d: Sum(rhs),rhsMax =  -1.14815891583095E+02  1.22665630163781E+00
(PID.TID 0000.0001)  ploadbar=  1.01081386952650E+05
 cg2d: Sum(rhs),rhsMax =  -1.14519982898955E+02  1.22984270540246E+00
(PID.TID 0000.0001)  ploadbar=  1.01081510671469E+05
 cg2d: Sum(rhs),rhsMax =  -1.14200679056075E+02  1.23326909663244E+00
(PID.TID 0000.0001)  ploadbar=  1.01081634390288E+05
 cg2d: Sum(rhs),rhsMax =  -1.13865344130851E+02  1.23685565305623E+00
(PID.TID 0000.0001)  ploadbar=  1.01081758109107E+05
 cg2d: Sum(rhs),rhsMax =  -1.13539108697647E+02  1.24032937660988E+00
(PID.TID 0000.0001)  ploadbar=  1.01081881827926E+05
 cg2d: Sum(rhs),rhsMax =  -1.13280437529679E+02  1.24305214435350E+00
(PID.TID 0000.0001)  ploadbar=  1.01082005546745E+05
 cg2d: Sum(rhs),rhsMax =  -1.12996079147872E+02  1.24608954264277E+00
(PID.TID 0000.0001)  ploadbar=  1.01082080134388E+05
 cg2d: Sum(rhs),rhsMax =  -1.12697629419386E+02  1.24930040043137E+00
(PID.TID 0000.0001)  ploadbar=  1.01082154722030E+05
 cg2d: Sum(rhs),rhsMax =  -1.12484402301253E+02  1.25158308481260E+00
(PID.TID 0000.0001)  ploadbar=  1.01082229309673E+05
 cg2d: Sum(rhs),rhsMax =  -1.12372595190866E+02  1.25274823884272E+00
(PID.TID 0000.0001)  ploadbar=  1.01082303897315E+05
 cg2d: Sum(rhs),rhsMax =  -1.12352292164580E+02  1.25289808107685E+00
(PID.TID 0000.0001)  ploadbar=  1.01082378484958E+05
 cg2d: Sum(rhs),rhsMax =  -1.12411959331662E+02  1.25215706700049E+00
(PID.TID 0000.0001)  ploadbar=  1.01082453072600E+05
 cg2d: Sum(rhs),rhsMax =  -1.12536234556885E+02  1.25069056711172E+00
(PID.TID 0000.0001)  ploadbar=  1.01081947699879E+05
 cg2d: Sum(rhs),rhsMax =  -1.12690710259303E+02  1.24886116186841E+00
(PID.TID 0000.0001)  ploadbar=  1.01081442327158E+05
 cg2d: Sum(rhs),rhsMax =  -1.12853881784752E+02  1.24690348024205E+00
(PID.TID 0000.0001)  ploadbar=  1.01080936954437E+05
 cg2d: Sum(rhs),rhsMax =  -1.13081342510383E+02  1.24420055547636E+00
(PID.TID 0000.0001)  ploadbar=  1.01080431581715E+05
 cg2d: Sum(rhs),rhsMax =  -1.13459239608935E+02  1.23981665355686E+00
(PID.TID 0000.0001)  ploadbar=  1.01079926208994E+05
 cg2d: Sum(rhs),rhsMax =  -1.13994947712738E+02  1.23370756979092E+00
(PID.TID 0000.0001)  ploadbar=  1.01079420836273E+05
 cg2d: Sum(rhs),rhsMax =  -1.14507241090966E+02  1.22796843397899E+00
(PID.TID 0000.0001)  ploadbar=  1.01077976153326E+05
 cg2d: Sum(rhs),rhsMax =  -1.15014967978611E+02  1.22237572652619E+00
(PID.TID 0000.0001)  ploadbar=  1.01076531470380E+05
 cg2d: Sum(rhs),rhsMax =  -1.15519025885017E+02  1.21690484488593E+00
(PID.TID 0000.0001)  ploadbar=  1.01075086787433E+05
 cg2d: Sum(rhs),rhsMax =  -1.16004494153741E+02  1.21170047283836E+00
(PID.TID 0000.0001)  ploadbar=  1.01073642104486E+05
 cg2d: Sum(rhs),rhsMax =  -1.16459256811163E+02  1.20687626103326E+00
(PID.TID 0000.0001)  ploadbar=  1.01072197421540E+05
 cg2d: Sum(rhs),rhsMax =  -1.16916327952176E+02  1.20207535165253E+00
(PID.TID 0000.0001)  ploadbar=  1.01070752738593E+05
 cg2d: Sum(rhs),rhsMax =  -1.17351801681722E+02  1.19752303215942E+00
(PID.TID 0000.0001)  ploadbar=  1.01069945020714E+05
 cg2d: Sum(rhs),rhsMax =  -1.17767018446391E+02  1.19319258443811E+00
(PID.TID 0000.0001)  ploadbar=  1.01069137302834E+05
 cg2d: Sum(rhs),rhsMax =  -1.18148471824623E+02  1.18921334267038E+00
(PID.TID 0000.0001)  ploadbar=  1.01068329584954E+05
 cg2d: Sum(rhs),rhsMax =  -1.18484645805144E+02  1.18569817549027E+00
(PID.TID 0000.0001)  ploadbar=  1.01067521867074E+05
 cg2d: Sum(rhs),rhsMax =  -1.18780952730838E+02  1.18258625069283E+00
(PID.TID 0000.0001)  ploadbar=  1.01066714149195E+05
 cg2d: Sum(rhs),rhsMax =  -1.19051570346948E+02  1.17972885571915E+00
(PID.TID 0000.0001)  ploadbar=  1.01065906431315E+05
 cg2d: Sum(rhs),rhsMax =  -1.19300963774904E+02  1.17711487452965E+00
(PID.TID 0000.0001)  ploadbar=  1.01066167916093E+05
 cg2d: Sum(rhs),rhsMax =  -1.19511403276272E+02  1.17490132451702E+00
(PID.TID 0000.0001)  ploadbar=  1.01066429400872E+05
 cg2d: Sum(rhs),rhsMax =  -1.19693194831014E+02  1.17298125373997E+00
(PID.TID 0000.0001)  ploadbar=  1.01066690885651E+05
 cg2d: Sum(rhs),rhsMax =  -1.19847788640361E+02  1.17133873660790E+00
(PID.TID 0000.0001)  ploadbar=  1.01066952370429E+05
 cg2d: Sum(rhs),rhsMax =  -1.19557853975146E+02  1.17405515819773E+00
(PID.TID 0000.0001)  ploadbar=  1.01067213855208E+05
 cg2d: Sum(rhs),rhsMax =  -1.18991164185595E+02  1.17951909043338E+00
(PID.TID 0000.0001)  ploadbar=  1.01067475339987E+05
 cg2d: Sum(rhs),rhsMax =  -1.18603133840214E+02  1.18323636716834E+00
(PID.TID 0000.0001)  ploadbar=  1.01067863952598E+05
 cg2d: Sum(rhs),rhsMax =  -1.18259530981438E+02  1.18650337124487E+00
(PID.TID 0000.0001)  ploadbar=  1.01068252565209E+05
 cg2d: Sum(rhs),rhsMax =  -1.17982195903164E+02  1.18908552017077E+00
(PID.TID 0000.0001)  ploadbar=  1.01068641177819E+05
 cg2d: Sum(rhs),rhsMax =  -1.17813291253988E+02  1.19054519050232E+00
(PID.TID 0000.0001)  ploadbar=  1.01069029790430E+05
 cg2d: Sum(rhs),rhsMax =  -1.17747704896172E+02  1.19092445982540E+00
(PID.TID 0000.0001)  ploadbar=  1.01069418403041E+05
 cg2d: Sum(rhs),rhsMax =  -1.17778392399278E+02  1.19029241687110E+00
(PID.TID 0000.0001)  ploadbar=  1.01069807015652E+05
 cg2d: Sum(rhs),rhsMax =  -1.17708998930614E+02  1.19072911681019E+00
(PID.TID 0000.0001)  ploadbar=  1.01069465936345E+05
 cg2d: Sum(rhs),rhsMax =  -1.17700892263583E+02  1.19058248342850E+00
(PID.TID 0000.0001)  ploadbar=  1.01069124857038E+05
 cg2d: Sum(rhs),rhsMax =  -1.17790997241146E+02  1.18946609334191E+00
(PID.TID 0000.0001)  ploadbar=  1.01068783777731E+05
 cg2d: Sum(rhs),rhsMax =  -1.17984198514319E+02  1.18733224139651E+00
(PID.TID 0000.0001)  ploadbar=  1.01068442698424E+05
 cg2d: Sum(rhs),rhsMax =  -1.18273913211881E+02  1.18425716420022E+00
(PID.TID 0000.0001)  ploadbar=  1.01068101619117E+05
 cg2d: Sum(rhs),rhsMax =  -1.18663850996527E+02  1.18021409361613E+00
(PID.TID 0000.0001)  ploadbar=  1.01067760539810E+05
 cg2d: Sum(rhs),rhsMax =  -1.19180674167298E+02  1.17496517058007E+00
(PID.TID 0000.0001)  ploadbar=  1.01067415606829E+05
 cg2d: Sum(rhs),rhsMax =  -1.19804470998920E+02  1.16872993878570E+00
(PID.TID 0000.0001)  ploadbar=  1.01067070673848E+05
 cg2d: Sum(rhs),rhsMax =  -1.20555341512010E+02  1.16134426025797E+00
(PID.TID 0000.0001)  ploadbar=  1.01066725740868E+05
 cg2d: Sum(rhs),rhsMax =  -1.21454686918499E+02  1.15264929812641E+00
(PID.TID 0000.0001)  ploadbar=  1.01066380807887E+05
 cg2d: Sum(rhs),rhsMax =  -1.22528993179013E+02  1.14245417493001E+00
(PID.TID 0000.0001)  ploadbar=  1.01066035874906E+05
 cg2d: Sum(rhs),rhsMax =  -1.22903129570749E+02  1.13888900584037E+00
(PID.TID 0000.0001)  ploadbar=  1.01065690941925E+05
 cg2d: Sum(rhs),rhsMax =  -1.20185367575584E+02  1.16456532159459E+00
(PID.TID 0000.0001)  ploadbar=  1.01065917913285E+05
 cg2d: Sum(rhs),rhsMax =  -1.17590287023249E+02  1.19018527751220E+00
(PID.TID 0000.0001)  ploadbar=  1.01066144884645E+05
 cg2d: Sum(rhs),rhsMax =  -1.15092586020823E+02  1.21592913942357E+00
(PID.TID 0000.0001)  ploadbar=  1.01066371856005E+05
 cg2d: Sum(rhs),rhsMax =  -1.12858686413735E+02  1.23990794779344E+00
(PID.TID 0000.0001)  ploadbar=  1.01066598827365E+05
 cg2d: Sum(rhs),rhsMax =  -1.12100229435953E+02  1.24820129418898E+00
(PID.TID 0000.0001)  ploadbar=  1.01066825798726E+05
 cg2d: Sum(rhs),rhsMax =  -1.11443120530559E+02  1.25544010716446E+00
(PID.TID 0000.0001)  ploadbar=  1.01067052770086E+05
 cg2d: Sum(rhs),rhsMax =  -1.10743958539838E+02  1.26324315344384E+00
(PID.TID 0000.0001)  ploadbar=  1.01066515449449E+05
 cg2d: Sum(rhs),rhsMax =  -1.10020620253996E+02  1.27141230940683E+00
(PID.TID 0000.0001)  ploadbar=  1.01065978128812E+05
 cg2d: Sum(rhs),rhsMax =  -1.09277726058972E+02  1.27989732386126E+00
(PID.TID 0000.0001)  ploadbar=  1.01065440808175E+05
 cg2d: Sum(rhs),rhsMax =  -1.08514512640632E+02  1.28871646211017E+00
(PID.TID 0000.0001)  ploadbar=  1.01064903487539E+05
 cg2d: Sum(rhs),rhsMax =  -1.07737155115882E+02  1.29780626220833E+00
(PID.TID 0000.0001)  ploadbar=  1.01064366166902E+05
 cg2d: Sum(rhs),rhsMax =  -1.06946617834696E+02  1.30716416252326E+00
(PID.TID 0000.0001)  ploadbar=  1.01063828846265E+05
 cg2d: Sum(rhs),rhsMax =  -1.06159602944285E+02  1.31667777942372E+00
(PID.TID 0000.0001)  ploadbar=  1.01062860813403E+05
 cg2d: Sum(rhs),rhsMax =  -1.05344350942850E+02  1.32672727256905E+00
(PID.TID 0000.0001)  ploadbar=  1.01061892780541E+05
 cg2d: Sum(rhs),rhsMax =  -1.04303296802977E+02  1.33985473428467E+00
(PID.TID 0000.0001)  ploadbar=  1.01060924747679E+05
 cg2d: Sum(rhs),rhsMax =  -1.03399357405875E+02  1.35147801951294E+00
(PID.TID 0000.0001)  ploadbar=  1.01059956714817E+05
 cg2d: Sum(rhs),rhsMax =  -1.02352497608351E+02  1.36523570474740E+00
(PID.TID 0000.0001)  ploadbar=  1.01058988681954E+05
 cg2d: Sum(rhs),rhsMax =  -1.01677764767841E+02  1.37425379124260E+00
(PID.TID 0000.0001)  ploadbar=  1.01058020649092E+05
 cg2d: Sum(rhs),rhsMax =  -1.01098000351657E+02  1.38208886066606E+00
(PID.TID 0000.0001)  ploadbar=  1.01056804770489E+05
 cg2d: Sum(rhs),rhsMax =  -1.00579552321687E+02  1.38915776079922E+00
(PID.TID 0000.0001)  ploadbar=  1.01055588891885E+05
 cg2d: Sum(rhs),rhsMax =  -1.00106679500236E+02  1.39565596588092E+00
(PID.TID 0000.0001)  ploadbar=  1.01054373013282E+05
 cg2d: Sum(rhs),rhsMax =  -9.96534812389938E+01  1.40192617209819E+00
(PID.TID 0000.0001)  ploadbar=  1.01053157134678E+05
 cg2d: Sum(rhs),rhsMax =  -9.92191412760749E+01  1.40796799453176E+00
(PID.TID 0000.0001)  ploadbar=  1.01051941256075E+05
 cg2d: Sum(rhs),rhsMax =  -9.88060301987040E+01  1.41373865001228E+00
(PID.TID 0000.0001)  ploadbar=  1.01050725377471E+05
 cg2d: Sum(rhs),rhsMax =  -9.84264960152420E+01  1.41910172020509E+00
(PID.TID 0000.0001)  ploadbar=  1.01050895725358E+05
 cg2d: Sum(rhs),rhsMax =  -9.80636566440619E+01  1.42428068043162E+00
(PID.TID 0000.0001)  ploadbar=  1.01051066073245E+05
 cg2d: Sum(rhs),rhsMax =  -9.77486298119577E+01  1.42881344145511E+00
(PID.TID 0000.0001)  ploadbar=  1.01051236421132E+05
 cg2d: Sum(rhs),rhsMax =  -9.74888623468372E+01  1.43257565779023E+00
(PID.TID 0000.0001)  ploadbar=  1.01051406769019E+05
 cg2d: Sum(rhs),rhsMax =  -9.72679047604059E+01  1.43579162773152E+00
(PID.TID 0000.0001)  ploadbar=  1.01051577116906E+05
 cg2d: Sum(rhs),rhsMax =  -9.71392089799490E+01  1.43764626084359E+00
(PID.TID 0000.0001)  ploadbar=  1.01051747464793E+05
 cg2d: Sum(rhs),rhsMax =  -9.72950489291457E+01  1.43527937277013E+00
(PID.TID 0000.0001)  ploadbar=  1.01051085321649E+05
 cg2d: Sum(rhs),rhsMax =  -9.77332058946675E+01  1.42874479196152E+00
(PID.TID 0000.0001)  ploadbar=  1.01050423178505E+05
 cg2d: Sum(rhs),rhsMax =  -9.84314065139289E+01  1.41846812123700E+00
(PID.TID 0000.0001)  ploadbar=  1.01049761035361E+05
 cg2d: Sum(rhs),rhsMax =  -9.93714686167010E+01  1.40486584434992E+00
(PID.TID 0000.0001)  ploadbar=  1.01049098892217E+05
 cg2d: Sum(rhs),rhsMax =  -1.00552920531801E+02  1.38813560196467E+00
(PID.TID 0000.0001)  ploadbar=  1.01048436749073E+05
 cg2d: Sum(rhs),rhsMax =  -1.01980183389982E+02  1.36844593871108E+00
(PID.TID 0000.0001)  ploadbar=  1.01047774605929E+05
 cg2d: Sum(rhs),rhsMax =  -1.03588404506531E+02  1.34701084341812E+00
(PID.TID 0000.0001)  ploadbar=  1.01046842045512E+05
 cg2d: Sum(rhs),rhsMax =  -1.05335759870816E+02  1.32451950965330E+00
(PID.TID 0000.0001)  ploadbar=  1.01045909485096E+05
 cg2d: Sum(rhs),rhsMax =  -1.07205640424636E+02  1.30130098469317E+00
(PID.TID 0000.0001)  ploadbar=  1.01044976924680E+05
 cg2d: Sum(rhs),rhsMax =  -1.09204282835612E+02  1.27739502956592E+00
(PID.TID 0000.0001)  ploadbar=  1.01044044364264E+05
 cg2d: Sum(rhs),rhsMax =  -1.11335014862825E+02  1.25288138697737E+00
(PID.TID 0000.0001)  ploadbar=  1.01043111803847E+05
 cg2d: Sum(rhs),rhsMax =  -1.13587563097063E+02  1.22798655656453E+00
(PID.TID 0000.0001)  ploadbar=  1.01042179243431E+05
 cg2d: Sum(rhs),rhsMax =  -1.15927429620722E+02  1.20315978166969E+00
(PID.TID 0000.0001)  ploadbar=  1.01042379809552E+05
 cg2d: Sum(rhs),rhsMax =  -1.18357119563354E+02  1.17842302527230E+00
(PID.TID 0000.0001)  ploadbar=  1.01042580375673E+05
 cg2d: Sum(rhs),rhsMax =  -1.20865221988723E+02  1.15393019214196E+00
(PID.TID 0000.0001)  ploadbar=  1.01042780941794E+05
 cg2d: Sum(rhs),rhsMax =  -1.23437930160274E+02  1.12983925591828E+00
(PID.TID 0000.0001)  ploadbar=  1.01042981507914E+05
 cg2d: Sum(rhs),rhsMax =  -1.24869408717459E+02  1.11684352302149E+00
(PID.TID 0000.0001)  ploadbar=  1.01043182074035E+05
 cg2d: Sum(rhs),rhsMax =  -1.24533950311284E+02  1.11979575059550E+00
(PID.TID 0000.0001)  ploadbar=  1.01043382640156E+05
 cg2d: Sum(rhs),rhsMax =  -1.24325175154521E+02  1.12164134890181E+00
(PID.TID 0000.0001)  ploadbar=  1.01043863461879E+05
 cg2d: Sum(rhs),rhsMax =  -1.24231196436112E+02  1.12246643011302E+00
(PID.TID 0000.0001)  ploadbar=  1.01044344283603E+05
 cg2d: Sum(rhs),rhsMax =  -1.24218285178354E+02  1.12256896982708E+00
(PID.TID 0000.0001)  ploadbar=  1.01044825105326E+05
 cg2d: Sum(rhs),rhsMax =  -1.24210540176332E+02  1.12263215205587E+00
(PID.TID 0000.0001)  ploadbar=  1.01045305927050E+05
 cg2d: Sum(rhs),rhsMax =  -1.24126328629955E+02  1.12338543613631E+00
(PID.TID 0000.0001)  ploadbar=  1.01045786748773E+05
 cg2d: Sum(rhs),rhsMax =  -1.23910792471919E+02  1.12531511283264E+00
(PID.TID 0000.0001)  ploadbar=  1.01046267570497E+05
 cg2d: Sum(rhs),rhsMax =  -1.23582492507341E+02  1.12827293602823E+00
(PID.TID 0000.0001)  ploadbar=  1.01045805334902E+05
 cg2d: Sum(rhs),rhsMax =  -1.23124100471210E+02  1.13242137970906E+00
(PID.TID 0000.0001)  ploadbar=  1.01045343099307E+05
 cg2d: Sum(rhs),rhsMax =  -1.22557574941027E+02  1.13757614554159E+00
(PID.TID 0000.0001)  ploadbar=  1.01044880863712E+05
 cg2d: Sum(rhs),rhsMax =  -1.21964594348966E+02  1.14299712116100E+00
(PID.TID 0000.0001)  ploadbar=  1.01044418628118E+05
 cg2d: Sum(rhs),rhsMax =  -1.21533880817610E+02  1.14690659787794E+00
(PID.TID 0000.0001)  ploadbar=  1.01043956392523E+05
 cg2d: Sum(rhs),rhsMax =  -1.21276871487395E+02  1.14916546084342E+00
(PID.TID 0000.0001)  ploadbar=  1.01043494156928E+05
 cg2d: Sum(rhs),rhsMax =  -1.21284372408531E+02  1.14899750157931E+00
(PID.TID 0000.0001)  ploadbar=  1.01043132874117E+05
 cg2d: Sum(rhs),rhsMax =  -1.21062823402653E+02  1.15105332685669E+00
(PID.TID 0000.0001)  ploadbar=  1.01042771591305E+05
 cg2d: Sum(rhs),rhsMax =  -1.20842388429655E+02  1.15313886960181E+00
(PID.TID 0000.0001)  ploadbar=  1.01042410308493E+05
 cg2d: Sum(rhs),rhsMax =  -1.20729248728671E+02  1.15423464220980E+00
(PID.TID 0000.0001)  ploadbar=  1.01042049025682E+05
 cg2d: Sum(rhs),rhsMax =  -1.20669140552492E+02  1.15485524897464E+00
(PID.TID 0000.0001)  ploadbar=  1.01041687742870E+05
 cg2d: Sum(rhs),rhsMax =  -1.20595045194197E+02  1.15563633039389E+00
(PID.TID 0000.0001)  ploadbar=  1.01041326460059E+05
 cg2d: Sum(rhs),rhsMax =  -1.20380683263984E+02  1.15776432301495E+00
(PID.TID 0000.0001)  ploadbar=  1.01040417344321E+05
 cg2d: Sum(rhs),rhsMax =  -1.19973631495204E+02  1.16175750671392E+00
(PID.TID 0000.0001)  ploadbar=  1.01039508228583E+05
 cg2d: Sum(rhs),rhsMax =  -1.19389182320725E+02  1.16750208325552E+00
(PID.TID 0000.0001)  ploadbar=  1.01038599112845E+05
 cg2d: Sum(rhs),rhsMax =  -1.18611513977474E+02  1.17520863977330E+00
(PID.TID 0000.0001)  ploadbar=  1.01037689997107E+05
 cg2d: Sum(rhs),rhsMax =  -1.17666005322410E+02  1.18469643419392E+00
(PID.TID 0000.0001)  ploadbar=  1.01036780881369E+05
 cg2d: Sum(rhs),rhsMax =  -1.16597232236144E+02  1.19558412038943E+00
(PID.TID 0000.0001)  ploadbar=  1.01035871765631E+05
 cg2d: Sum(rhs),rhsMax =  -1.15332405478270E+02  1.20873067409392E+00
(PID.TID 0000.0001)  ploadbar=  1.01036080816239E+05
 cg2d: Sum(rhs),rhsMax =  -1.14052029567730E+02  1.22232860243932E+00
(PID.TID 0000.0001)  ploadbar=  1.01036289866848E+05
 cg2d: Sum(rhs),rhsMax =  -1.12819347073274E+02  1.23570393983676E+00
(PID.TID 0000.0001)  ploadbar=  1.01036498917456E+05
 cg2d: Sum(rhs),rhsMax =  -1.11703241163255E+02  1.24805708147123E+00
(PID.TID 0000.0001)  ploadbar=  1.01036707968065E+05
 cg2d: Sum(rhs),rhsMax =  -1.10734164363897E+02  1.25896637645283E+00
(PID.TID 0000.0001)  ploadbar=  1.01036917018673E+05
 cg2d: Sum(rhs),rhsMax =  -1.09922762419678E+02  1.26821706713944E+00
(PID.TID 0000.0001)  ploadbar=  1.01037126069282E+05
 cg2d: Sum(rhs),rhsMax =  -1.09278547467813E+02  1.27564828755156E+00
(PID.TID 0000.0001)  ploadbar=  1.01036922753219E+05
 cg2d: Sum(rhs),rhsMax =  -1.08752594985156E+02  1.28175634556644E+00
(PID.TID 0000.0001)  ploadbar=  1.01036719437157E+05
 cg2d: Sum(rhs),rhsMax =  -1.08293626913985E+02  1.28710518734723E+00
(PID.TID 0000.0001)  ploadbar=  1.01036516121094E+05
 cg2d: Sum(rhs),rhsMax =  -1.07902289105704E+02  1.29166418699737E+00
(PID.TID 0000.0001)  ploadbar=  1.01036312805031E+05
 cg2d: Sum(rhs),rhsMax =  -1.07638519028084E+02  1.29469251308651E+00
(PID.TID 0000.0001)  ploadbar=  1.01036109488968E+05
 cg2d: Sum(rhs),rhsMax =  -1.07495067089171E+02  1.29625959068633E+00
(PID.TID 0000.0001)  ploadbar=  1.01035906172906E+05
 cg2d: Sum(rhs),rhsMax =  -1.07253777442119E+02  1.29908577571367E+00
(PID.TID 0000.0001)  ploadbar=  1.01036618913281E+05
 cg2d: Sum(rhs),rhsMax =  -1.06961365255626E+02  1.30259515188689E+00
(PID.TID 0000.0001)  ploadbar=  1.01037331653657E+05
 cg2d: Sum(rhs),rhsMax =  -1.06666054926795E+02  1.30618945804762E+00
(PID.TID 0000.0001)  ploadbar=  1.01038044394032E+05
 cg2d: Sum(rhs),rhsMax =  -1.06394413440000E+02  1.30953896781988E+00
(PID.TID 0000.0001)  ploadbar=  1.01038757134408E+05
 cg2d: Sum(rhs),rhsMax =  -1.06152710550570E+02  1.31256256009336E+00
(PID.TID 0000.0001)  ploadbar=  1.01039469874783E+05
 cg2d: Sum(rhs),rhsMax =  -1.06002885835963E+02  1.31448660564251E+00
(PID.TID 0000.0001)  ploadbar=  1.01040182615159E+05
 cg2d: Sum(rhs),rhsMax =  -1.06004518940587E+02  1.31452780944150E+00
(PID.TID 0000.0001)  ploadbar=  1.01040264423601E+05
 cg2d: Sum(rhs),rhsMax =  -1.06095695341224E+02  1.31344328047432E+00
(PID.TID 0000.0001)  ploadbar=  1.01040346232043E+05
 cg2d: Sum(rhs),rhsMax =  -1.06261466793856E+02  1.31142262789552E+00
(PID.TID 0000.0001)  ploadbar=  1.01040428040485E+05
 cg2d: Sum(rhs),rhsMax =  -1.06481646234235E+02  1.30872063655944E+00
(PID.TID 0000.0001)  ploadbar=  1.01040509848927E+05
 cg2d: Sum(rhs),rhsMax =  -1.06941988627549E+02  1.30307501520743E+00
(PID.TID 0000.0001)  ploadbar=  1.01040591657369E+05
 cg2d: Sum(rhs),rhsMax =  -1.07424573426514E+02  1.29717789743561E+00
(PID.TID 0000.0001)  ploadbar=  1.01040673465811E+05
 cg2d: Sum(rhs),rhsMax =  -1.07906305439026E+02  1.29134102777189E+00
(PID.TID 0000.0001)  ploadbar=  1.01041585981252E+05
 cg2d: Sum(rhs),rhsMax =  -1.08386739017700E+02  1.28555849440001E+00
(PID.TID 0000.0001)  ploadbar=  1.01042498496693E+05
 cg2d: Sum(rhs),rhsMax =  -1.08857190441329E+02  1.27993193185479E+00
(PID.TID 0000.0001)  ploadbar=  1.01043411012134E+05
 cg2d: Sum(rhs),rhsMax =  -1.09313008757214E+02  1.27451522792014E+00
(PID.TID 0000.0001)  ploadbar=  1.01044323527575E+05
 cg2d: Sum(rhs),rhsMax =  -1.09752494039869E+02  1.26931944557273E+00
(PID.TID 0000.0001)  ploadbar=  1.01045236043016E+05
 cg2d: Sum(rhs),rhsMax =  -1.10175910479815E+02  1.26432887164332E+00
(PID.TID 0000.0001)  ploadbar=  1.01046148558457E+05
 cg2d: Sum(rhs),rhsMax =  -1.10564427439039E+02  1.25976069012709E+00
(PID.TID 0000.0001)  ploadbar=  1.01046454642047E+05
 cg2d: Sum(rhs),rhsMax =  -1.10943034462545E+02  1.25531061219484E+00
(PID.TID 0000.0001)  ploadbar=  1.01046760725636E+05
 cg2d: Sum(rhs),rhsMax =  -1.11419133984757E+02  1.24976790934723E+00
(PID.TID 0000.0001)  ploadbar=  1.01047066809225E+05
 cg2d: Sum(rhs),rhsMax =  -1.12019398868852E+02  1.24286032764931E+00
(PID.TID 0000.0001)  ploadbar=  1.01047372892815E+05
 cg2d: Sum(rhs),rhsMax =  -1.12748485704292E+02  1.23457824040184E+00
(PID.TID 0000.0001)  ploadbar=  1.01047678976404E+05
 cg2d: Sum(rhs),rhsMax =  -1.13609010928054E+02  1.22494755161725E+00
(PID.TID 0000.0001)  ploadbar=  1.01047985059993E+05
 cg2d: Sum(rhs),rhsMax =  -1.14436192712185E+02  1.21587729660463E+00
(PID.TID 0000.0001)  ploadbar=  1.01048631539130E+05
 cg2d: Sum(rhs),rhsMax =  -1.15216029980876E+02  1.20747705219740E+00
(PID.TID 0000.0001)  ploadbar=  1.01049278018267E+05
 cg2d: Sum(rhs),rhsMax =  -1.14969782786609E+02  1.20992794877831E+00
(PID.TID 0000.0001)  ploadbar=  1.01049924497404E+05
 cg2d: Sum(rhs),rhsMax =  -1.15487187169077E+02  1.20440651468649E+00
(PID.TID 0000.0001)  ploadbar=  1.01050570976541E+05
 cg2d: Sum(rhs),rhsMax =  -1.16929360915287E+02  1.18948548177589E+00
(PID.TID 0000.0001)  ploadbar=  1.01051217455678E+05
 cg2d: Sum(rhs),rhsMax =  -1.17777695122894E+02  1.18088108249223E+00
(PID.TID 0000.0001)  ploadbar=  1.01051863934815E+05
 cg2d: Sum(rhs),rhsMax =  -1.17880549707951E+02  1.17983751234249E+00
(PID.TID 0000.0001)  ploadbar=  1.01052582578949E+05
 cg2d: Sum(rhs),rhsMax =  -1.17648628752620E+02  1.18215885993033E+00
(PID.TID 0000.0001)  ploadbar=  1.01053301223084E+05
 cg2d: Sum(rhs),rhsMax =  -1.17581895651138E+02  1.18283306465855E+00
(PID.TID 0000.0001)  ploadbar=  1.01054019867219E+05
 cg2d: Sum(rhs),rhsMax =  -1.17678895915751E+02  1.18186619070758E+00
(PID.TID 0000.0001)  ploadbar=  1.01054738511354E+05
 cg2d: Sum(rhs),rhsMax =  -1.17918309678951E+02  1.17947482915299E+00
(PID.TID 0000.0001)  ploadbar=  1.01055457155489E+05
 cg2d: Sum(rhs),rhsMax =  -1.18290535325091E+02  1.17577049634603E+00
(PID.TID 0000.0001)  ploadbar=  1.01056175799623E+05
 cg2d: Sum(rhs),rhsMax =  -1.18782716420426E+02  1.17090998670006E+00
(PID.TID 0000.0001)  ploadbar=  1.01056132929998E+05
 cg2d: Sum(rhs),rhsMax =  -1.19326540817377E+02  1.16558148846489E+00
(PID.TID 0000.0001)  ploadbar=  1.01056090060374E+05
 cg2d: Sum(rhs),rhsMax =  -1.19920662843699E+02  1.15981240182730E+00
(PID.TID 0000.0001)  ploadbar=  1.01056047190749E+05
 cg2d: Sum(rhs),rhsMax =  -1.20551843545268E+02  1.15374531352782E+00
(PID.TID 0000.0001)  ploadbar=  1.01056004321124E+05
 cg2d: Sum(rhs),rhsMax =  -1.20974135626419E+02  1.14972261863338E+00
(PID.TID 0000.0001)  ploadbar=  1.01055961451499E+05
 cg2d: Sum(rhs),rhsMax =  -1.21443340768382E+02  1.14527187062874E+00
(PID.TID 0000.0001)  ploadbar=  1.01055918581874E+05
 cg2d: Sum(rhs),rhsMax =  -1.21935418995089E+02  1.14061404184276E+00
(PID.TID 0000.0001)  ploadbar=  1.01055445224146E+05
 cg2d: Sum(rhs),rhsMax =  -1.22448805059477E+02  1.13575681386769E+00
(PID.TID 0000.0001)  ploadbar=  1.01054971866419E+05
 cg2d: Sum(rhs),rhsMax =  -1.22987141456950E+02  1.13066668292713E+00
(PID.TID 0000.0001)  ploadbar=  1.01054498508691E+05
 cg2d: Sum(rhs),rhsMax =  -1.23567746768114E+02  1.12518686939381E+00
(PID.TID 0000.0001)  ploadbar=  1.01054025150963E+05
 cg2d: Sum(rhs),rhsMax =  -1.24174578082274E+02  1.11947118899266E+00
(PID.TID 0000.0001)  ploadbar=  1.01053551793236E+05
 cg2d: Sum(rhs),rhsMax =  -1.24786534588241E+02  1.11371460918435E+00
(PID.TID 0000.0001)  ploadbar=  1.01053078435508E+05
 cg2d: Sum(rhs),rhsMax =  -1.25493111663959E+02  1.10722477066478E+00
(PID.TID 0000.0001)  ploadbar=  1.01053642942400E+05
 cg2d: Sum(rhs),rhsMax =  -1.26276581817600E+02  1.10016521860665E+00
(PID.TID 0000.0001)  ploadbar=  1.01054207449292E+05
 cg2d: Sum(rhs),rhsMax =  -1.27168729035505E+02  1.09227840130652E+00
(PID.TID 0000.0001)  ploadbar=  1.01054771956185E+05
 cg2d: Sum(rhs),rhsMax =  -1.28190528611978E+02  1.08342281229704E+00
(PID.TID 0000.0001)  ploadbar=  1.01055336463077E+05
 cg2d: Sum(rhs),rhsMax =  -1.29367268966404E+02  1.07343656352190E+00
(PID.TID 0000.0001)  ploadbar=  1.01055900969969E+05
 cg2d: Sum(rhs),rhsMax =  -1.30725482778303E+02  1.06216869892062E+00
(PID.TID 0000.0001)  ploadbar=  1.01056465476861E+05
 cg2d: Sum(rhs),rhsMax =  -1.32273942408571E+02  1.04963623232642E+00
(PID.TID 0000.0001)  ploadbar=  1.01056323533534E+05
 cg2d: Sum(rhs),rhsMax =  -1.33903936921847E+02  1.03676781534657E+00
(PID.TID 0000.0001)  ploadbar=  1.01056181590206E+05
 cg2d: Sum(rhs),rhsMax =  -1.35531247198442E+02  1.02423655392108E+00
(PID.TID 0000.0001)  ploadbar=  1.01056039646879E+05
 cg2d: Sum(rhs),rhsMax =  -1.37097223237318E+02  1.01246139010267E+00
(PID.TID 0000.0001)  ploadbar=  1.01055897703552E+05
 cg2d: Sum(rhs),rhsMax =  -1.38523517551824E+02  1.00196765612565E+00
(PID.TID 0000.0001)  ploadbar=  1.01055755760224E+05
 cg2d: Sum(rhs),rhsMax =  -1.39755912763328E+02  9.93068101895518E-01
(PID.TID 0000.0001)  ploadbar=  1.01055613816897E+05
 cg2d: Sum(rhs),rhsMax =  -1.40842204365735E+02  9.85361120311398E-01
(PID.TID 0000.0001)  ploadbar=  1.01056246452686E+05
 cg2d: Sum(rhs),rhsMax =  -1.41711260610410E+02  9.79279779078866E-01
(PID.TID 0000.0001)  ploadbar=  1.01056879088474E+05
 cg2d: Sum(rhs),rhsMax =  -1.42331543549786E+02  9.74984702608944E-01
(PID.TID 0000.0001)  ploadbar=  1.01057511724263E+05
 cg2d: Sum(rhs),rhsMax =  -1.42762063527255E+02  9.72027952239845E-01
(PID.TID 0000.0001)  ploadbar=  1.01058144360051E+05
 cg2d: Sum(rhs),rhsMax =  -1.43060738528193E+02  9.69989632378612E-01
(PID.TID 0000.0001)  ploadbar=  1.01058776995840E+05
 cg2d: Sum(rhs),rhsMax =  -1.43214926712596E+02  9.68935375627766E-01
(PID.TID 0000.0001)  ploadbar=  1.01059409631628E+05
 cg2d: Sum(rhs),rhsMax =  -1.43355709208152E+02  9.67964712708363E-01
(PID.TID 0000.0001)  ploadbar=  1.01058252609993E+05
 cg2d: Sum(rhs),rhsMax =  -1.42353601321059E+02  9.74738908445458E-01
(PID.TID 0000.0001)  ploadbar=  1.01057095588358E+05
 cg2d: Sum(rhs),rhsMax =  -1.40898550481446E+02  9.84738106108695E-01
(PID.TID 0000.0001)  ploadbar=  1.01055938566723E+05
 cg2d: Sum(rhs),rhsMax =  -1.39571393240141E+02  9.94002046343008E-01
(PID.TID 0000.0001)  ploadbar=  1.01054781545087E+05
 cg2d: Sum(rhs),rhsMax =  -1.38365587049624E+02  1.00253106606978E+00
(PID.TID 0000.0001)  ploadbar=  1.01053624523452E+05
 cg2d: Sum(rhs),rhsMax =  -1.37329206651658E+02  1.00993009848659E+00
(PID.TID 0000.0001)  ploadbar=  1.01052467501817E+05
 cg2d: Sum(rhs),rhsMax =  -1.36434472250434E+02  1.01643192022558E+00
(PID.TID 0000.0001)  ploadbar=  1.01052208954381E+05
 cg2d: Sum(rhs),rhsMax =  -1.35593179131520E+02  1.02264474311006E+00
(PID.TID 0000.0001)  ploadbar=  1.01051950406944E+05
 cg2d: Sum(rhs),rhsMax =  -1.34792005523485E+02  1.02864947257966E+00
(PID.TID 0000.0001)  ploadbar=  1.01051691859508E+05
 cg2d: Sum(rhs),rhsMax =  -1.34037319463217E+02  1.03438667466828E+00
(PID.TID 0000.0001)  ploadbar=  1.01051433312072E+05
 cg2d: Sum(rhs),rhsMax =  -1.33340470798123E+02  1.03975438910575E+00
(PID.TID 0000.0001)  ploadbar=  1.01051174764635E+05
 cg2d: Sum(rhs),rhsMax =  -1.32713130880453E+02  1.04465075239965E+00
(PID.TID 0000.0001)  ploadbar=  1.01050916217199E+05
 cg2d: Sum(rhs),rhsMax =  -1.32006794111517E+02  1.05021756846356E+00
(PID.TID 0000.0001)  ploadbar=  1.01049009407789E+05
 cg2d: Sum(rhs),rhsMax =  -1.31357885641159E+02  1.05536473391081E+00
(PID.TID 0000.0001)  ploadbar=  1.01047102598380E+05
 cg2d: Sum(rhs),rhsMax =  -1.30762994873130E+02  1.06010652574773E+00
(PID.TID 0000.0001)  ploadbar=  1.01045195788970E+05
 cg2d: Sum(rhs),rhsMax =  -1.30212759128026E+02  1.06450920408699E+00
(PID.TID 0000.0001)  ploadbar=  1.01043288979560E+05
 cg2d: Sum(rhs),rhsMax =  -1.29695708320602E+02  1.06866068420405E+00
(PID.TID 0000.0001)  ploadbar=  1.01041382170151E+05
 cg2d: Sum(rhs),rhsMax =  -1.29196397307662E+02  1.07267797126264E+00
(PID.TID 0000.0001)  ploadbar=  1.01039475360741E+05
 cg2d: Sum(rhs),rhsMax =  -1.28671809496613E+02  1.07694951242409E+00
(PID.TID 0000.0001)  ploadbar=  1.01037809244421E+05
 cg2d: Sum(rhs),rhsMax =  -1.28094174548453E+02  1.08171087078254E+00
(PID.TID 0000.0001)  ploadbar=  1.01036143128102E+05
 cg2d: Sum(rhs),rhsMax =  -1.27371214087063E+02  1.08776417553106E+00
(PID.TID 0000.0001)  ploadbar=  1.01034477011782E+05
 cg2d: Sum(rhs),rhsMax =  -1.26422070349198E+02  1.09585260598963E+00
(PID.TID 0000.0001)  ploadbar=  1.01032810895462E+05
 cg2d: Sum(rhs),rhsMax =  -1.26160251596165E+02  1.09805006250311E+00
(PID.TID 0000.0001)  ploadbar=  1.01031144779143E+05
 cg2d: Sum(rhs),rhsMax =  -1.26562034060825E+02  1.09447638782631E+00
(PID.TID 0000.0001)  ploadbar=  1.01029478662823E+05
 cg2d: Sum(rhs),rhsMax =  -1.25699654296933E+02  1.10188459540185E+00
(PID.TID 0000.0001)  ploadbar=  1.01028370399071E+05
 cg2d: Sum(rhs),rhsMax =  -1.24900391578129E+02  1.10881340592737E+00
(PID.TID 0000.0001)  ploadbar=  1.01027262135319E+05
 cg2d: Sum(rhs),rhsMax =  -1.24173318158544E+02  1.11515551627379E+00
(PID.TID 0000.0001)  ploadbar=  1.01026153871567E+05
 cg2d: Sum(rhs),rhsMax =  -1.23512404379849E+02  1.12093980755561E+00
(PID.TID 0000.0001)  ploadbar=  1.01025045607815E+05
 cg2d: Sum(rhs),rhsMax =  -1.22906775199032E+02  1.12624474871379E+00
(PID.TID 0000.0001)  ploadbar=  1.01023937344063E+05
 cg2d: Sum(rhs),rhsMax =  -1.22619454399153E+02  1.12862981814351E+00
(PID.TID 0000.0001)  ploadbar=  1.01022829080311E+05
 cg2d: Sum(rhs),rhsMax =  -1.22565408635300E+02  1.12892116153939E+00
(PID.TID 0000.0001)  ploadbar=  1.01021673389524E+05
 cg2d: Sum(rhs),rhsMax =  -1.22661623505742E+02  1.12785602050367E+00
(PID.TID 0000.0001)  ploadbar=  1.01020517698738E+05
 cg2d: Sum(rhs),rhsMax =  -1.22919609533005E+02  1.12532569525181E+00
(PID.TID 0000.0001)  ploadbar=  1.01019362007952E+05
 cg2d: Sum(rhs),rhsMax =  -1.23327860076875E+02  1.12145376572965E+00
(PID.TID 0000.0001)  ploadbar=  1.01018206317165E+05
 cg2d: Sum(rhs),rhsMax =  -1.23858008607712E+02  1.11652416596602E+00
(PID.TID 0000.0001)  ploadbar=  1.01017050626379E+05
 cg2d: Sum(rhs),rhsMax =  -1.24469403251841E+02  1.11093364760880E+00
(PID.TID 0000.0001)  ploadbar=  1.01015894935593E+05
 cg2d: Sum(rhs),rhsMax =  -1.25127486571916E+02  1.10499639517048E+00
(PID.TID 0000.0001)  ploadbar=  1.01015263631564E+05
 cg2d: Sum(rhs),rhsMax =  -1.25565987511888E+02  1.10103838810674E+00
(PID.TID 0000.0001)  ploadbar=  1.01014632327536E+05
 cg2d: Sum(rhs),rhsMax =  -1.25235876268474E+02  1.10383439121556E+00
(PID.TID 0000.0001)  ploadbar=  1.01014001023507E+05
 cg2d: Sum(rhs),rhsMax =  -1.25003139492950E+02  1.10577726480833E+00
(PID.TID 0000.0001)  ploadbar=  1.01013369719479E+05
 cg2d: Sum(rhs),rhsMax =  -1.24804975739212E+02  1.10742064968870E+00
(PID.TID 0000.0001)  ploadbar=  1.01012738415451E+05
 cg2d: Sum(rhs),rhsMax =  -1.24752874253319E+02  1.10776763861523E+00
(PID.TID 0000.0001)  ploadbar=  1.01012107111422E+05
 cg2d: Sum(rhs),rhsMax =  -1.24665906276841E+02  1.10843456294282E+00
(PID.TID 0000.0001)  ploadbar=  1.01012453831508E+05
 cg2d: Sum(rhs),rhsMax =  -1.24536460490561E+02  1.10948223777084E+00
(PID.TID 0000.0001)  ploadbar=  1.01012800551594E+05
 cg2d: Sum(rhs),rhsMax =  -1.24349689079335E+02  1.11104763077930E+00
(PID.TID 0000.0001)  ploadbar=  1.01013147271680E+05
 cg2d: Sum(rhs),rhsMax =  -1.24114866476335E+02  1.11305388899921E+00
(PID.TID 0000.0001)  ploadbar=  1.01013493991766E+05
 cg2d: Sum(rhs),rhsMax =  -1.23851907227311E+02  1.11532002431479E+00
(PID.TID 0000.0001)  ploadbar=  1.01013840711852E+05
 cg2d: Sum(rhs),rhsMax =  -1.23592791294724E+02  1.11754747605608E+00
(PID.TID 0000.0001)  ploadbar=  1.01014187431937E+05
 cg2d: Sum(rhs),rhsMax =  -1.23520522065233E+02  1.11809840634292E+00
(PID.TID 0000.0001)  ploadbar=  1.01013760089539E+05
 cg2d: Sum(rhs),rhsMax =  -1.23455745410314E+02  1.11858180448131E+00
(PID.TID 0000.0001)  ploadbar=  1.01013332747141E+05
 cg2d: Sum(rhs),rhsMax =  -1.23390216692055E+02  1.11906593692133E+00
(PID.TID 0000.0001)  ploadbar=  1.01012905404742E+05
 cg2d: Sum(rhs),rhsMax =  -1.23350341453730E+02  1.11930668558082E+00
(PID.TID 0000.0001)  ploadbar=  1.01012478062344E+05
 cg2d: Sum(rhs),rhsMax =  -1.23392385063060E+02  1.11878961897058E+00
(PID.TID 0000.0001)  ploadbar=  1.01012050719945E+05
 cg2d: Sum(rhs),rhsMax =  -1.23536258370133E+02  1.11733597884094E+00
(PID.TID 0000.0001)  ploadbar=  1.01011623377547E+05
 cg2d: Sum(rhs),rhsMax =  -1.23717562571912E+02  1.11560152483219E+00
(PID.TID 0000.0001)  ploadbar=  1.01011018917170E+05
 cg2d: Sum(rhs),rhsMax =  -1.23962994650042E+02  1.11332590973355E+00
(PID.TID 0000.0001)  ploadbar=  1.01010414456793E+05
 cg2d: Sum(rhs),rhsMax =  -1.24289339822839E+02  1.11035346635238E+00
(PID.TID 0000.0001)  ploadbar=  1.01009809996416E+05
 cg2d: Sum(rhs),rhsMax =  -1.24494986972436E+02  1.10849076971587E+00
(PID.TID 0000.0001)  ploadbar=  1.01009205536039E+05
 cg2d: Sum(rhs),rhsMax =  -1.24254887317354E+02  1.11062553607292E+00
(PID.TID 0000.0001)  ploadbar=  1.01008601075662E+05
 cg2d: Sum(rhs),rhsMax =  -1.23587432194291E+02  1.11664019899244E+00
(PID.TID 0000.0001)  ploadbar=  1.01007996615285E+05
 cg2d: Sum(rhs),rhsMax =  -1.22848977598528E+02  1.12337151045864E+00
(PID.TID 0000.0001)  ploadbar=  1.01007217889016E+05
 cg2d: Sum(rhs),rhsMax =  -1.22179810835660E+02  1.12953398706645E+00
(PID.TID 0000.0001)  ploadbar=  1.01006439162746E+05
 cg2d: Sum(rhs),rhsMax =  -1.21590077315999E+02  1.13501074879823E+00
(PID.TID 0000.0001)  ploadbar=  1.01005660436477E+05
 cg2d: Sum(rhs),rhsMax =  -1.21076405335763E+02  1.13981169549268E+00
(PID.TID 0000.0001)  ploadbar=  1.01004881710208E+05
 cg2d: Sum(rhs),rhsMax =  -1.20601562675704E+02  1.14426850623635E+00
(PID.TID 0000.0001)  ploadbar=  1.01004102983939E+05
 cg2d: Sum(rhs),rhsMax =  -1.20075910155413E+02  1.14922310685688E+00
(PID.TID 0000.0001)  ploadbar=  1.01003324257669E+05
 cg2d: Sum(rhs),rhsMax =  -1.19601402026927E+02  1.15373677246021E+00
(PID.TID 0000.0001)  ploadbar=  1.01002906949403E+05
 cg2d: Sum(rhs),rhsMax =  -1.19059197001684E+02  1.15894991400761E+00
(PID.TID 0000.0001)  ploadbar=  1.01002489641137E+05
 cg2d: Sum(rhs),rhsMax =  -1.18382662162699E+02  1.16554101974885E+00
(PID.TID 0000.0001)  ploadbar=  1.01002072332871E+05
 cg2d: Sum(rhs),rhsMax =  -1.17558826924663E+02  1.17368594552484E+00
(PID.TID 0000.0001)  ploadbar=  1.01001655024605E+05
 cg2d: Sum(rhs),rhsMax =  -1.16719442481186E+02  1.18210882315308E+00
(PID.TID 0000.0001)  ploadbar=  1.01001237716339E+05
 cg2d: Sum(rhs),rhsMax =  -1.15865432974196E+02  1.19079618539526E+00
(PID.TID 0000.0001)  ploadbar=  1.01000820408073E+05
 cg2d: Sum(rhs),rhsMax =  -1.14943717766921E+02  1.20031408581255E+00
(PID.TID 0000.0001)  ploadbar=  1.01000380218779E+05
 cg2d: Sum(rhs),rhsMax =  -1.14038087641424E+02  1.20979804471720E+00
(PID.TID 0000.0001)  ploadbar=  1.00999940029486E+05
 cg2d: Sum(rhs),rhsMax =  -1.13544997586138E+02  1.21498075328623E+00
(PID.TID 0000.0001)  ploadbar=  1.00999499840192E+05
 cg2d: Sum(rhs),rhsMax =  -1.14550090995262E+02  1.20422428072261E+00
(PID.TID 0000.0001)  ploadbar=  1.00999059650898E+05
 cg2d: Sum(rhs),rhsMax =  -1.14548061566743E+02  1.20412214287743E+00
(PID.TID 0000.0001)  ploadbar=  1.00998619461604E+05
 cg2d: Sum(rhs),rhsMax =  -1.13549535770705E+02  1.21455983590792E+00
(PID.TID 0000.0001)  ploadbar=  1.00998179272311E+05
 cg2d: Sum(rhs),rhsMax =  -1.12600491810581E+02  1.22469848021848E+00
(PID.TID 0000.0001)  ploadbar=  1.00997429241027E+05
 cg2d: Sum(rhs),rhsMax =  -1.11622774231218E+02  1.23535958844897E+00
(PID.TID 0000.0001)  ploadbar=  1.00996679209743E+05
 cg2d: Sum(rhs),rhsMax =  -1.10868038510309E+02  1.24372703351307E+00
(PID.TID 0000.0001)  ploadbar=  1.00995929178459E+05
 cg2d: Sum(rhs),rhsMax =  -1.11115381082144E+02  1.24094063048143E+00
(PID.TID 0000.0001)  ploadbar=  1.00995179147176E+05
 cg2d: Sum(rhs),rhsMax =  -1.11345064804423E+02  1.23838965577622E+00
(PID.TID 0000.0001)  ploadbar=  1.00994429115892E+05
 cg2d: Sum(rhs),rhsMax =  -1.11556688943712E+02  1.23607505213097E+00
(PID.TID 0000.0001)  ploadbar=  1.00993679084608E+05
 cg2d: Sum(rhs),rhsMax =  -1.11770971437246E+02  1.23374387342735E+00
(PID.TID 0000.0001)  ploadbar=  1.00992390280835E+05
 cg2d: Sum(rhs),rhsMax =  -1.12007722481579E+02  1.23116750478805E+00
(PID.TID 0000.0001)  ploadbar=  1.00991101477061E+05
 cg2d: Sum(rhs),rhsMax =  -1.12294975717497E+02  1.22803923334983E+00
(PID.TID 0000.0001)  ploadbar=  1.00989812673288E+05
 cg2d: Sum(rhs),rhsMax =  -1.11814543306867E+02  1.23332521619664E+00
(PID.TID 0000.0001)  ploadbar=  1.00988523869514E+05
 cg2d: Sum(rhs),rhsMax =  -1.11372907402550E+02  1.23821615888384E+00
(PID.TID 0000.0001)  ploadbar=  1.00987235065741E+05
 cg2d: Sum(rhs),rhsMax =  -1.11017859348486E+02  1.24216373219450E+00
(PID.TID 0000.0001)  ploadbar=  1.00985946261968E+05
 cg2d: Sum(rhs),rhsMax =  -1.10700884340590E+02  1.24571323810922E+00
(PID.TID 0000.0001)  ploadbar=  1.00985760661640E+05
 cg2d: Sum(rhs),rhsMax =  -1.10363203231292E+02  1.24951350529743E+00
(PID.TID 0000.0001)  ploadbar=  1.00985575061313E+05
 cg2d: Sum(rhs),rhsMax =  -1.09952433613587E+02  1.25416566798897E+00
(PID.TID 0000.0001)  ploadbar=  1.00985389460985E+05
 cg2d: Sum(rhs),rhsMax =  -1.09455858438785E+02  1.25983646519784E+00
(PID.TID 0000.0001)  ploadbar=  1.00985203860658E+05
 cg2d: Sum(rhs),rhsMax =  -1.08897358693662E+02  1.26626866926282E+00
(PID.TID 0000.0001)  ploadbar=  1.00985018260330E+05
 cg2d: Sum(rhs),rhsMax =  -1.08315026392443E+02  1.27302449231194E+00
(PID.TID 0000.0001)  ploadbar=  1.00984832660003E+05
 cg2d: Sum(rhs),rhsMax =  -1.07719182387735E+02  1.28001320386771E+00
(PID.TID 0000.0001)  ploadbar=  1.00985015638335E+05
 cg2d: Sum(rhs),rhsMax =  -1.07157306104725E+02  1.28665943318209E+00
(PID.TID 0000.0001)  ploadbar=  1.00985198616666E+05
 cg2d: Sum(rhs),rhsMax =  -1.06669587750589E+02  1.29245706222344E+00
(PID.TID 0000.0001)  ploadbar=  1.00985381594998E+05
 cg2d: Sum(rhs),rhsMax =  -1.06278562868197E+02  1.29710083306500E+00
(PID.TID 0000.0001)  ploadbar=  1.00985564573330E+05
 cg2d: Sum(rhs),rhsMax =  -1.05982565906969E+02  1.30058324299068E+00
(PID.TID 0000.0001)  ploadbar=  1.00985747551662E+05
 cg2d: Sum(rhs),rhsMax =  -1.05778904365051E+02  1.30291634232891E+00
(PID.TID 0000.0001)  ploadbar=  1.00985930529994E+05
 cg2d: Sum(rhs),rhsMax =  -1.05589685887577E+02  1.30513901128481E+00
(PID.TID 0000.0001)  ploadbar=  1.00988615966424E+05
 cg2d: Sum(rhs),rhsMax =  -1.05381852319875E+02  1.30764162591101E+00
(PID.TID 0000.0001)  ploadbar=  1.00991301402855E+05
 cg2d: Sum(rhs),rhsMax =  -1.05120582592551E+02  1.31085483720176E+00
(PID.TID 0000.0001)  ploadbar=  1.00993986839285E+05
 cg2d: Sum(rhs),rhsMax =  -1.04783722377691E+02  1.31506442170284E+00
(PID.TID 0000.0001)  ploadbar=  1.00996672275715E+05
 cg2d: Sum(rhs),rhsMax =  -1.04372127797566E+02  1.32026969190729E+00
(PID.TID 0000.0001)  ploadbar=  1.00999357712146E+05
 cg2d: Sum(rhs),rhsMax =  -1.03908151122678E+02  1.32620724860448E+00
(PID.TID 0000.0001)  ploadbar=  1.01002043148576E+05
 cg2d: Sum(rhs),rhsMax =  -1.03419012349068E+02  1.33251147428890E+00
(PID.TID 0000.0001)  ploadbar=  1.01003057525310E+05
 cg2d: Sum(rhs),rhsMax =  -1.03247399005153E+02  1.33473509319887E+00
(PID.TID 0000.0001)  ploadbar=  1.01004071902044E+05
 cg2d: Sum(rhs),rhsMax =  -1.03337369970335E+02  1.33356039218114E+00
(PID.TID 0000.0001)  ploadbar=  1.01005086278777E+05
 cg2d: Sum(rhs),rhsMax =  -1.03461100914863E+02  1.33192981395975E+00
(PID.TID 0000.0001)  ploadbar=  1.01006100655511E+05
 cg2d: Sum(rhs),rhsMax =  -1.03620464609698E+02  1.32982281928877E+00
(PID.TID 0000.0001)  ploadbar=  1.01007115032245E+05
 cg2d: Sum(rhs),rhsMax =  -1.03823548865838E+02  1.32713151403907E+00
(PID.TID 0000.0001)  ploadbar=  1.01008129408979E+05
 cg2d: Sum(rhs),rhsMax =  -1.04079371427925E+02  1.32381144598726E+00
(PID.TID 0000.0001)  ploadbar=  1.01008252946371E+05
 cg2d: Sum(rhs),rhsMax =  -1.04376841073869E+02  1.32000409940651E+00
(PID.TID 0000.0001)  ploadbar=  1.01008376483763E+05
 cg2d: Sum(rhs),rhsMax =  -1.04702437085073E+02  1.31588555145350E+00
(PID.TID 0000.0001)  ploadbar=  1.01008500021154E+05
 cg2d: Sum(rhs),rhsMax =  -1.05041852420174E+02  1.31163961088208E+00
(PID.TID 0000.0001)  ploadbar=  1.01008623558546E+05
 cg2d: Sum(rhs),rhsMax =  -1.05384427035451E+02  1.30739727723856E+00
(PID.TID 0000.0001)  ploadbar=  1.01008747095938E+05
 cg2d: Sum(rhs),rhsMax =  -1.05725858086213E+02  1.30320139105531E+00
(PID.TID 0000.0001)  ploadbar=  1.01008870633330E+05
 cg2d: Sum(rhs),rhsMax =  -1.06014125415791E+02  1.29967966415862E+00
(PID.TID 0000.0001)  ploadbar=  1.01009855426205E+05
 cg2d: Sum(rhs),rhsMax =  -1.06242289835725E+02  1.29689700637044E+00
(PID.TID 0000.0001)  ploadbar=  1.01010840219081E+05
 cg2d: Sum(rhs),rhsMax =  -1.06412408381320E+02  1.29481037184899E+00
(PID.TID 0000.0001)  ploadbar=  1.01011825011956E+05
 cg2d: Sum(rhs),rhsMax =  -1.06533461098893E+02  1.29330028276542E+00
(PID.TID 0000.0001)  ploadbar=  1.01012809804832E+05
 cg2d: Sum(rhs),rhsMax =  -1.06612923375495E+02  1.29226706968543E+00
(PID.TID 0000.0001)  ploadbar=  1.01013794597708E+05
 cg2d: Sum(rhs),rhsMax =  -1.06659066107237E+02  1.29160654652751E+00
(PID.TID 0000.0001)  ploadbar=  1.01014779390583E+05
 cg2d: Sum(rhs),rhsMax =  -1.06748058868237E+02  1.29047513439458E+00
(PID.TID 0000.0001)  ploadbar=  1.01016828618540E+05
 cg2d: Sum(rhs),rhsMax =  -1.06890511008602E+02  1.28872955088321E+00
(PID.TID 0000.0001)  ploadbar=  1.01018877846497E+05
 cg2d: Sum(rhs),rhsMax =  -1.07092728689523E+02  1.28629333770029E+00
(PID.TID 0000.0001)  ploadbar=  1.01020927074454E+05
 cg2d: Sum(rhs),rhsMax =  -1.07354346116104E+02  1.28317561857900E+00
(PID.TID 0000.0001)  ploadbar=  1.01022976302411E+05
 cg2d: Sum(rhs),rhsMax =  -1.07664648509149E+02  1.27950545567915E+00
(PID.TID 0000.0001)  ploadbar=  1.01025025530368E+05
 cg2d: Sum(rhs),rhsMax =  -1.08009627854167E+02  1.27545443169845E+00
(PID.TID 0000.0001)  ploadbar=  1.01027074758324E+05
 cg2d: Sum(rhs),rhsMax =  -1.08378955017409E+02  1.27114368285682E+00
(PID.TID 0000.0001)  ploadbar=  1.01028938588128E+05
 cg2d: Sum(rhs),rhsMax =  -1.08779348823518E+02  1.26649860824739E+00
(PID.TID 0000.0001)  ploadbar=  1.01030802417931E+05
 cg2d: Sum(rhs),rhsMax =  -1.09263210485835E+02  1.26092124277893E+00
(PID.TID 0000.0001)  ploadbar=  1.01032666247735E+05
 cg2d: Sum(rhs),rhsMax =  -1.09821609049683E+02  1.25453883394158E+00
(PID.TID 0000.0001)  ploadbar=  1.01034530077539E+05
 cg2d: Sum(rhs),rhsMax =  -1.10445432858960E+02  1.24747950694087E+00
(PID.TID 0000.0001)  ploadbar=  1.01036393907342E+05
 cg2d: Sum(rhs),rhsMax =  -1.11141146470674E+02  1.23968980935983E+00
(PID.TID 0000.0001)  ploadbar=  1.01038257737146E+05
 cg2d: Sum(rhs),rhsMax =  -1.11894911999241E+02  1.23136748757744E+00
(PID.TID 0000.0001)  ploadbar=  1.01039974092424E+05
 cg2d: Sum(rhs),rhsMax =  -1.12744738411812E+02  1.22210954465913E+00
(PID.TID 0000.0001)  ploadbar=  1.01041690447702E+05
 cg2d: Sum(rhs),rhsMax =  -1.13698212033278E+02  1.21187497664550E+00
(PID.TID 0000.0001)  ploadbar=  1.01043406802980E+05
 cg2d: Sum(rhs),rhsMax =  -1.14769792879857E+02  1.20056065537061E+00
(PID.TID 0000.0001)  ploadbar=  1.01045123158259E+05
 cg2d: Sum(rhs),rhsMax =  -1.15970260081056E+02  1.18811437101942E+00
(PID.TID 0000.0001)  ploadbar=  1.01046839513537E+05
 cg2d: Sum(rhs),rhsMax =  -1.17312894306851E+02  1.17447112607822E+00
(PID.TID 0000.0001)  ploadbar=  1.01048555868815E+05
 cg2d: Sum(rhs),rhsMax =  -1.18770339051681E+02  1.15999884964433E+00
(PID.TID 0000.0001)  ploadbar=  1.01049774991858E+05
 cg2d: Sum(rhs),rhsMax =  -1.20273762508404E+02  1.14541979191605E+00
(PID.TID 0000.0001)  ploadbar=  1.01050994114901E+05
 cg2d: Sum(rhs),rhsMax =  -1.21082860559357E+02  1.13766239338415E+00
(PID.TID 0000.0001)  ploadbar=  1.01052213237944E+05
 cg2d: Sum(rhs),rhsMax =  -1.20502285894248E+02  1.14301292894683E+00
(PID.TID 0000.0001)  ploadbar=  1.01053432360987E+05
 cg2d: Sum(rhs),rhsMax =  -1.19988316544419E+02  1.14774872852728E+00
(PID.TID 0000.0001)  ploadbar=  1.01054651484030E+05
 cg2d: Sum(rhs),rhsMax =  -1.19561314631597E+02  1.15165761637243E+00
(PID.TID 0000.0001)  ploadbar=  1.01055870607073E+05
 cg2d: Sum(rhs),rhsMax =  -1.19192992973166E+02  1.15508516050821E+00
(PID.TID 0000.0001)  ploadbar=  1.01055835254956E+05
 cg2d: Sum(rhs),rhsMax =  -1.18865924028546E+02  1.15817516035549E+00
(PID.TID 0000.0001)  ploadbar=  1.01055799902839E+05
 cg2d: Sum(rhs),rhsMax =  -1.18563605329781E+02  1.16106998848725E+00
(PID.TID 0000.0001)  ploadbar=  1.01055764550721E+05
 cg2d: Sum(rhs),rhsMax =  -1.18296636843611E+02  1.16365795648132E+00
(PID.TID 0000.0001)  ploadbar=  1.01055729198604E+05
 cg2d: Sum(rhs),rhsMax =  -1.18044037480512E+02  1.16613963696034E+00
(PID.TID 0000.0001)  ploadbar=  1.01055693846487E+05
 cg2d: Sum(rhs),rhsMax =  -1.17817432431456E+02  1.16839580031327E+00
(PID.TID 0000.0001)  ploadbar=  1.01055658494370E+05
 cg2d: Sum(rhs),rhsMax =  -1.17334324109249E+02  1.17320621651002E+00
(PID.TID 0000.0001)  ploadbar=  1.01055708470016E+05
 cg2d: Sum(rhs),rhsMax =  -1.16731656096225E+02  1.17924594189689E+00
(PID.TID 0000.0001)  ploadbar=  1.01055758445662E+05
 cg2d: Sum(rhs),rhsMax =  -1.15968276234449E+02  1.18697347209779E+00
(PID.TID 0000.0001)  ploadbar=  1.01055808421308E+05
 cg2d: Sum(rhs),rhsMax =  -1.15365942815477E+02  1.19311632262469E+00
(PID.TID 0000.0001)  ploadbar=  1.01055858396954E+05
 cg2d: Sum(rhs),rhsMax =  -1.14969023874988E+02  1.19715891688772E+00
(PID.TID 0000.0001)  ploadbar=  1.01055908372600E+05
 cg2d: Sum(rhs),rhsMax =  -1.14847739441479E+02  1.19831850502518E+00
(PID.TID 0000.0001)  ploadbar=  1.01055958348246E+05
 cg2d: Sum(rhs),rhsMax =  -1.15100718128215E+02  1.19559887417999E+00
(PID.TID 0000.0001)  ploadbar=  1.01056354032204E+05
 cg2d: Sum(rhs),rhsMax =  -1.15532438731058E+02  1.19105637727987E+00
(PID.TID 0000.0001)  ploadbar=  1.01056749716162E+05
 cg2d: Sum(rhs),rhsMax =  -1.16088413106451E+02  1.18528451924077E+00
(PID.TID 0000.0001)  ploadbar=  1.01057145400121E+05
 cg2d: Sum(rhs),rhsMax =  -1.16737385998677E+02  1.17863161443155E+00
(PID.TID 0000.0001)  ploadbar=  1.01057541084079E+05
 cg2d: Sum(rhs),rhsMax =  -1.17461673560483E+02  1.17129901754259E+00
(PID.TID 0000.0001)  ploadbar=  1.01057936768037E+05
 cg2d: Sum(rhs),rhsMax =  -1.18259713788368E+02  1.16332085436719E+00
(PID.TID 0000.0001)  ploadbar=  1.01058332451996E+05
 cg2d: Sum(rhs),rhsMax =  -1.18988284997141E+02  1.15610379260077E+00
(PID.TID 0000.0001)  ploadbar=  1.01057373887674E+05
 cg2d: Sum(rhs),rhsMax =  -1.19640945323089E+02  1.14967429861088E+00
(PID.TID 0000.0001)  ploadbar=  1.01056415323353E+05
 cg2d: Sum(rhs),rhsMax =  -1.20053470133480E+02  1.14556835535384E+00
(PID.TID 0000.0001)  ploadbar=  1.01055456759031E+05
 cg2d: Sum(rhs),rhsMax =  -1.18422090713163E+02  1.16115654906263E+00
(PID.TID 0000.0001)  ploadbar=  1.01054498194710E+05
 cg2d: Sum(rhs),rhsMax =  -1.16881682386942E+02  1.17622460132552E+00
(PID.TID 0000.0001)  ploadbar=  1.01053539630388E+05
 cg2d: Sum(rhs),rhsMax =  -1.15653758085103E+02  1.18843339761904E+00
(PID.TID 0000.0001)  ploadbar=  1.01052581066067E+05
 cg2d: Sum(rhs),rhsMax =  -1.14513791322502E+02  1.20003865349921E+00
(PID.TID 0000.0001)  ploadbar=  1.01051234065505E+05
 cg2d: Sum(rhs),rhsMax =  -1.13522865377180E+02  1.21033017871175E+00
(PID.TID 0000.0001)  ploadbar=  1.01049887064942E+05
 cg2d: Sum(rhs),rhsMax =  -1.12692525949317E+02  1.21909601292759E+00
(PID.TID 0000.0001)  ploadbar=  1.01048540064380E+05
 cg2d: Sum(rhs),rhsMax =  -1.11999722669553E+02  1.22651313751677E+00
(PID.TID 0000.0001)  ploadbar=  1.01047193063817E+05
 cg2d: Sum(rhs),rhsMax =  -1.11407496185064E+02  1.23293620277195E+00
(PID.TID 0000.0001)  ploadbar=  1.01045846063255E+05
 cg2d: Sum(rhs),rhsMax =  -1.10867494880836E+02  1.23886816762752E+00
(PID.TID 0000.0001)  ploadbar=  1.01044499062692E+05
 cg2d: Sum(rhs),rhsMax =  -1.10129379900408E+02  1.24708555365179E+00
(PID.TID 0000.0001)  ploadbar=  1.01044991615080E+05
 cg2d: Sum(rhs),rhsMax =  -1.09364571300499E+02  1.25570161774665E+00
(PID.TID 0000.0001)  ploadbar=  1.01045484167468E+05
 cg2d: Sum(rhs),rhsMax =  -1.08553789618178E+02  1.26495431527475E+00
(PID.TID 0000.0001)  ploadbar=  1.01045976719856E+05
 cg2d: Sum(rhs),rhsMax =  -1.07699163052301E+02  1.27484352109250E+00
(PID.TID 0000.0001)  ploadbar=  1.01046469272244E+05
 cg2d: Sum(rhs),rhsMax =  -1.06808752024990E+02  1.28529860235759E+00
(PID.TID 0000.0001)  ploadbar=  1.01046961824632E+05
 cg2d: Sum(rhs),rhsMax =  -1.05896813791596E+02  1.29616370436466E+00
(PID.TID 0000.0001)  ploadbar=  1.01047454377020E+05
 cg2d: Sum(rhs),rhsMax =  -1.04907320779340E+02  1.30821484127548E+00
(PID.TID 0000.0001)  ploadbar=  1.01047919888208E+05
 cg2d: Sum(rhs),rhsMax =  -1.03806337855028E+02  1.32194045778377E+00
(PID.TID 0000.0001)  ploadbar=  1.01048385399395E+05
 cg2d: Sum(rhs),rhsMax =  -1.02436672072304E+02  1.33949195066631E+00
(PID.TID 0000.0001)  ploadbar=  1.01048850910583E+05
 cg2d: Sum(rhs),rhsMax =  -1.01108381062670E+02  1.35699088886567E+00
(PID.TID 0000.0001)  ploadbar=  1.01049316421770E+05
 cg2d: Sum(rhs),rhsMax =  -9.98121144528151E+01  1.37454097668295E+00
(PID.TID 0000.0001)  ploadbar=  1.01049781932958E+05
 cg2d: Sum(rhs),rhsMax =  -9.86508949465118E+01  1.39066679903662E+00
(PID.TID 0000.0001)  ploadbar=  1.01050247444146E+05
 cg2d: Sum(rhs),rhsMax =  -9.75940442688210E+01  1.40565460338536E+00
(PID.TID 0000.0001)  ploadbar=  1.01051559366780E+05
 cg2d: Sum(rhs),rhsMax =  -9.65953192323166E+01  1.42008748989212E+00
(PID.TID 0000.0001)  ploadbar=  1.01052871289415E+05
 cg2d: Sum(rhs),rhsMax =  -9.56316904845982E+01  1.43425943474673E+00
(PID.TID 0000.0001)  ploadbar=  1.01054183212050E+05
 cg2d: Sum(rhs),rhsMax =  -9.46954347903130E+01  1.44825934394809E+00
(PID.TID 0000.0001)  ploadbar=  1.01055495134684E+05
 cg2d: Sum(rhs),rhsMax =  -9.37849690413922E+01  1.46209107194730E+00
(PID.TID 0000.0001)  ploadbar=  1.01056807057319E+05
 cg2d: Sum(rhs),rhsMax =  -9.29030969690549E+01  1.47569372335669E+00
(PID.TID 0000.0001)  ploadbar=  1.01058118979953E+05
 cg2d: Sum(rhs),rhsMax =  -9.20994089327554E+01  1.48835098984532E+00
(PID.TID 0000.0001)  ploadbar=  1.01057715538097E+05
 cg2d: Sum(rhs),rhsMax =  -9.13635984112672E+01  1.50015903821649E+00
(PID.TID 0000.0001)  ploadbar=  1.01057312096241E+05
 cg2d: Sum(rhs),rhsMax =  -9.07046700565121E+01  1.51091275565910E+00
(PID.TID 0000.0001)  ploadbar=  1.01056908654385E+05
 cg2d: Sum(rhs),rhsMax =  -9.01006706082755E+01  1.52092964005820E+00
(PID.TID 0000.0001)  ploadbar=  1.01056505212529E+05
 cg2d: Sum(rhs),rhsMax =  -8.92967153699899E+01  1.53454300496863E+00
(PID.TID 0000.0001)  ploadbar=  1.01056101770673E+05
 cg2d: Sum(rhs),rhsMax =  -8.84250233686478E+01  1.54962224590313E+00
(PID.TID 0000.0001)  ploadbar=  1.01055698328817E+05
 cg2d: Sum(rhs),rhsMax =  -8.75522383457141E+01  1.56499011799400E+00
(PID.TID 0000.0001)  ploadbar=  1.01055194103258E+05
 cg2d: Sum(rhs),rhsMax =  -8.67060487464434E+01  1.58013989009079E+00
(PID.TID 0000.0001)  ploadbar=  1.01054689877699E+05
 cg2d: Sum(rhs),rhsMax =  -8.69530271387610E+01  1.57548204299939E+00
(PID.TID 0000.0001)  ploadbar=  1.01054185652140E+05
 cg2d: Sum(rhs),rhsMax =  -8.78964484838320E+01  1.55835849106666E+00
(PID.TID 0000.0001)  ploadbar=  1.01053681426580E+05
 cg2d: Sum(rhs),rhsMax =  -8.89083831343161E+01  1.54036574773619E+00
(PID.TID 0000.0001)  ploadbar=  1.01053177201021E+05
 cg2d: Sum(rhs),rhsMax =  -8.99972215436064E+01  1.52142772835438E+00
(PID.TID 0000.0001)  ploadbar=  1.01052672975462E+05
 cg2d: Sum(rhs),rhsMax =  -9.09995577388174E+01  1.50439437478217E+00
(PID.TID 0000.0001)  ploadbar=  1.01051988607045E+05
 cg2d: Sum(rhs),rhsMax =  -9.19225361285179E+01  1.48903258524516E+00
(PID.TID 0000.0001)  ploadbar=  1.01051304238629E+05
 cg2d: Sum(rhs),rhsMax =  -9.27577448413633E+01  1.47538857324229E+00
(PID.TID 0000.0001)  ploadbar=  1.01050619870213E+05
 cg2d: Sum(rhs),rhsMax =  -9.34604504341679E+01  1.46407797857410E+00
(PID.TID 0000.0001)  ploadbar=  1.01049935501797E+05
 cg2d: Sum(rhs),rhsMax =  -9.40253896590363E+01  1.45507934708476E+00
(PID.TID 0000.0001)  ploadbar=  1.01049251133381E+05
 cg2d: Sum(rhs),rhsMax =  -9.44426100074599E+01  1.44844971586970E+00
(PID.TID 0000.0001)  ploadbar=  1.01048566764964E+05
 cg2d: Sum(rhs),rhsMax =  -9.36570604333870E+01  1.46040296031336E+00
(PID.TID 0000.0001)  ploadbar=  1.01047491706778E+05
 cg2d: Sum(rhs),rhsMax =  -9.28451706933152E+01  1.47297105900654E+00
(PID.TID 0000.0001)  ploadbar=  1.01046416648591E+05
 cg2d: Sum(rhs),rhsMax =  -9.20491393842808E+01  1.48549132085112E+00
(PID.TID 0000.0001)  ploadbar=  1.01045341590405E+05
 cg2d: Sum(rhs),rhsMax =  -9.13123481221313E+01  1.49723954181601E+00
(PID.TID 0000.0001)  ploadbar=  1.01044266532219E+05
 cg2d: Sum(rhs),rhsMax =  -9.12780789684592E+01  1.49754280636151E+00
(PID.TID 0000.0001)  ploadbar=  1.01043191474032E+05
 cg2d: Sum(rhs),rhsMax =  -9.15758689910083E+01  1.49239280911634E+00
(PID.TID 0000.0001)  ploadbar=  1.01042116415846E+05
 cg2d: Sum(rhs),rhsMax =  -9.19783049199706E+01  1.48565334801943E+00
(PID.TID 0000.0001)  ploadbar=  1.01040142921763E+05
 cg2d: Sum(rhs),rhsMax =  -9.24988296172712E+01  1.47713818242444E+00
(PID.TID 0000.0001)  ploadbar=  1.01038169427681E+05
 cg2d: Sum(rhs),rhsMax =  -9.31249846894185E+01  1.46709149302056E+00
(PID.TID 0000.0001)  ploadbar=  1.01036195933599E+05
 cg2d: Sum(rhs),rhsMax =  -9.38247877404006E+01  1.45606903730572E+00
(PID.TID 0000.0001)  ploadbar=  1.01034222439516E+05
 cg2d: Sum(rhs),rhsMax =  -9.45758303158586E+01  1.44446055059808E+00
(PID.TID 0000.0001)  ploadbar=  1.01032248945434E+05
 cg2d: Sum(rhs),rhsMax =  -9.53703787526731E+01  1.43241398838506E+00
(PID.TID 0000.0001)  ploadbar=  1.01030275451352E+05
 cg2d: Sum(rhs),rhsMax =  -9.62736643819320E+01  1.41895072104173E+00
(PID.TID 0000.0001)  ploadbar=  1.01028395968358E+05
 cg2d: Sum(rhs),rhsMax =  -9.73344637020855E+01  1.40344451835242E+00
(PID.TID 0000.0001)  ploadbar=  1.01026516485364E+05
 cg2d: Sum(rhs),rhsMax =  -9.85785087646937E+01  1.38567268176172E+00
(PID.TID 0000.0001)  ploadbar=  1.01024637002370E+05
 cg2d: Sum(rhs),rhsMax =  -1.00017473711513E+02  1.36565794384553E+00
(PID.TID 0000.0001)  ploadbar=  1.01022757519376E+05
 cg2d: Sum(rhs),rhsMax =  -1.01672014822068E+02  1.34333914682268E+00
(PID.TID 0000.0001)  ploadbar=  1.01020878036383E+05
 cg2d: Sum(rhs),rhsMax =  -1.03529628668252E+02  1.31911844752277E+00
(PID.TID 0000.0001)  ploadbar=  1.01018998553389E+05
 cg2d: Sum(rhs),rhsMax =  -1.05547867688644E+02  1.29380261120906E+00
(PID.TID 0000.0001)  ploadbar=  1.01017607703917E+05
 cg2d: Sum(rhs),rhsMax =  -1.07664858054175E+02  1.26828873340684E+00
(PID.TID 0000.0001)  ploadbar=  1.01016216854445E+05
 cg2d: Sum(rhs),rhsMax =  -1.09856968707622E+02  1.24292783108464E+00
(PID.TID 0000.0001)  ploadbar=  1.01014826004973E+05
 cg2d: Sum(rhs),rhsMax =  -1.10461258363991E+02  1.23609397897594E+00
(PID.TID 0000.0001)  ploadbar=  1.01013435155501E+05
 cg2d: Sum(rhs),rhsMax =  -1.10614043131429E+02  1.23436986291669E+00
(PID.TID 0000.0001)  ploadbar=  1.01012044306029E+05
 cg2d: Sum(rhs),rhsMax =  -1.10827011748295E+02  1.23198769431086E+00
(PID.TID 0000.0001)  ploadbar=  1.01010653456557E+05
 cg2d: Sum(rhs),rhsMax =  -1.10996016296013E+02  1.23008739658259E+00
(PID.TID 0000.0001)  ploadbar=  1.01008133506582E+05
 cg2d: Sum(rhs),rhsMax =  -1.11110011664312E+02  1.22877371128829E+00
(PID.TID 0000.0001)  ploadbar=  1.01005613556608E+05
 cg2d: Sum(rhs),rhsMax =  -1.11150911495282E+02  1.22823747656554E+00
(PID.TID 0000.0001)  ploadbar=  1.01003093606634E+05
 cg2d: Sum(rhs),rhsMax =  -1.11118540689218E+02  1.22847657497002E+00
(PID.TID 0000.0001)  ploadbar=  1.01000573656659E+05
 cg2d: Sum(rhs),rhsMax =  -1.12489075400358E+02  1.21335671857056E+00
(PID.TID 0000.0001)  ploadbar=  1.00998053706685E+05
 cg2d: Sum(rhs),rhsMax =  -1.14608097206105E+02  1.19073848441670E+00
(PID.TID 0000.0001)  ploadbar=  1.00995533756711E+05
 cg2d: Sum(rhs),rhsMax =  -1.14072623994031E+02  1.19621137881529E+00
(PID.TID 0000.0001)  ploadbar=  1.00993142634120E+05
 cg2d: Sum(rhs),rhsMax =  -1.12916769490190E+02  1.20839258196220E+00
(PID.TID 0000.0001)  ploadbar=  1.00990751511530E+05
 cg2d: Sum(rhs),rhsMax =  -1.11533768769680E+02  1.22335399293550E+00
(PID.TID 0000.0001)  ploadbar=  1.00988360388939E+05
 cg2d: Sum(rhs),rhsMax =  -1.10000693843879E+02  1.24041944264282E+00
(PID.TID 0000.0001)  ploadbar=  1.00985969266348E+05
 cg2d: Sum(rhs),rhsMax =  -1.08292529932038E+02  1.26004191023123E+00
(PID.TID 0000.0001)  ploadbar=  1.00983578143758E+05
 cg2d: Sum(rhs),rhsMax =  -1.06393931681995E+02  1.28262557830983E+00
(PID.TID 0000.0001)  ploadbar=  1.00981187021167E+05
 cg2d: Sum(rhs),rhsMax =  -1.04779260364589E+02  1.30246662521962E+00
(PID.TID 0000.0001)  ploadbar=  1.00979251729067E+05
 cg2d: Sum(rhs),rhsMax =  -1.03433553071791E+02  1.31945259775537E+00
(PID.TID 0000.0001)      cg2d_init_res =   3.02921186900310E-01
(PID.TID 0000.0001)      cg2d_iters(min,last) =      -1     135
(PID.TID 0000.0001)      cg2d_last_res =   9.97028881400532E-08
(PID.TID 0000.0001) // =======================================================
(PID.TID 0000.0001) // Begin MONITOR dynamic field statistics
(PID.TID 0000.0001) // =======================================================
(PID.TID 0000.0001) %MON time_tsnumber                =                  8760
(PID.TID 0000.0001) %MON time_secondsf                =   3.1536000000000E+07
(PID.TID 0000.0001) %MON dynstat_eta_max              =   1.0485472623249E+00
(PID.TID 0000.0001) %MON dynstat_eta_min              =  -4.6385796817375E+00
(PID.TID 0000.0001) %MON dynstat_eta_mean             =   6.9074581213142E-02
(PID.TID 0000.0001) %MON dynstat_eta_sd               =   6.8794127434918E-01
(PID.TID 0000.0001) %MON dynstat_eta_del2             =   1.9663183624503E-04
(PID.TID 0000.0001) %MON dynstat_uvel_max             =   1.0552432762922E+00
(PID.TID 0000.0001) %MON dynstat_uvel_min             =  -8.1378679125105E-01
(PID.TID 0000.0001) %MON dynstat_uvel_mean            =   1.1483192007685E-03
(PID.TID 0000.0001) %MON dynstat_uvel_sd              =   2.0604217382034E-02
(PID.TID 0000.0001) %MON dynstat_uvel_del2            =   9.1851365453894E-06
(PID.TID 0000.0001) %MON dynstat_vvel_max             =   1.0566586939518E+00
(PID.TID 0000.0001) %MON dynstat_vvel_min             =  -9.6824824360889E-01
(PID.TID 0000.0001) %MON dynstat_vvel_mean            =   1.2314324730733E-03
(PID.TID 0000.0001) %MON dynstat_vvel_sd              =   2.2220038255861E-02
(PID.TID 0000.0001) %MON dynstat_vvel_del2            =   9.7592753759908E-06
(PID.TID 0000.0001) %MON dynstat_wvel_max             =   5.0051154802152E-04
(PID.TID 0000.0001) %MON dynstat_wvel_min             =  -9.6433216730018E-04
(PID.TID 0000.0001) %MON dynstat_wvel_mean            =  -1.3309524576822E-09
(PID.TID 0000.0001) %MON dynstat_wvel_sd              =   2.1868772457262E-05
(PID.TID 0000.0001) %MON dynstat_wvel_del2            =   1.6364623708193E-08
(PID.TID 0000.0001) %MON dynstat_theta_max            =   3.1648223936712E+01
(PID.TID 0000.0001) %MON dynstat_theta_min            =  -1.9850527175544E+00
(PID.TID 0000.0001) %MON dynstat_theta_mean           =   3.5809891828549E+00
(PID.TID 0000.0001) %MON dynstat_theta_sd             =   4.4209471367228E+00
(PID.TID 0000.0001) %MON dynstat_theta_del2           =   9.1123895500361E-05
(PID.TID 0000.0001) %MON dynstat_salt_max             =   4.0642654585313E+01
(PID.TID 0000.0001) %MON dynstat_salt_min             =   2.3276685678990E+01
(PID.TID 0000.0001) %MON dynstat_salt_mean            =   3.4727009669844E+01
(PID.TID 0000.0001) %MON dynstat_salt_sd              =   3.7817885377197E-01
(PID.TID 0000.0001) %MON dynstat_salt_del2            =   2.0316592760583E-05
(PID.TID 0000.0001) %MON dynstat_sst_max              =   3.1648209795521E+01
(PID.TID 0000.0001) %MON dynstat_sst_min              =  -1.9613961691116E+00
(PID.TID 0000.0001) %MON dynstat_sst_mean             =   1.8093208978327E+01
(PID.TID 0000.0001) %MON dynstat_sst_sd               =   1.0004260811220E+01
(PID.TID 0000.0001) %MON dynstat_sst_del2             =   6.7421692473470E-04
(PID.TID 0000.0001) %MON dynstat_sss_max              =   4.0170586246847E+01
(PID.TID 0000.0001) %MON dynstat_sss_min              =   2.3276685678990E+01
(PID.TID 0000.0001) %MON dynstat_sss_mean             =   3.4737989549953E+01
(PID.TID 0000.0001) %MON dynstat_sss_sd               =   1.2253860185630E+00
(PID.TID 0000.0001) %MON dynstat_sss_del2             =   2.9903379255002E-04
(PID.TID 0000.0001) %MON forcing_qnet_max             =   8.8702528372447E+02
(PID.TID 0000.0001) %MON forcing_qnet_min             =  -6.3074220811334E+02
(PID.TID 0000.0001) %MON forcing_qnet_mean            =   7.1592522587832E+00
(PID.TID 0000.0001) %MON forcing_qnet_sd              =   2.1949635569756E+02
(PID.TID 0000.0001) %MON forcing_qnet_del2            =   1.1601131250728E-01
(PID.TID 0000.0001) %MON forcing_qsw_max              =   7.8742084047874E+01
(PID.TID 0000.0001) %MON forcing_qsw_min              =  -7.3380015597812E+02
(PID.TID 0000.0001) %MON forcing_qsw_mean             =  -1.6365173666533E+02
(PID.TID 0000.0001) %MON forcing_qsw_sd               =   1.8407734394057E+02
(PID.TID 0000.0001) %MON forcing_qsw_del2             =   6.8225763233648E-02
(PID.TID 0000.0001) %MON forcing_empmr_max            =   1.4344806400693E-03
(PID.TID 0000.0001) %MON forcing_empmr_min            =  -3.8356451375579E-03
(PID.TID 0000.0001) %MON forcing_empmr_mean           =  -6.0481184398552E-07
(PID.TID 0000.0001) %MON forcing_empmr_sd             =   1.0718203006687E-04
(PID.TID 0000.0001) %MON forcing_empmr_del2           =   3.3449156170491E-07
(PID.TID 0000.0001) %MON forcing_fu_max               =   1.0807091097037E+00
(PID.TID 0000.0001) %MON forcing_fu_min               =  -1.4715337586351E+00
(PID.TID 0000.0001) %MON forcing_fu_mean              =   1.1680507732586E-02
(PID.TID 0000.0001) %MON forcing_fu_sd                =   1.2497512535121E-01
(PID.TID 0000.0001) %MON forcing_fu_del2              =   8.3576796636165E-05
(PID.TID 0000.0001) %MON forcing_fv_max               =   1.6988878482518E+00
(PID.TID 0000.0001) %MON forcing_fv_min               =  -1.4101916424098E+00
(PID.TID 0000.0001) %MON forcing_fv_mean              =  -3.0673839996908E-03
(PID.TID 0000.0001) %MON forcing_fv_sd                =   1.1862989120824E-01
(PID.TID 0000.0001) %MON forcing_fv_del2              =   9.2525909855342E-05
(PID.TID 0000.0001) %MON trAdv_CFL_u_max              =   7.0485514049567E-02
(PID.TID 0000.0001) %MON trAdv_CFL_v_max              =   7.0394766111417E-02
(PID.TID 0000.0001) %MON trAdv_CFL_w_max              =   2.3649402148629E-01
(PID.TID 0000.0001) %MON advcfl_uvel_max              =   7.6681837754101E-02
(PID.TID 0000.0001) %MON advcfl_vvel_max              =   6.2715118859732E-02
(PID.TID 0000.0001) %MON advcfl_wvel_max              =   2.4004328121254E-01
(PID.TID 0000.0001) %MON advcfl_W_hf_max              =   2.4076961200087E-01
(PID.TID 0000.0001) %MON pe_b_mean                    =   2.2588823565837E-03
(PID.TID 0000.0001) %MON ke_max                       =   5.6265998888553E-01
(PID.TID 0000.0001) %MON ke_mean                      =   4.4415160266304E-04
(PID.TID 0000.0001) %MON ke_vol                       =   1.3350226058393E+18
(PID.TID 0000.0001) %MON vort_r_min                   =  -3.0940957135582E-05
(PID.TID 0000.0001) %MON vort_r_max                   =   1.7007459495953E-05
(PID.TID 0000.0001) %MON vort_a_mean                  =  -1.9727864647440E-05
(PID.TID 0000.0001) %MON vort_a_sd                    =   7.4543097227232E-05
(PID.TID 0000.0001) %MON vort_p_mean                  =  -2.1760110895631E-05
(PID.TID 0000.0001) %MON vort_p_sd                    =   9.7245480127061E-05
(PID.TID 0000.0001) %MON surfExpan_theta_mean         =  -3.0859055092274E-08
(PID.TID 0000.0001) %MON surfExpan_salt_mean          =   8.1525646027855E-09
(PID.TID 0000.0001) // =======================================================
(PID.TID 0000.0001) // End MONITOR dynamic field statistics
(PID.TID 0000.0001) // =======================================================
(PID.TID 0000.0001)  ploadbar=  1.00977316436967E+05
(PID.TID 0000.0001) %SBO sbo_mass                     =   1.3737591066471E+21
(PID.TID 0000.0001) %SBO sbo_mass_fw                  =   4.6291276594838E+16
(PID.TID 0000.0001) %SBO sbo_zoamc                    =   1.2299977735371E+25
(PID.TID 0000.0001) %SBO sbo_zoamp                    =   2.9276636751225E+30
(PID.TID 0000.0001) // =======================================================
(PID.TID 0000.0001) // Begin MONITOR SEAICE statistics
(PID.TID 0000.0001) // =======================================================
(PID.TID 0000.0001) %MON seaice_tsnumber              =                  8760
(PID.TID 0000.0001) %MON seaice_time_sec              =   3.1536000000000E+07
(PID.TID 0000.0001) %MON seaice_uice_max              =   4.0000000000000E-01
(PID.TID 0000.0001) %MON seaice_uice_min              =  -4.0000000000000E-01
(PID.TID 0000.0001) %MON seaice_uice_mean             =  -5.5332971436115E-03
(PID.TID 0000.0001) %MON seaice_uice_sd               =   1.8285970977929E-01
(PID.TID 0000.0001) %MON seaice_uice_del2             =   1.5615786077814E-04
(PID.TID 0000.0001) %MON seaice_vice_max              =   4.0000000000000E-01
(PID.TID 0000.0001) %MON seaice_vice_min              =  -4.0000000000000E-01
(PID.TID 0000.0001) %MON seaice_vice_mean             =  -8.7693828051405E-03
(PID.TID 0000.0001) %MON seaice_vice_sd               =   1.7876844982260E-01
(PID.TID 0000.0001) %MON seaice_vice_del2             =   1.6410427636804E-04
(PID.TID 0000.0001) %MON seaice_area_max              =   9.7000000000000E-01
(PID.TID 0000.0001) %MON seaice_area_min              =   0.0000000000000E+00
(PID.TID 0000.0001) %MON seaice_area_mean             =   5.3003618759239E-02
(PID.TID 0000.0001) %MON seaice_area_sd               =   2.0575696049070E-01
(PID.TID 0000.0001) %MON seaice_area_del2             =   2.2275947886095E-04
(PID.TID 0000.0001) %MON seaice_heff_max              =   4.8660535950878E+00
(PID.TID 0000.0001) %MON seaice_heff_min              =   0.0000000000000E+00
(PID.TID 0000.0001) %MON seaice_heff_mean             =   6.1088801207416E-02
(PID.TID 0000.0001) %MON seaice_heff_sd               =   2.9467858452738E-01
(PID.TID 0000.0001) %MON seaice_heff_del2             =   2.0125714796717E-04
(PID.TID 0000.0001) %MON seaice_hsnow_max             =   9.9850486936218E-01
(PID.TID 0000.0001) %MON seaice_hsnow_min             =  -6.5821289235208E-05
(PID.TID 0000.0001) %MON seaice_hsnow_mean            =   7.9747952525616E-03
(PID.TID 0000.0001) %MON seaice_hsnow_sd              =   4.0577999414621E-02
(PID.TID 0000.0001) %MON seaice_hsnow_del2            =   4.8979181362840E-05
(PID.TID 0000.0001) // =======================================================
(PID.TID 0000.0001) // End MONITOR SEAICE statistics
(PID.TID 0000.0001) // =======================================================
(PID.TID 0000.0001) // =======================================================
(PID.TID 0000.0001) // Begin MONITOR EXF statistics
(PID.TID 0000.0001) // =======================================================
(PID.TID 0000.0001) %MON exf_tsnumber                 =                  8760
(PID.TID 0000.0001) %MON exf_time_sec                 =   3.1536000000000E+07
(PID.TID 0000.0001) %MON exf_ustress_max              =   1.0156559348106E+00
(PID.TID 0000.0001) %MON exf_ustress_min              =  -2.2625053875783E+00
(PID.TID 0000.0001) %MON exf_ustress_mean             =   1.1084586131823E-02
(PID.TID 0000.0001) %MON exf_ustress_sd               =   1.2454182166453E-01
(PID.TID 0000.0001) %MON exf_ustress_del2             =   9.3896256013643E-05
(PID.TID 0000.0001) %MON exf_vstress_max              =   1.7142878514972E+00
(PID.TID 0000.0001) %MON exf_vstress_min              =  -1.5219366022962E+00
(PID.TID 0000.0001) %MON exf_vstress_mean             =  -2.2483364530680E-03
(PID.TID 0000.0001) %MON exf_vstress_sd               =   1.2072565212027E-01
(PID.TID 0000.0001) %MON exf_vstress_del2             =   1.0038907146811E-04
(PID.TID 0000.0001) %MON exf_hflux_max                =   1.4681094267354E+03
(PID.TID 0000.0001) %MON exf_hflux_min                =  -5.8336016569692E+02
(PID.TID 0000.0001) %MON exf_hflux_mean               =   1.9182038948664E+01
(PID.TID 0000.0001) %MON exf_hflux_sd                 =   2.4056482917608E+02
(PID.TID 0000.0001) %MON exf_hflux_del2               =   4.2010865811844E-01
(PID.TID 0000.0001) %MON exf_sflux_max                =   1.7687114217235E-07
(PID.TID 0000.0001) %MON exf_sflux_min                =  -3.7199267957737E-06
(PID.TID 0000.0001) %MON exf_sflux_mean               =   2.4665960861787E-09
(PID.TID 0000.0001) %MON exf_sflux_sd                 =   9.3037228453943E-08
(PID.TID 0000.0001) %MON exf_sflux_del2               =   2.6116439463876E-10
(PID.TID 0000.0001) %MON exf_wspeed_max               =   2.3689439773560E+01
(PID.TID 0000.0001) %MON exf_wspeed_min               =   2.2191631793976E-01
(PID.TID 0000.0001) %MON exf_wspeed_mean              =   7.2969761374129E+00
(PID.TID 0000.0001) %MON exf_wspeed_sd                =   3.2211398786502E+00
(PID.TID 0000.0001) %MON exf_wspeed_del2              =   1.2322638632299E-02
(PID.TID 0000.0001) %MON exf_atemp_max                =   3.0559659519196E+02
(PID.TID 0000.0001) %MON exf_atemp_min                =   2.2842357101440E+02
(PID.TID 0000.0001) %MON exf_atemp_mean               =   2.8912523457904E+02
(PID.TID 0000.0001) %MON exf_atemp_sd                 =   1.2070215130679E+01
(PID.TID 0000.0001) %MON exf_atemp_del2               =   2.5483446791256E-02
(PID.TID 0000.0001) %MON exf_aqh_max                  =   2.2679240442812E-02
(PID.TID 0000.0001) %MON exf_aqh_min                  =  -5.4024791097618E-05
(PID.TID 0000.0001) %MON exf_aqh_mean                 =   1.0717102069315E-02
(PID.TID 0000.0001) %MON exf_aqh_sd                   =   5.5889041524629E-03
(PID.TID 0000.0001) %MON exf_aqh_del2                 =   1.4504397147781E-05
(PID.TID 0000.0001) %MON exf_lwflux_max               =   2.1272629865604E+02
(PID.TID 0000.0001) %MON exf_lwflux_min               =  -2.2739882778168E+01
(PID.TID 0000.0001) %MON exf_lwflux_mean              =   4.8048555689644E+01
(PID.TID 0000.0001) %MON exf_lwflux_sd                =   2.7380918991033E+01
(PID.TID 0000.0001) %MON exf_lwflux_del2              =   9.4633518014015E-02
(PID.TID 0000.0001) %MON exf_evap_max                 =   1.8846571991911E-07
(PID.TID 0000.0001) %MON exf_evap_min                 =  -2.6871316567958E-08
(PID.TID 0000.0001) %MON exf_evap_mean                =   4.5256367803096E-08
(PID.TID 0000.0001) %MON exf_evap_sd                  =   2.7955279944683E-08
(PID.TID 0000.0001) %MON exf_evap_del2                =   7.2688425018811E-11
(PID.TID 0000.0001) %MON exf_precip_max               =   3.7563148680420E-06
(PID.TID 0000.0001) %MON exf_precip_min               =  -2.3496198764406E-08
(PID.TID 0000.0001) %MON exf_precip_mean              =   3.9731962243530E-08
(PID.TID 0000.0001) %MON exf_precip_sd                =   8.6527870392759E-08
(PID.TID 0000.0001) %MON exf_precip_del2              =   2.6085918906088E-10
(PID.TID 0000.0001) %MON exf_swflux_max               =   1.0514332504272E+02
(PID.TID 0000.0001) %MON exf_swflux_min               =  -7.0088182167762E+02
(PID.TID 0000.0001) %MON exf_swflux_mean              =  -1.6984484222692E+02
(PID.TID 0000.0001) %MON exf_swflux_sd                =   1.7832369862010E+02
(PID.TID 0000.0001) %MON exf_swflux_del2              =   3.3519369787540E-01
(PID.TID 0000.0001) %MON exf_swdown_max               =   7.5611276245117E+02
(PID.TID 0000.0001) %MON exf_swdown_min               =  -1.5020475006104E+02
(PID.TID 0000.0001) %MON exf_swdown_mean              =   1.8390235358822E+02
(PID.TID 0000.0001) %MON exf_swdown_sd                =   1.9296332695655E+02
(PID.TID 0000.0001) %MON exf_swdown_del2              =   3.6372805945851E-01
(PID.TID 0000.0001) %MON exf_lwdown_max               =   4.6807113647461E+02
(PID.TID 0000.0001) %MON exf_lwdown_min               =   8.7367366790771E+01
(PID.TID 0000.0001) %MON exf_lwdown_mean              =   3.6125567718052E+02
(PID.TID 0000.0001) %MON exf_lwdown_sd                =   6.3987977100593E+01
(PID.TID 0000.0001) %MON exf_lwdown_del2              =   4.8454194363069E-01
(PID.TID 0000.0001) %MON exf_apressure_max            =   1.0322605468750E+05
(PID.TID 0000.0001) %MON exf_apressure_min            =   9.6221128906250E+04
(PID.TID 0000.0001) %MON exf_apressure_mean           =   1.0097538114487E+05
(PID.TID 0000.0001) %MON exf_apressure_sd             =   1.0500788948867E+03
(PID.TID 0000.0001) %MON exf_apressure_del2           =   1.4473912521734E+02
(PID.TID 0000.0001) %MON exf_runoff_max               =   1.9834598509577E-06
(PID.TID 0000.0001) %MON exf_runoff_min               =   0.0000000000000E+00
(PID.TID 0000.0001) %MON exf_runoff_mean              =   3.0578094733873E-09
(PID.TID 0000.0001) %MON exf_runoff_sd                =   2.3469962782488E-08
(PID.TID 0000.0001) %MON exf_runoff_del2              =   1.7951721949455E-11
(PID.TID 0000.0001) // =======================================================
(PID.TID 0000.0001) // End MONITOR EXF statistics
(PID.TID 0000.0001) // =======================================================
 cg2d: Sum(rhs),rhsMax =  -1.02218746773937E+02  1.33513676745042E+00
(PID.TID 0000.0001)  ploadbar=  1.00975381144867E+05
 cg2d: Sum(rhs),rhsMax =  -1.01232457630194E+02  1.34811187905815E+00
(PID.TID 0000.0001)  ploadbar=  1.00973445852767E+05
 cg2d: Sum(rhs),rhsMax =  -1.00485854537350E+02  1.35805945309352E+00
(PID.TID 0000.0001)  ploadbar=  1.00971510560667E+05
 cg2d: Sum(rhs),rhsMax =  -1.00001613360968E+02  1.36452561896776E+00
(PID.TID 0000.0001)  ploadbar=  1.00969575268567E+05
 cg2d: Sum(rhs),rhsMax =  -9.97857074080004E+01  1.36738087683633E+00
(PID.TID 0000.0001)  ploadbar=  1.00967518689577E+05
 cg2d: Sum(rhs),rhsMax =  -9.97998905307770E+01  1.36709505824107E+00
(PID.TID 0000.0001)  ploadbar=  1.00965462110587E+05
 cg2d: Sum(rhs),rhsMax =  -9.99123806596643E+01  1.36547148203754E+00
(PID.TID 0000.0001)  ploadbar=  1.00963405531596E+05
 cg2d: Sum(rhs),rhsMax =  -1.00138263394874E+02  1.36231755963608E+00
(PID.TID 0000.0001)  ploadbar=  1.00961348952606E+05
 cg2d: Sum(rhs),rhsMax =  -1.00465174487117E+02  1.35782429362347E+00
(PID.TID 0000.0001)  ploadbar=  1.00959292373616E+05
 cg2d: Sum(rhs),rhsMax =  -1.00881351673468E+02  1.35216637745861E+00
(PID.TID 0000.0001)  ploadbar=  1.00957235794625E+05
 cg2d: Sum(rhs),rhsMax =  -1.01231745055525E+02  1.34742586604561E+00
(PID.TID 0000.0001)  ploadbar=  1.00955521529846E+05
 cg2d: Sum(rhs),rhsMax =  -1.01603236742259E+02  1.34242353364492E+00
(PID.TID 0000.0001)  ploadbar=  1.00953807265067E+05
(PID.TID 0000.0001) %CHECKPOINT      8772 0000008772
 cg2d: Sum(rhs),rhsMax =  -1.02033456238788E+02  1.33666378195174E+00
(PID.TID 0000.0001)  ploadbar=  1.00952093000287E+05
 cg2d: Sum(rhs),rhsMax =  -1.02475307452840E+02  1.33077456895006E+00
(PID.TID 0000.0001)  ploadbar=  1.00950378735508E+05
 cg2d: Sum(rhs),rhsMax =  -1.02943015074918E+02  1.32457530032860E+00
(PID.TID 0000.0001)  ploadbar=  1.00948664470728E+05
 cg2d: Sum(rhs),rhsMax =  -1.03431250608089E+02  1.31814208811085E+00
(PID.TID 0000.0001)  ploadbar=  1.00946950205949E+05
 cg2d: Sum(rhs),rhsMax =  -1.03979969953661E+02  1.31106221553713E+00
(PID.TID 0000.0001)  ploadbar=  1.00946667326083E+05
 cg2d: Sum(rhs),rhsMax =  -1.04486990778640E+02  1.30461809853219E+00
(PID.TID 0000.0001)  ploadbar=  1.00946384446217E+05
 cg2d: Sum(rhs),rhsMax =  -1.04938941515957E+02  1.29894915462752E+00
(PID.TID 0000.0001)  ploadbar=  1.00946101566351E+05
 cg2d: Sum(rhs),rhsMax =  -1.05303958833016E+02  1.29442384591296E+00
(PID.TID 0000.0001)  ploadbar=  1.00945818686485E+05
 cg2d: Sum(rhs),rhsMax =  -1.05582307995041E+02  1.29101736040043E+00
(PID.TID 0000.0001)  ploadbar=  1.00945535806619E+05
 cg2d: Sum(rhs),rhsMax =  -1.05786766879262E+02  1.28855700605014E+00
(PID.TID 0000.0001)  ploadbar=  1.00945252926752E+05
 cg2d: Sum(rhs),rhsMax =  -1.05968583321108E+02  1.28635938097422E+00
(PID.TID 0000.0001)  ploadbar=  1.00945328229936E+05
 cg2d: Sum(rhs),rhsMax =  -1.06241118285641E+02  1.28304432320522E+00
(PID.TID 0000.0001)  ploadbar=  1.00945403533120E+05
 cg2d: Sum(rhs),rhsMax =  -1.06601056120258E+02  1.27866894137726E+00
(PID.TID 0000.0001)  ploadbar=  1.00945478836304E+05
 cg2d: Sum(rhs),rhsMax =  -1.07064463757568E+02  1.27306405843851E+00
(PID.TID 0000.0001)  ploadbar=  1.00945554139488E+05
 cg2d: Sum(rhs),rhsMax =  -1.07625922567658E+02  1.26632662884710E+00
(PID.TID 0000.0001)  ploadbar=  1.00945629442672E+05
 cg2d: Sum(rhs),rhsMax =  -1.08278710976878E+02  1.25857003162841E+00
(PID.TID 0000.0001)  ploadbar=  1.00945704745856E+05
 cg2d: Sum(rhs),rhsMax =  -1.08952541284691E+02  1.25067804674571E+00
(PID.TID 0000.0001)  ploadbar=  1.00945989908291E+05
 cg2d: Sum(rhs),rhsMax =  -1.09634714449951E+02  1.24279433464109E+00
(PID.TID 0000.0001)  ploadbar=  1.00946275070725E+05
 cg2d: Sum(rhs),rhsMax =  -1.10312380727441E+02  1.23506402155518E+00
(PID.TID 0000.0001)  ploadbar=  1.00946560233159E+05
 cg2d: Sum(rhs),rhsMax =  -1.10987076957573E+02  1.22747085052738E+00
(PID.TID 0000.0001)  ploadbar=  1.00946845395593E+05
 cg2d: Sum(rhs),rhsMax =  -1.11652627222755E+02  1.22008219201111E+00
(PID.TID 0000.0001)  ploadbar=  1.00947130558028E+05
 cg2d: Sum(rhs),rhsMax =  -1.11345712456560E+02  1.22338006432958E+00
(PID.TID 0000.0001)  ploadbar=  1.00947415720462E+05
 cg2d: Sum(rhs),rhsMax =  -1.10685311191907E+02  1.23059241453300E+00
(PID.TID 0000.0001)  ploadbar=  1.00947929982792E+05
 cg2d: Sum(rhs),rhsMax =  -1.09949143037409E+02  1.23871288638516E+00
(PID.TID 0000.0001)  ploadbar=  1.00948444245123E+05
 cg2d: Sum(rhs),rhsMax =  -1.09247932114201E+02  1.24650439265059E+00
(PID.TID 0000.0001)  ploadbar=  1.00948958507453E+05
 cg2d: Sum(rhs),rhsMax =  -1.08558812270388E+02  1.25421604863926E+00
(PID.TID 0000.0001)  ploadbar=  1.00949472769783E+05
 cg2d: Sum(rhs),rhsMax =  -1.07868787014730E+02  1.26199588654280E+00
(PID.TID 0000.0001)  ploadbar=  1.00949987032114E+05
 cg2d: Sum(rhs),rhsMax =  -1.07170252343294E+02  1.26993380999961E+00
(PID.TID 0000.0001)  ploadbar=  1.00950501294444E+05
 cg2d: Sum(rhs),rhsMax =  -1.06495202784536E+02  1.27774003448839E+00
(PID.TID 0000.0001)  ploadbar=  1.00949650248466E+05
 cg2d: Sum(rhs),rhsMax =  -1.05852651309919E+02  1.28528720061000E+00
(PID.TID 0000.0001)  ploadbar=  1.00948799202488E+05
 cg2d: Sum(rhs),rhsMax =  -1.05249385354988E+02  1.29246836523414E+00
(PID.TID 0000.0001)  ploadbar=  1.00947948156510E+05
 cg2d: Sum(rhs),rhsMax =  -1.04684723774919E+02  1.29927602626029E+00
(PID.TID 0000.0001)  ploadbar=  1.00947097110532E+05
 cg2d: Sum(rhs),rhsMax =  -1.04111906921474E+02  1.30628215041351E+00
(PID.TID 0000.0001)  ploadbar=  1.00946246064554E+05
 cg2d: Sum(rhs),rhsMax =  -1.03589729478441E+02  1.31274339185306E+00
(PID.TID 0000.0001)  ploadbar=  1.00945395018576E+05
 cg2d: Sum(rhs),rhsMax =  -1.03281973313925E+02  1.31651967621378E+00
(PID.TID 0000.0001)  ploadbar=  1.00946335233808E+05
 cg2d: Sum(rhs),rhsMax =  -1.02955477699898E+02  1.32054071343829E+00
(PID.TID 0000.0001)  ploadbar=  1.00947275449041E+05
 cg2d: Sum(rhs),rhsMax =  -1.02591610118267E+02  1.32504752879972E+00
(PID.TID 0000.0001)  ploadbar=  1.00948215664273E+05
 cg2d: Sum(rhs),rhsMax =  -1.02174712703998E+02  1.33025249562625E+00
(PID.TID 0000.0001)  ploadbar=  1.00949155879506E+05
 cg2d: Sum(rhs),rhsMax =  -1.01722597331663E+02  1.33593401676402E+00
(PID.TID 0000.0001)  ploadbar=  1.00950096094738E+05
 cg2d: Sum(rhs),rhsMax =  -1.01237973598212E+02  1.34206782267279E+00
(PID.TID 0000.0001)  ploadbar=  1.00951036309971E+05
 cg2d: Sum(rhs),rhsMax =  -1.00772485649061E+02  1.34802607202778E+00
(PID.TID 0000.0001)  ploadbar=  1.00951380250404E+05
 cg2d: Sum(rhs),rhsMax =  -1.00306323900800E+02  1.35406051919737E+00
(PID.TID 0000.0001)  ploadbar=  1.00951724190838E+05
 cg2d: Sum(rhs),rhsMax =  -9.98600548174223E+01  1.35989226742701E+00
(PID.TID 0000.0001)  ploadbar=  1.00952068131271E+05
 cg2d: Sum(rhs),rhsMax =  -9.95466301327980E+01  1.36396740534134E+00
(PID.TID 0000.0001)  ploadbar=  1.00952412071704E+05
 cg2d: Sum(rhs),rhsMax =  -9.95691799656454E+01  1.36346906093551E+00
(PID.TID 0000.0001)  ploadbar=  1.00952756012138E+05
 cg2d: Sum(rhs),rhsMax =  -1.00049333117126E+02  1.35673994053188E+00
(PID.TID 0000.0001)  ploadbar=  1.00953099952571E+05
 cg2d: Sum(rhs),rhsMax =  -1.00017499360302E+02  1.35697609932595E+00
(PID.TID 0000.0001)  ploadbar=  1.00953393558854E+05
 cg2d: Sum(rhs),rhsMax =  -1.00265139428528E+02  1.35340710684282E+00
(PID.TID 0000.0001)  ploadbar=  1.00953687165136E+05
 cg2d: Sum(rhs),rhsMax =  -1.00611824750459E+02  1.34849271920421E+00
(PID.TID 0000.0001)  ploadbar=  1.00953980771419E+05
 cg2d: Sum(rhs),rhsMax =  -1.00912573800857E+02  1.34418554290268E+00
(PID.TID 0000.0001)  ploadbar=  1.00954274377701E+05
 cg2d: Sum(rhs),rhsMax =  -1.01166988119043E+02  1.34047828304451E+00
(PID.TID 0000.0001)  ploadbar=  1.00954567983984E+05
 cg2d: Sum(rhs),rhsMax =  -1.01379840758435E+02  1.33729825176506E+00
(PID.TID 0000.0001)  ploadbar=  1.00954861590267E+05
 cg2d: Sum(rhs),rhsMax =  -1.01613519578001E+02  1.33391878793374E+00
(PID.TID 0000.0001)  ploadbar=  1.00954747697708E+05
 cg2d: Sum(rhs),rhsMax =  -1.01865087643593E+02  1.33037153461615E+00
(PID.TID 0000.0001)  ploadbar=  1.00954633805150E+05
 cg2d: Sum(rhs),rhsMax =  -1.02137941474641E+02  1.32660494036714E+00
(PID.TID 0000.0001)  ploadbar=  1.00954519912591E+05
 cg2d: Sum(rhs),rhsMax =  -1.02436290245363E+02  1.32256248238932E+00
(PID.TID 0000.0001)  ploadbar=  1.00954406020033E+05
 cg2d: Sum(rhs),rhsMax =  -1.02732104329834E+02  1.31860623984153E+00
(PID.TID 0000.0001)  ploadbar=  1.00954292127475E+05
 cg2d: Sum(rhs),rhsMax =  -1.03096070956729E+02  1.31383147216006E+00
(PID.TID 0000.0001)  ploadbar=  1.00954178234916E+05
 cg2d: Sum(rhs),rhsMax =  -1.03608661066958E+02  1.30721574254633E+00
(PID.TID 0000.0001)  ploadbar=  1.00954973970788E+05
 cg2d: Sum(rhs),rhsMax =  -1.04123551910839E+02  1.30063237340237E+00
(PID.TID 0000.0001)  ploadbar=  1.00955769706659E+05
 cg2d: Sum(rhs),rhsMax =  -1.04633956501045E+02  1.29416253945868E+00
(PID.TID 0000.0001)  ploadbar=  1.00956565442530E+05
 cg2d: Sum(rhs),rhsMax =  -1.05129318488200E+02  1.28792924423354E+00
(PID.TID 0000.0001)  ploadbar=  1.00957361178401E+05
 cg2d: Sum(rhs),rhsMax =  -1.05631927399181E+02  1.28165066930095E+00
(PID.TID 0000.0001)  ploadbar=  1.00958156914272E+05
 cg2d: Sum(rhs),rhsMax =  -1.06129985780924E+02  1.27546757325448E+00
(PID.TID 0000.0001)  ploadbar=  1.00958952650144E+05
 cg2d: Sum(rhs),rhsMax =  -1.06553442916701E+02  1.27025907720078E+00
(PID.TID 0000.0001)  ploadbar=  1.00960277052101E+05
 cg2d: Sum(rhs),rhsMax =  -1.06969988027213E+02  1.26519609880816E+00
(PID.TID 0000.0001)  ploadbar=  1.00961601454058E+05
 cg2d: Sum(rhs),rhsMax =  -1.07441836807464E+02  1.25954566759625E+00
(PID.TID 0000.0001)  ploadbar=  1.00962925856014E+05
 cg2d: Sum(rhs),rhsMax =  -1.08018548137106E+02  1.25274823421414E+00
(PID.TID 0000.0001)  ploadbar=  1.00964250257971E+05
 cg2d: Sum(rhs),rhsMax =  -1.08502136065293E+02  1.24711138470351E+00
(PID.TID 0000.0001)  ploadbar=  1.00965574659928E+05
 cg2d: Sum(rhs),rhsMax =  -1.08935458855292E+02  1.24210655540953E+00
(PID.TID 0000.0001)  ploadbar=  1.00966899061885E+05
 cg2d: Sum(rhs),rhsMax =  -1.09104355086843E+02  1.24012412780025E+00
(PID.TID 0000.0001)  ploadbar=  1.00967807644078E+05
 cg2d: Sum(rhs),rhsMax =  -1.08983585691927E+02  1.24141167612851E+00
(PID.TID 0000.0001)  ploadbar=  1.00968716226271E+05
 cg2d: Sum(rhs),rhsMax =  -1.09059113056925E+02  1.24042924331643E+00
(PID.TID 0000.0001)  ploadbar=  1.00969624808464E+05
 cg2d: Sum(rhs),rhsMax =  -1.09420624874607E+02  1.23616997448168E+00
(PID.TID 0000.0001)  ploadbar=  1.00970533390657E+05
 cg2d: Sum(rhs),rhsMax =  -1.09817908898316E+02  1.23149699648204E+00
(PID.TID 0000.0001)  ploadbar=  1.00971441972850E+05
 cg2d: Sum(rhs),rhsMax =  -1.10235395949663E+02  1.22659364311199E+00
(PID.TID 0000.0001)  ploadbar=  1.00972350555043E+05
 cg2d: Sum(rhs),rhsMax =  -1.10559401227880E+02  1.22279801242177E+00
(PID.TID 0000.0001)  ploadbar=  1.00972270733324E+05
 cg2d: Sum(rhs),rhsMax =  -1.10898126006487E+02  1.21888975447203E+00
(PID.TID 0000.0001)  ploadbar=  1.00972190911604E+05
 cg2d: Sum(rhs),rhsMax =  -1.11246973201574E+02  1.21491370062408E+00
(PID.TID 0000.0001)  ploadbar=  1.00972111089885E+05
 cg2d: Sum(rhs),rhsMax =  -1.11600229771563E+02  1.21093359234393E+00
(PID.TID 0000.0001)  ploadbar=  1.00972031268165E+05
 cg2d: Sum(rhs),rhsMax =  -1.11642110146838E+02  1.21036043193874E+00
(PID.TID 0000.0001)  ploadbar=  1.00971951446446E+05
 cg2d: Sum(rhs),rhsMax =  -1.09470045443031E+02  1.23426615628329E+00
(PID.TID 0000.0001)  ploadbar=  1.00971871624726E+05
 cg2d: Sum(rhs),rhsMax =  -1.07577991112890E+02  1.25585794940810E+00
(PID.TID 0000.0001)  ploadbar=  1.00972024127190E+05
 cg2d: Sum(rhs),rhsMax =  -1.05846846527161E+02  1.27626949614944E+00
(PID.TID 0000.0001)  ploadbar=  1.00972176629654E+05
 cg2d: Sum(rhs),rhsMax =  -1.04276191213519E+02  1.29535010021353E+00
(PID.TID 0000.0001)  ploadbar=  1.00972329132117E+05
 cg2d: Sum(rhs),rhsMax =  -1.02833691929428E+02  1.31335868574982E+00
(PID.TID 0000.0001)  ploadbar=  1.00972481634581E+05
 cg2d: Sum(rhs),rhsMax =  -1.01467487114567E+02  1.33085624214626E+00
(PID.TID 0000.0001)  ploadbar=  1.00972634137045E+05
 cg2d: Sum(rhs),rhsMax =  -1.00134115763582E+02  1.34836454123214E+00
(PID.TID 0000.0001)  ploadbar=  1.00972786639508E+05
 cg2d: Sum(rhs),rhsMax =  -9.88383526632391E+01  1.36585184267495E+00
(PID.TID 0000.0001)  ploadbar=  1.00973311241163E+05
 cg2d: Sum(rhs),rhsMax =  -9.75433979889619E+01  1.38381090888716E+00
(PID.TID 0000.0001)  ploadbar=  1.00973835842817E+05
 cg2d: Sum(rhs),rhsMax =  -9.62962074922448E+01  1.40157499163903E+00
(PID.TID 0000.0001)  ploadbar=  1.00974360444471E+05
 cg2d: Sum(rhs),rhsMax =  -9.51189563635388E+01  1.41878021432435E+00
(PID.TID 0000.0001)  ploadbar=  1.00974885046125E+05
 cg2d: Sum(rhs),rhsMax =  -9.40854031904750E+01  1.43424343294873E+00
(PID.TID 0000.0001)  ploadbar=  1.00975409647780E+05
 cg2d: Sum(rhs),rhsMax =  -9.32973329159154E+01  1.44624221784528E+00
(PID.TID 0000.0001)  ploadbar=  1.00975934249434E+05
 cg2d: Sum(rhs),rhsMax =  -9.26915849618714E+01  1.45555673756783E+00
(PID.TID 0000.0001)  ploadbar=  1.00975674405155E+05
 cg2d: Sum(rhs),rhsMax =  -9.22935842947560E+01  1.46166531046307E+00
(PID.TID 0000.0001)  ploadbar=  1.00975414560876E+05
 cg2d: Sum(rhs),rhsMax =  -9.20171861729030E+01  1.46584967039290E+00
(PID.TID 0000.0001)  ploadbar=  1.00975154716597E+05
 cg2d: Sum(rhs),rhsMax =  -9.17818002692721E+01  1.46936081481756E+00
(PID.TID 0000.0001)  ploadbar=  1.00974894872319E+05
 cg2d: Sum(rhs),rhsMax =  -9.15187484931860E+01  1.47329199505602E+00
(PID.TID 0000.0001)  ploadbar=  1.00974635028040E+05
 cg2d: Sum(rhs),rhsMax =  -9.11867191696147E+01  1.47831964153637E+00
(PID.TID 0000.0001)  ploadbar=  1.00974375183761E+05
 cg2d: Sum(rhs),rhsMax =  -9.07864446673005E+01  1.48454378672206E+00
(PID.TID 0000.0001)  ploadbar=  1.00973859155630E+05
 cg2d: Sum(rhs),rhsMax =  -9.01243264785218E+01  1.49518789212971E+00
(PID.TID 0000.0001)  ploadbar=  1.00973343127500E+05
 cg2d: Sum(rhs),rhsMax =  -8.94246708586404E+01  1.50664421029307E+00
(PID.TID 0000.0001)  ploadbar=  1.00972827099369E+05
 cg2d: Sum(rhs),rhsMax =  -8.87680389308536E+01  1.51756285920062E+00
(PID.TID 0000.0001)  ploadbar=  1.00972311071239E+05
 cg2d: Sum(rhs),rhsMax =  -8.82370148608950E+01  1.52648427966276E+00
(PID.TID 0000.0001)  ploadbar=  1.00971795043108E+05
 cg2d: Sum(rhs),rhsMax =  -8.78885618487580E+01  1.53233881802964E+00
(PID.TID 0000.0001)  ploadbar=  1.00971279014977E+05
 cg2d: Sum(rhs),rhsMax =  -8.77476006398296E+01  1.53458614440905E+00
(PID.TID 0000.0001)  ploadbar=  1.00971054753039E+05
 cg2d: Sum(rhs),rhsMax =  -8.52821889623691E+01  1.57870439698495E+00
(PID.TID 0000.0001)  ploadbar=  1.00970830491100E+05
 cg2d: Sum(rhs),rhsMax =  -8.24744258880621E+01  1.63216784534971E+00
(PID.TID 0000.0001)  ploadbar=  1.00970606229161E+05
 cg2d: Sum(rhs),rhsMax =  -7.96093344973593E+01  1.69058167285544E+00
(PID.TID 0000.0001)  ploadbar=  1.00970381967223E+05
 cg2d: Sum(rhs),rhsMax =  -7.67148889962636E+01  1.75399232439853E+00
(PID.TID 0000.0001)  ploadbar=  1.00970157705284E+05
 cg2d: Sum(rhs),rhsMax =  -7.38203195197725E+01  1.82233913239714E+00
(PID.TID 0000.0001)  ploadbar=  1.00969933443345E+05
 cg2d: Sum(rhs),rhsMax =  -7.14159805094723E+01  1.88327709478799E+00
(PID.TID 0000.0001)  ploadbar=  1.00971014915791E+05
 cg2d: Sum(rhs),rhsMax =  -6.94597273484947E+01  1.93590963623512E+00
(PID.TID 0000.0001)  ploadbar=  1.00972096388236E+05
 cg2d: Sum(rhs),rhsMax =  -6.79299660198971E+01  1.97910633956130E+00
(PID.TID 0000.0001)  ploadbar=  1.00973177860681E+05
 cg2d: Sum(rhs),rhsMax =  -6.67043215963685E+01  2.01508508834824E+00
(PID.TID 0000.0001)  ploadbar=  1.00974259333126E+05
 cg2d: Sum(rhs),rhsMax =  -6.56827609069701E+01  2.04605702433467E+00
(PID.TID 0000.0001)  ploadbar=  1.00975340805571E+05
 cg2d: Sum(rhs),rhsMax =  -6.48032477884925E+01  2.07346291931839E+00
(PID.TID 0000.0001)  ploadbar=  1.00976422278016E+05
 cg2d: Sum(rhs),rhsMax =  -6.39447544071755E+01  2.10089060106834E+00
(PID.TID 0000.0001)  ploadbar=  1.00977143487227E+05
 cg2d: Sum(rhs),rhsMax =  -6.31081320143022E+01  2.12827348272274E+00
(PID.TID 0000.0001)  ploadbar=  1.00977864696437E+05
 cg2d: Sum(rhs),rhsMax =  -6.22892701807129E+01  2.15571340753948E+00
(PID.TID 0000.0001)  ploadbar=  1.00978585905647E+05
 cg2d: Sum(rhs),rhsMax =  -6.14946431309441E+01  2.18295603079364E+00
(PID.TID 0000.0001)  ploadbar=  1.00979307114858E+05
 cg2d: Sum(rhs),rhsMax =  -6.07443081689654E+01  2.20923203199629E+00
(PID.TID 0000.0001)  ploadbar=  1.00980028324068E+05
 cg2d: Sum(rhs),rhsMax =  -6.00570065123156E+01  2.23374734655740E+00
(PID.TID 0000.0001)  ploadbar=  1.00980749533279E+05
 cg2d: Sum(rhs),rhsMax =  -5.95369810923130E+01  2.25253804810417E+00
(PID.TID 0000.0001)  ploadbar=  1.00982066340366E+05
 cg2d: Sum(rhs),rhsMax =  -5.91859303446996E+01  2.26521502025787E+00
(PID.TID 0000.0001)  ploadbar=  1.00983383147453E+05
 cg2d: Sum(rhs),rhsMax =  -5.90059051454606E+01  2.27146613745748E+00
(PID.TID 0000.0001)  ploadbar=  1.00984699954541E+05
 cg2d: Sum(rhs),rhsMax =  -5.89561526738027E+01  2.27273908430697E+00
(PID.TID 0000.0001)  ploadbar=  1.00986016761628E+05
 cg2d: Sum(rhs),rhsMax =  -5.90035422016344E+01  2.27028331926497E+00
(PID.TID 0000.0001)  ploadbar=  1.00987333568715E+05
 cg2d: Sum(rhs),rhsMax =  -5.91297231103844E+01  2.26482030193337E+00
(PID.TID 0000.0001)  ploadbar=  1.00988650375802E+05
 cg2d: Sum(rhs),rhsMax =  -5.93019306487384E+01  2.25761863294435E+00
(PID.TID 0000.0001)  ploadbar=  1.00989675122012E+05
 cg2d: Sum(rhs),rhsMax =  -5.95153374414271E+01  2.24888169048148E+00
(PID.TID 0000.0001)  ploadbar=  1.00990699868223E+05
 cg2d: Sum(rhs),rhsMax =  -5.97692696399823E+01  2.23866902246368E+00
(PID.TID 0000.0001)  ploadbar=  1.00991724614433E+05
 cg2d: Sum(rhs),rhsMax =  -6.00702369672142E+01  2.22677627540554E+00
(PID.TID 0000.0001)  ploadbar=  1.00992749360643E+05
 cg2d: Sum(rhs),rhsMax =  -6.04235434975879E+01  2.21305880717104E+00
(PID.TID 0000.0001)  ploadbar=  1.00993774106854E+05
 cg2d: Sum(rhs),rhsMax =  -6.08381883370127E+01  2.19724863674884E+00
(PID.TID 0000.0001)  ploadbar=  1.00994798853064E+05
 cg2d: Sum(rhs),rhsMax =  -6.13061455428351E+01  2.17977663284370E+00
(PID.TID 0000.0001)  ploadbar=  1.00995495367331E+05
 cg2d: Sum(rhs),rhsMax =  -6.18175744579827E+01  2.16106185967514E+00
(PID.TID 0000.0001)  ploadbar=  1.00996191881597E+05
 cg2d: Sum(rhs),rhsMax =  -6.23669846562386E+01  2.14136151848767E+00
(PID.TID 0000.0001)  ploadbar=  1.00996888395864E+05
 cg2d: Sum(rhs),rhsMax =  -6.29604917524335E+01  2.12053179663890E+00
(PID.TID 0000.0001)  ploadbar=  1.00997584910131E+05
 cg2d: Sum(rhs),rhsMax =  -6.36030637645702E+01  2.09848559653940E+00
(PID.TID 0000.0001)  ploadbar=  1.00998281424397E+05
 cg2d: Sum(rhs),rhsMax =  -6.43025490840899E+01  2.07504212613882E+00
(PID.TID 0000.0001)  ploadbar=  1.00998977938664E+05
 cg2d: Sum(rhs),rhsMax =  -6.48475615843603E+01  2.05697683637841E+00
(PID.TID 0000.0001)  ploadbar=  1.01000270659489E+05
 cg2d: Sum(rhs),rhsMax =  -6.51537010702951E+01  2.04666399693127E+00
(PID.TID 0000.0001)  ploadbar=  1.01001563380314E+05
 cg2d: Sum(rhs),rhsMax =  -6.55039898212849E+01  2.03504325587291E+00
(PID.TID 0000.0001)  ploadbar=  1.01002856101139E+05
 cg2d: Sum(rhs),rhsMax =  -6.58987020432579E+01  2.02214693385406E+00
(PID.TID 0000.0001)  ploadbar=  1.01004148821963E+05
 cg2d: Sum(rhs),rhsMax =  -6.63387171136196E+01  2.00799520135291E+00
(PID.TID 0000.0001)  ploadbar=  1.01005441542788E+05
 cg2d: Sum(rhs),rhsMax =  -6.68252874887738E+01  1.99260538111605E+00
(PID.TID 0000.0001)  ploadbar=  1.01006734263613E+05
 cg2d: Sum(rhs),rhsMax =  -6.73568940415727E+01  1.97620512920204E+00
(PID.TID 0000.0001)  ploadbar=  1.01008322511664E+05
 cg2d: Sum(rhs),rhsMax =  -6.79311430254953E+01  1.95890556478502E+00
(PID.TID 0000.0001)  ploadbar=  1.01009910759714E+05
 cg2d: Sum(rhs),rhsMax =  -6.85427516841039E+01  1.94089897726691E+00
(PID.TID 0000.0001)  ploadbar=  1.01011499007764E+05
 cg2d: Sum(rhs),rhsMax =  -6.91998071330062E+01  1.92200396708791E+00
(PID.TID 0000.0001)  ploadbar=  1.01013087255814E+05
 cg2d: Sum(rhs),rhsMax =  -6.98991647749641E+01  1.90237002274729E+00
(PID.TID 0000.0001)  ploadbar=  1.01014675503865E+05
 cg2d: Sum(rhs),rhsMax =  -7.06387823945315E+01  1.88210709955132E+00
(PID.TID 0000.0001)  ploadbar=  1.01016263751915E+05
 cg2d: Sum(rhs),rhsMax =  -7.13995065071543E+01  1.86172199951954E+00
(PID.TID 0000.0001)  ploadbar=  1.01016954902400E+05
 cg2d: Sum(rhs),rhsMax =  -7.21781427978812E+01  1.84130464922007E+00
(PID.TID 0000.0001)  ploadbar=  1.01017646052885E+05
 cg2d: Sum(rhs),rhsMax =  -7.29672361011434E+01  1.82105429701319E+00
(PID.TID 0000.0001)  ploadbar=  1.01018337203371E+05
 cg2d: Sum(rhs),rhsMax =  -7.37686355245536E+01  1.80092496687942E+00
(PID.TID 0000.0001)  ploadbar=  1.01019028353856E+05
 cg2d: Sum(rhs),rhsMax =  -7.45840795048111E+01  1.78087509679332E+00
(PID.TID 0000.0001)  ploadbar=  1.01019719504341E+05
 cg2d: Sum(rhs),rhsMax =  -7.54158129530783E+01  1.76084895462650E+00
(PID.TID 0000.0001)  ploadbar=  1.01020410654827E+05
 cg2d: Sum(rhs),rhsMax =  -7.62239891194103E+01  1.74181830309798E+00
(PID.TID 0000.0001)  ploadbar=  1.01021088440340E+05
 cg2d: Sum(rhs),rhsMax =  -7.70467322771030E+01  1.72287765422432E+00
(PID.TID 0000.0001)  ploadbar=  1.01021766225853E+05
 cg2d: Sum(rhs),rhsMax =  -7.78854644999430E+01  1.70400554903583E+00
(PID.TID 0000.0001)  ploadbar=  1.01022444011366E+05
 cg2d: Sum(rhs),rhsMax =  -7.87390496695402E+01  1.68523861075748E+00
(PID.TID 0000.0001)  ploadbar=  1.01023121796878E+05
 cg2d: Sum(rhs),rhsMax =  -7.96029225410641E+01  1.66667486553347E+00
(PID.TID 0000.0001)  ploadbar=  1.01023799582391E+05
 cg2d: Sum(rhs),rhsMax =  -8.04735128324731E+01  1.64837905819790E+00
(PID.TID 0000.0001)  ploadbar=  1.01024477367904E+05
 cg2d: Sum(rhs),rhsMax =  -8.13154894445663E+01  1.63103875813280E+00
(PID.TID 0000.0001)  ploadbar=  1.01024456464383E+05
 cg2d: Sum(rhs),rhsMax =  -8.19457596243947E+01  1.61820419393383E+00
(PID.TID 0000.0001)  ploadbar=  1.01024435560862E+05
 cg2d: Sum(rhs),rhsMax =  -8.18795272174892E+01  1.61919632522898E+00
(PID.TID 0000.0001)  ploadbar=  1.01024414657341E+05
 cg2d: Sum(rhs),rhsMax =  -8.23221811851748E+01  1.61014445641063E+00
(PID.TID 0000.0001)  ploadbar=  1.01024393753820E+05
 cg2d: Sum(rhs),rhsMax =  -8.27780889817465E+01  1.60090260418105E+00
(PID.TID 0000.0001)  ploadbar=  1.01024372850299E+05
 cg2d: Sum(rhs),rhsMax =  -8.32626779546395E+01  1.59118445960383E+00
(PID.TID 0000.0001)  ploadbar=  1.01024351946778E+05
 cg2d: Sum(rhs),rhsMax =  -8.36188453270432E+01  1.58406989471928E+00
(PID.TID 0000.0001)  ploadbar=  1.01023824409779E+05
 cg2d: Sum(rhs),rhsMax =  -8.30659595136057E+01  1.59432713251986E+00
(PID.TID 0000.0001)  ploadbar=  1.01023296872780E+05
 cg2d: Sum(rhs),rhsMax =  -8.25114735525740E+01  1.60479725641619E+00
(PID.TID 0000.0001)  ploadbar=  1.01022769335781E+05
 cg2d: Sum(rhs),rhsMax =  -8.19718931016660E+01  1.61515222504306E+00
(PID.TID 0000.0001)  ploadbar=  1.01022241798782E+05
 cg2d: Sum(rhs),rhsMax =  -8.14669905352907E+01  1.62498679134739E+00
(PID.TID 0000.0001)  ploadbar=  1.01021714261784E+05
 cg2d: Sum(rhs),rhsMax =  -8.10101106116766E+01  1.63401162474382E+00
(PID.TID 0000.0001)  ploadbar=  1.01021186724785E+05
 cg2d: Sum(rhs),rhsMax =  -8.06256927109134E+01  1.64163914215536E+00
(PID.TID 0000.0001)  ploadbar=  1.01021043390503E+05
 cg2d: Sum(rhs),rhsMax =  -8.02426183094928E+01  1.64928310866120E+00
(PID.TID 0000.0001)  ploadbar=  1.01020900056222E+05
 cg2d: Sum(rhs),rhsMax =  -7.98286561267514E+01  1.65761111738541E+00
(PID.TID 0000.0001)  ploadbar=  1.01020756721940E+05
 cg2d: Sum(rhs),rhsMax =  -7.93602509817780E+01  1.66713911524576E+00
(PID.TID 0000.0001)  ploadbar=  1.01020613387659E+05
 cg2d: Sum(rhs),rhsMax =  -7.86051206072684E+01  1.68286187256619E+00
(PID.TID 0000.0001)  ploadbar=  1.01020470053377E+05
 cg2d: Sum(rhs),rhsMax =  -7.73085245373434E+01  1.71074624889134E+00
(PID.TID 0000.0001)  ploadbar=  1.01020326719096E+05
 cg2d: Sum(rhs),rhsMax =  -7.60874775266347E+01  1.73787706438971E+00
(PID.TID 0000.0001)  ploadbar=  1.01019334635241E+05
 cg2d: Sum(rhs),rhsMax =  -7.49546606244316E+01  1.76383243332897E+00
(PID.TID 0000.0001)  ploadbar=  1.01018342551386E+05
 cg2d: Sum(rhs),rhsMax =  -7.39207566733409E+01  1.78820823141840E+00
(PID.TID 0000.0001)  ploadbar=  1.01017350467532E+05
 cg2d: Sum(rhs),rhsMax =  -7.30051322046233E+01  1.81035843407530E+00
(PID.TID 0000.0001)  ploadbar=  1.01016358383677E+05
 cg2d: Sum(rhs),rhsMax =  -7.22317919667901E+01  1.82947411659035E+00
(PID.TID 0000.0001)  ploadbar=  1.01015366299822E+05
 cg2d: Sum(rhs),rhsMax =  -7.07649386522550E+01  1.86712471161794E+00
(PID.TID 0000.0001)  ploadbar=  1.01014374215967E+05
 cg2d: Sum(rhs),rhsMax =  -7.22510970327124E+01  1.82843923085283E+00
(PID.TID 0000.0001)  ploadbar=  1.01012616855527E+05
 cg2d: Sum(rhs),rhsMax =  -7.55366403763823E+01  1.74862044894931E+00
(PID.TID 0000.0001)  ploadbar=  1.01010859495087E+05
 cg2d: Sum(rhs),rhsMax =  -7.90453712006528E+01  1.67069591570730E+00
(PID.TID 0000.0001)  ploadbar=  1.01009102134647E+05
 cg2d: Sum(rhs),rhsMax =  -8.23358588995203E+01  1.60360201366099E+00
(PID.TID 0000.0001)  ploadbar=  1.01007344774207E+05
 cg2d: Sum(rhs),rhsMax =  -8.19690620767413E+01  1.61041518641721E+00
(PID.TID 0000.0001)  ploadbar=  1.01005587413766E+05
 cg2d: Sum(rhs),rhsMax =  -8.12892390656805E+01  1.62348253729231E+00
(PID.TID 0000.0001)  ploadbar=  1.01003830053326E+05
 cg2d: Sum(rhs),rhsMax =  -8.06056745960816E+01  1.63692016643283E+00
(PID.TID 0000.0001)  ploadbar=  1.01002769355306E+05
 cg2d: Sum(rhs),rhsMax =  -7.99070968624513E+01  1.65096405251050E+00
(PID.TID 0000.0001)  ploadbar=  1.01001708657286E+05
 cg2d: Sum(rhs),rhsMax =  -7.91997042242796E+01  1.66549448200451E+00
(PID.TID 0000.0001)  ploadbar=  1.01000647959266E+05
 cg2d: Sum(rhs),rhsMax =  -7.84868138957508E+01  1.68044894701191E+00
(PID.TID 0000.0001)  ploadbar=  1.00999587261246E+05
 cg2d: Sum(rhs),rhsMax =  -7.77715379020150E+01  1.69577352473794E+00
(PID.TID 0000.0001)  ploadbar=  1.00998526563226E+05
 cg2d: Sum(rhs),rhsMax =  -7.70614891645976E+01  1.71130951589918E+00
(PID.TID 0000.0001)  ploadbar=  1.00997465865206E+05
 cg2d: Sum(rhs),rhsMax =  -7.63730114707630E+01  1.72663729241199E+00
(PID.TID 0000.0001)  ploadbar=  1.00996703407051E+05
 cg2d: Sum(rhs),rhsMax =  -7.57096561074979E+01  1.74164892405987E+00
(PID.TID 0000.0001)  ploadbar=  1.00995940948895E+05
 cg2d: Sum(rhs),rhsMax =  -7.50802266494978E+01  1.75611564296369E+00
(PID.TID 0000.0001)  ploadbar=  1.00995178490740E+05
 cg2d: Sum(rhs),rhsMax =  -7.44875643750391E+01  1.76993403003937E+00
(PID.TID 0000.0001)  ploadbar=  1.00994416032584E+05
 cg2d: Sum(rhs),rhsMax =  -7.39350581572584E+01  1.78298336485537E+00
(PID.TID 0000.0001)  ploadbar=  1.00993653574429E+05
 cg2d: Sum(rhs),rhsMax =  -7.34252992758053E+01  1.79515683293835E+00
(PID.TID 0000.0001)  ploadbar=  1.00992891116274E+05
 cg2d: Sum(rhs),rhsMax =  -7.29642032105174E+01  1.80631573630451E+00
(PID.TID 0000.0001)  ploadbar=  1.00993797742695E+05
 cg2d: Sum(rhs),rhsMax =  -7.25434035196486E+01  1.81661830444483E+00
(PID.TID 0000.0001)  ploadbar=  1.00994704369117E+05
 cg2d: Sum(rhs),rhsMax =  -7.21615795494106E+01  1.82606704086991E+00
(PID.TID 0000.0001)  ploadbar=  1.00995610995539E+05
 cg2d: Sum(rhs),rhsMax =  -7.18161530366990E+01  1.83469962894086E+00
(PID.TID 0000.0001)  ploadbar=  1.00996517621960E+05
 cg2d: Sum(rhs),rhsMax =  -7.15054882020936E+01  1.84252797767429E+00
(PID.TID 0000.0001)  ploadbar=  1.00997424248382E+05
 cg2d: Sum(rhs),rhsMax =  -7.12286511489129E+01  1.84953840854715E+00
(PID.TID 0000.0001)  ploadbar=  1.00998330874804E+05
 cg2d: Sum(rhs),rhsMax =  -7.09895065389624E+01  1.85557746467888E+00
(PID.TID 0000.0001)  ploadbar=  1.00998237709259E+05
 cg2d: Sum(rhs),rhsMax =  -7.07875821149788E+01  1.86062960291744E+00
(PID.TID 0000.0001)  ploadbar=  1.00998144543715E+05
 cg2d: Sum(rhs),rhsMax =  -7.06163190257997E+01  1.86484288958748E+00
(PID.TID 0000.0001)  ploadbar=  1.00998051378170E+05
 cg2d: Sum(rhs),rhsMax =  -7.04688674964664E+01  1.86838403271227E+00
(PID.TID 0000.0001)  ploadbar=  1.00997958212626E+05
 cg2d: Sum(rhs),rhsMax =  -7.03382952613150E+01  1.87142822237005E+00
(PID.TID 0000.0001)  ploadbar=  1.00997865047082E+05
 cg2d: Sum(rhs),rhsMax =  -7.02175004610009E+01  1.87416316153636E+00
(PID.TID 0000.0001)  ploadbar=  1.00997771881537E+05
 cg2d: Sum(rhs),rhsMax =  -7.01006303031702E+01  1.87687769329910E+00
(PID.TID 0000.0001)  ploadbar=  1.00996291127142E+05
 cg2d: Sum(rhs),rhsMax =  -6.99749753564353E+01  1.87989598423577E+00
(PID.TID 0000.0001)  ploadbar=  1.00994810372747E+05
 cg2d: Sum(rhs),rhsMax =  -6.98358602676582E+01  1.88333213702790E+00
(PID.TID 0000.0001)  ploadbar=  1.00993329618352E+05
 cg2d: Sum(rhs),rhsMax =  -6.96837468680074E+01  1.88717133599108E+00
(PID.TID 0000.0001)  ploadbar=  1.00991848863956E+05
 cg2d: Sum(rhs),rhsMax =  -6.95226845882518E+01  1.89130972483449E+00
(PID.TID 0000.0001)  ploadbar=  1.00990368109561E+05
 cg2d: Sum(rhs),rhsMax =  -6.92166071296643E+01  1.89947226583213E+00
(PID.TID 0000.0001)  ploadbar=  1.00988887355166E+05
 cg2d: Sum(rhs),rhsMax =  -6.80980504900485E+01  1.93047256786603E+00
(PID.TID 0000.0001)  ploadbar=  1.00989207657328E+05
 cg2d: Sum(rhs),rhsMax =  -6.71111154055131E+01  1.95865690527215E+00
(PID.TID 0000.0001)  ploadbar=  1.00989527959490E+05
 cg2d: Sum(rhs),rhsMax =  -6.62372899312946E+01  1.98428416868449E+00
(PID.TID 0000.0001)  ploadbar=  1.00989848261652E+05
 cg2d: Sum(rhs),rhsMax =  -6.54419550305292E+01  2.00817613281182E+00
(PID.TID 0000.0001)  ploadbar=  1.00990168563814E+05
 cg2d: Sum(rhs),rhsMax =  -6.46946470858624E+01  2.03113028127229E+00
(PID.TID 0000.0001)  ploadbar=  1.00990488865976E+05
 cg2d: Sum(rhs),rhsMax =  -6.39808555973156E+01  2.05352573856837E+00
(PID.TID 0000.0001)  ploadbar=  1.00990809168139E+05
 cg2d: Sum(rhs),rhsMax =  -6.32952750822833E+01  2.07553651309617E+00
(PID.TID 0000.0001)  ploadbar=  1.00992174266151E+05
 cg2d: Sum(rhs),rhsMax =  -6.26376364849502E+01  2.09711684238558E+00
(PID.TID 0000.0001)  ploadbar=  1.00993539364164E+05
 cg2d: Sum(rhs),rhsMax =  -6.32726417845318E+01  2.07588495687636E+00
(PID.TID 0000.0001)  ploadbar=  1.00994904462177E+05
 cg2d: Sum(rhs),rhsMax =  -6.39946284059634E+01  2.05230680693545E+00
(PID.TID 0000.0001)  ploadbar=  1.00996269560190E+05
 cg2d: Sum(rhs),rhsMax =  -6.46772807769634E+01  2.03051200325270E+00
(PID.TID 0000.0001)  ploadbar=  1.00997634658203E+05
 cg2d: Sum(rhs),rhsMax =  -6.53149011038648E+01  2.01056253545591E+00
(PID.TID 0000.0001)  ploadbar=  1.00998999756216E+05
 cg2d: Sum(rhs),rhsMax =  -6.58777535251175E+01  1.99321439100782E+00
(PID.TID 0000.0001)  ploadbar=  1.00999999123428E+05
 cg2d: Sum(rhs),rhsMax =  -6.63605866625366E+01  1.97848310906853E+00
(PID.TID 0000.0001)  ploadbar=  1.01000998490639E+05
 cg2d: Sum(rhs),rhsMax =  -6.67620692181851E+01  1.96628731062780E+00
(PID.TID 0000.0001)  ploadbar=  1.01001997857851E+05
 cg2d: Sum(rhs),rhsMax =  -6.66060802179471E+01  1.97051838198760E+00
(PID.TID 0000.0001)  ploadbar=  1.01002997225063E+05
 cg2d: Sum(rhs),rhsMax =  -6.64090278457749E+01  1.97591622166599E+00
(PID.TID 0000.0001)  ploadbar=  1.01003996592274E+05
 cg2d: Sum(rhs),rhsMax =  -6.62063685542711E+01  1.98144127269993E+00
(PID.TID 0000.0001)  ploadbar=  1.01004995959486E+05
 cg2d: Sum(rhs),rhsMax =  -6.60007571104779E+01  1.98718384045865E+00
(PID.TID 0000.0001)  ploadbar=  1.01006140353744E+05
 cg2d: Sum(rhs),rhsMax =  -6.57953263301631E+01  1.99304157625571E+00
(PID.TID 0000.0001)  ploadbar=  1.01007284748002E+05
 cg2d: Sum(rhs),rhsMax =  -6.55938087509202E+01  1.99888848098218E+00
(PID.TID 0000.0001)  ploadbar=  1.01008429142259E+05
 cg2d: Sum(rhs),rhsMax =  -6.54005720123424E+01  2.00458533118930E+00
(PID.TID 0000.0001)  ploadbar=  1.01009573536517E+05
 cg2d: Sum(rhs),rhsMax =  -6.52203149040365E+01  2.00997785454472E+00
(PID.TID 0000.0001)  ploadbar=  1.01010717930775E+05
 cg2d: Sum(rhs),rhsMax =  -6.50560239416836E+01  2.01495586330406E+00
(PID.TID 0000.0001)  ploadbar=  1.01011862325033E+05
 cg2d: Sum(rhs),rhsMax =  -6.49046610690209E+01  2.01956639616020E+00
(PID.TID 0000.0001)  ploadbar=  1.01011244883130E+05
 cg2d: Sum(rhs),rhsMax =  -6.47663526400059E+01  2.02379124249943E+00
(PID.TID 0000.0001)  ploadbar=  1.01010627441227E+05
 cg2d: Sum(rhs),rhsMax =  -6.46420487438627E+01  2.02759151195610E+00
(PID.TID 0000.0001)  ploadbar=  1.01010009999324E+05
 cg2d: Sum(rhs),rhsMax =  -6.45307276881136E+01  2.03099136190524E+00
(PID.TID 0000.0001)  ploadbar=  1.01009392557421E+05
 cg2d: Sum(rhs),rhsMax =  -6.44318310349864E+01  2.03400066134808E+00
(PID.TID 0000.0001)  ploadbar=  1.01008775115519E+05
 cg2d: Sum(rhs),rhsMax =  -6.43444806443066E+01  2.03664209826984E+00
(PID.TID 0000.0001)  ploadbar=  1.01008157673616E+05
 cg2d: Sum(rhs),rhsMax =  -6.42695045013689E+01  2.03892889196628E+00
(PID.TID 0000.0001)  ploadbar=  1.01006345825218E+05
 cg2d: Sum(rhs),rhsMax =  -6.42109828395036E+01  2.04072219867551E+00
(PID.TID 0000.0001)  ploadbar=  1.01004533976821E+05
 cg2d: Sum(rhs),rhsMax =  -6.41730450945920E+01  2.04189324067731E+00
(PID.TID 0000.0001)  ploadbar=  1.01002722128423E+05
 cg2d: Sum(rhs),rhsMax =  -6.41601204802585E+01  2.04229935314583E+00
(PID.TID 0000.0001)  ploadbar=  1.01000910280026E+05
 cg2d: Sum(rhs),rhsMax =  -6.41810915267077E+01  2.04165842055849E+00
(PID.TID 0000.0001)  ploadbar=  1.00999098431628E+05
 cg2d: Sum(rhs),rhsMax =  -6.42454107043398E+01  2.03966057189961E+00
(PID.TID 0000.0001)  ploadbar=  1.00997286583231E+05
 cg2d: Sum(rhs),rhsMax =  -6.43526557064500E+01  2.03628511990326E+00
(PID.TID 0000.0001)  ploadbar=  1.00996983162329E+05
 cg2d: Sum(rhs),rhsMax =  -6.45050004282658E+01  2.03145066156423E+00
(PID.TID 0000.0001)  ploadbar=  1.00996679741428E+05
 cg2d: Sum(rhs),rhsMax =  -6.47038446429219E+01  2.02512706419944E+00
(PID.TID 0000.0001)  ploadbar=  1.00996376320527E+05
 cg2d: Sum(rhs),rhsMax =  -6.49455729636541E+01  2.01744974035797E+00
(PID.TID 0000.0001)  ploadbar=  1.00996072899626E+05
 cg2d: Sum(rhs),rhsMax =  -6.52302130884354E+01  2.00844881279783E+00
(PID.TID 0000.0001)  ploadbar=  1.00995769478724E+05
 cg2d: Sum(rhs),rhsMax =  -6.55552626951498E+01  1.99823822196934E+00
(PID.TID 0000.0001)  ploadbar=  1.00995466057823E+05
 cg2d: Sum(rhs),rhsMax =  -6.59277112284693E+01  1.98676619131389E+00
(PID.TID 0000.0001)  ploadbar=  1.00995247959631E+05
 cg2d: Sum(rhs),rhsMax =  -6.63427271510883E+01  1.97421592300074E+00
(PID.TID 0000.0001)  ploadbar=  1.00995029861438E+05
 cg2d: Sum(rhs),rhsMax =  -6.67982070325534E+01  1.96069033985118E+00
(PID.TID 0000.0001)  ploadbar=  1.00994811763245E+05
 cg2d: Sum(rhs),rhsMax =  -6.72911422184459E+01  1.94631563782868E+00
(PID.TID 0000.0001)  ploadbar=  1.00994593665052E+05
 cg2d: Sum(rhs),rhsMax =  -6.78187732191470E+01  1.93120736124540E+00
(PID.TID 0000.0001)  ploadbar=  1.00994375566860E+05
 cg2d: Sum(rhs),rhsMax =  -6.83778557962034E+01  1.91548851470117E+00
(PID.TID 0000.0001)  ploadbar=  1.00994157468667E+05
 cg2d: Sum(rhs),rhsMax =  -6.89747090967278E+01  1.89899241348507E+00
(PID.TID 0000.0001)  ploadbar=  1.00993954577115E+05
 cg2d: Sum(rhs),rhsMax =  -6.95913940985063E+01  1.88223876637954E+00
(PID.TID 0000.0001)  ploadbar=  1.00993751685563E+05
 cg2d: Sum(rhs),rhsMax =  -7.02211247017080E+01  1.86542311345039E+00
(PID.TID 0000.0001)  ploadbar=  1.00993548794011E+05
 cg2d: Sum(rhs),rhsMax =  -7.08611110001217E+01  1.84862426344645E+00
(PID.TID 0000.0001)  ploadbar=  1.00993345902459E+05
 cg2d: Sum(rhs),rhsMax =  -7.15070211992480E+01  1.83195742132658E+00
(PID.TID 0000.0001)  ploadbar=  1.00993143010906E+05
 cg2d: Sum(rhs),rhsMax =  -7.21537867541297E+01  1.81554783992999E+00
(PID.TID 0000.0001)  ploadbar=  1.00992940119354E+05
 cg2d: Sum(rhs),rhsMax =  -7.28002842535232E+01  1.79942798503459E+00
(PID.TID 0000.0001)  ploadbar=  1.00992334851651E+05
 cg2d: Sum(rhs),rhsMax =  -7.34387507162273E+01  1.78377720548292E+00
(PID.TID 0000.0001)  ploadbar=  1.00991729583948E+05
 cg2d: Sum(rhs),rhsMax =  -7.40676772293958E+01  1.76861640414022E+00
(PID.TID 0000.0001)  ploadbar=  1.00991124316245E+05
 cg2d: Sum(rhs),rhsMax =  -7.46875753218004E+01  1.75391527886618E+00
(PID.TID 0000.0001)  ploadbar=  1.00990519048542E+05
 cg2d: Sum(rhs),rhsMax =  -7.52955888767511E+01  1.73972270258109E+00
(PID.TID 0000.0001)  ploadbar=  1.00989913780839E+05
 cg2d: Sum(rhs),rhsMax =  -7.58883645933510E+01  1.72608809648563E+00
(PID.TID 0000.0001)  ploadbar=  1.00989308513136E+05
 cg2d: Sum(rhs),rhsMax =  -7.64610866827264E+01  1.71311294854187E+00
(PID.TID 0000.0001)  ploadbar=  1.00989272018610E+05
 cg2d: Sum(rhs),rhsMax =  -7.70116311596032E+01  1.70080465469940E+00
(PID.TID 0000.0001)  ploadbar=  1.00989235524085E+05
 cg2d: Sum(rhs),rhsMax =  -7.75336053258002E+01  1.68927254051457E+00
(PID.TID 0000.0001)  ploadbar=  1.00989199029560E+05
 cg2d: Sum(rhs),rhsMax =  -7.80219108185918E+01  1.67859578955960E+00
(PID.TID 0000.0001)  ploadbar=  1.00989162535034E+05
 cg2d: Sum(rhs),rhsMax =  -7.84743281331341E+01  1.66879171958798E+00
(PID.TID 0000.0001)  ploadbar=  1.00989126040509E+05
 cg2d: Sum(rhs),rhsMax =  -7.88817172062421E+01  1.66002343394979E+00
(PID.TID 0000.0001)  ploadbar=  1.00989089545984E+05
 cg2d: Sum(rhs),rhsMax =  -7.92373157482975E+01  1.65248589650658E+00
(PID.TID 0000.0001)  ploadbar=  1.00988224813453E+05
 cg2d: Sum(rhs),rhsMax =  -7.95408647753151E+01  1.64614585564407E+00
(PID.TID 0000.0001)  ploadbar=  1.00987360080921E+05
 cg2d: Sum(rhs),rhsMax =  -7.97841487209141E+01  1.64114457540875E+00
(PID.TID 0000.0001)  ploadbar=  1.00986495348390E+05
 cg2d: Sum(rhs),rhsMax =  -7.99469712783437E+01  1.63786679858980E+00
(PID.TID 0000.0001)  ploadbar=  1.00985630615859E+05
 cg2d: Sum(rhs),rhsMax =  -8.00513843355920E+01  1.63583644322996E+00
(PID.TID 0000.0001)  ploadbar=  1.00984765883328E+05
 cg2d: Sum(rhs),rhsMax =  -8.01349941852880E+01  1.63427186798276E+00
(PID.TID 0000.0001)  ploadbar=  1.00983901150796E+05
 cg2d: Sum(rhs),rhsMax =  -8.02488761204971E+01  1.63208618909145E+00
(PID.TID 0000.0001)  ploadbar=  1.00983872117493E+05
 cg2d: Sum(rhs),rhsMax =  -8.03864333034116E+01  1.62940750175661E+00
(PID.TID 0000.0001)  ploadbar=  1.00983843084190E+05
 cg2d: Sum(rhs),rhsMax =  -8.05348084281889E+01  1.62649612562371E+00
(PID.TID 0000.0001)  ploadbar=  1.00983814050886E+05
 cg2d: Sum(rhs),rhsMax =  -8.06808516340196E+01  1.62361230396496E+00
(PID.TID 0000.0001)  ploadbar=  1.00983785017583E+05
 cg2d: Sum(rhs),rhsMax =  -8.08138356365284E+01  1.62096806408198E+00
(PID.TID 0000.0001)  ploadbar=  1.00983755984280E+05
 cg2d: Sum(rhs),rhsMax =  -8.09343315620351E+01  1.61854795659042E+00
(PID.TID 0000.0001)  ploadbar=  1.00983726950976E+05
 cg2d: Sum(rhs),rhsMax =  -8.10360809450025E+01  1.61649574307154E+00
(PID.TID 0000.0001)  ploadbar=  1.00984890889295E+05
 cg2d: Sum(rhs),rhsMax =  -8.11406106307530E+01  1.61437788242312E+00
(PID.TID 0000.0001)  ploadbar=  1.00986054827614E+05
 cg2d: Sum(rhs),rhsMax =  -8.12560923252325E+01  1.61203158397021E+00
(PID.TID 0000.0001)  ploadbar=  1.00987218765933E+05
 cg2d: Sum(rhs),rhsMax =  -8.13903497100488E+01  1.60930595885698E+00
(PID.TID 0000.0001)  ploadbar=  1.00988382704253E+05
 cg2d: Sum(rhs),rhsMax =  -8.15426366876283E+01  1.60621816803861E+00
(PID.TID 0000.0001)  ploadbar=  1.00989546642572E+05
 cg2d: Sum(rhs),rhsMax =  -8.17129943906963E+01  1.60276462394742E+00
(PID.TID 0000.0001)  ploadbar=  1.00990710580891E+05
 cg2d: Sum(rhs),rhsMax =  -8.18860204728554E+01  1.59924026401490E+00
(PID.TID 0000.0001)  ploadbar=  1.00991289663177E+05
 cg2d: Sum(rhs),rhsMax =  -8.20750113312310E+01  1.59537724228847E+00
(PID.TID 0000.0001)  ploadbar=  1.00991868745462E+05
 cg2d: Sum(rhs),rhsMax =  -8.22792032714559E+01  1.59119130235657E+00
(PID.TID 0000.0001)  ploadbar=  1.00992447827748E+05
 cg2d: Sum(rhs),rhsMax =  -8.24971784912052E+01  1.58671236051243E+00
(PID.TID 0000.0001)  ploadbar=  1.00993026910034E+05
 cg2d: Sum(rhs),rhsMax =  -8.27293003788852E+01  1.58193785058156E+00
(PID.TID 0000.0001)  ploadbar=  1.00993605992320E+05
 cg2d: Sum(rhs),rhsMax =  -8.29759169555012E+01  1.57686504810601E+00
(PID.TID 0000.0001)  ploadbar=  1.00994185074606E+05
 cg2d: Sum(rhs),rhsMax =  -8.25587750830056E+01  1.58451563267906E+00
(PID.TID 0000.0001)  ploadbar=  1.00993922201213E+05
 cg2d: Sum(rhs),rhsMax =  -8.19126757625852E+01  1.59674035647550E+00
(PID.TID 0000.0001)  ploadbar=  1.00993659327820E+05
 cg2d: Sum(rhs),rhsMax =  -8.13012650027993E+01  1.60851433274717E+00
(PID.TID 0000.0001)  ploadbar=  1.00993396454427E+05
 cg2d: Sum(rhs),rhsMax =  -8.07543264344140E+01  1.61921047083123E+00
(PID.TID 0000.0001)  ploadbar=  1.00993133581034E+05
 cg2d: Sum(rhs),rhsMax =  -8.02426299630972E+01  1.62937221687548E+00
(PID.TID 0000.0001)  ploadbar=  1.00992870707642E+05
 cg2d: Sum(rhs),rhsMax =  -7.97812669159263E+01  1.63866210168849E+00
(PID.TID 0000.0001)  ploadbar=  1.00992607834249E+05
 cg2d: Sum(rhs),rhsMax =  -7.95246261359076E+01  1.64383597957291E+00
(PID.TID 0000.0001)  ploadbar=  1.00992211597366E+05
 cg2d: Sum(rhs),rhsMax =  -8.02370160014443E+01  1.62913617893456E+00
(PID.TID 0000.0001)  ploadbar=  1.00991815360483E+05
 cg2d: Sum(rhs),rhsMax =  -8.09151940351636E+01  1.61538057203768E+00
(PID.TID 0000.0001)  ploadbar=  1.00991419123601E+05
 cg2d: Sum(rhs),rhsMax =  -8.15438378101827E+01  1.60282133843812E+00
(PID.TID 0000.0001)  ploadbar=  1.00991022886718E+05
 cg2d: Sum(rhs),rhsMax =  -8.21197509509318E+01  1.59146823005998E+00
(PID.TID 0000.0001)  ploadbar=  1.00990626649835E+05
 cg2d: Sum(rhs),rhsMax =  -8.26437330075133E+01  1.58125581056177E+00
(PID.TID 0000.0001)  ploadbar=  1.00990230412953E+05
 cg2d: Sum(rhs),rhsMax =  -8.28195041033192E+01  1.57777830554960E+00
(PID.TID 0000.0001)  ploadbar=  1.00990177984827E+05
 cg2d: Sum(rhs),rhsMax =  -8.24428092227562E+01  1.58486238316718E+00
(PID.TID 0000.0001)  ploadbar=  1.00990125556702E+05
 cg2d: Sum(rhs),rhsMax =  -8.20830522045479E+01  1.59168002274468E+00
(PID.TID 0000.0001)  ploadbar=  1.00990073128576E+05
 cg2d: Sum(rhs),rhsMax =  -8.17341849494523E+01  1.59834286536117E+00
(PID.TID 0000.0001)  ploadbar=  1.00990020700451E+05
 cg2d: Sum(rhs),rhsMax =  -8.13041325596932E+01  1.60666393091599E+00
(PID.TID 0000.0001)  ploadbar=  1.00989968272325E+05
 cg2d: Sum(rhs),rhsMax =  -8.08132641408397E+01  1.61627522825081E+00
(PID.TID 0000.0001)  ploadbar=  1.00989915844199E+05
 cg2d: Sum(rhs),rhsMax =  -8.02248142925111E+01  1.62796044204729E+00
(PID.TID 0000.0001)  ploadbar=  1.00989871770013E+05
 cg2d: Sum(rhs),rhsMax =  -7.95664184319470E+01  1.64122474728757E+00
(PID.TID 0000.0001)  ploadbar=  1.00989827695827E+05
 cg2d: Sum(rhs),rhsMax =  -7.88877698958020E+01  1.65509340468434E+00
(PID.TID 0000.0001)  ploadbar=  1.00989783621641E+05
 cg2d: Sum(rhs),rhsMax =  -7.82128044774226E+01  1.66907915321083E+00
(PID.TID 0000.0001)  ploadbar=  1.00989739547455E+05
 cg2d: Sum(rhs),rhsMax =  -7.75503346616710E+01  1.68299211380878E+00
(PID.TID 0000.0001)  ploadbar=  1.00989695473269E+05
 cg2d: Sum(rhs),rhsMax =  -7.69004595245890E+01  1.69681956309563E+00
(PID.TID 0000.0001)  ploadbar=  1.00989651399083E+05
 cg2d: Sum(rhs),rhsMax =  -7.62282936105472E+01  1.71145121077765E+00
(PID.TID 0000.0001)  ploadbar=  1.00990343950964E+05
 cg2d: Sum(rhs),rhsMax =  -7.55341599797729E+01  1.72690463094774E+00
(PID.TID 0000.0001)  ploadbar=  1.00991036502845E+05
 cg2d: Sum(rhs),rhsMax =  -7.48762707926944E+01  1.74185136276882E+00
(PID.TID 0000.0001)  ploadbar=  1.00991729054727E+05
 cg2d: Sum(rhs),rhsMax =  -7.42994156673952E+01  1.75519635882529E+00
(PID.TID 0000.0001)  ploadbar=  1.00992421606608E+05
 cg2d: Sum(rhs),rhsMax =  -7.37698390913281E+01  1.76766370379570E+00
(PID.TID 0000.0001)  ploadbar=  1.00993114158490E+05
 cg2d: Sum(rhs),rhsMax =  -7.32853910061625E+01  1.77926100165694E+00
(PID.TID 0000.0001)  ploadbar=  1.00993806710371E+05
 cg2d: Sum(rhs),rhsMax =  -7.28190943200451E+01  1.79056772945688E+00
(PID.TID 0000.0001)  ploadbar=  1.00993974132819E+05
 cg2d: Sum(rhs),rhsMax =  -7.23756811528313E+01  1.80144165712481E+00
(PID.TID 0000.0001)  ploadbar=  1.00994141555266E+05
 cg2d: Sum(rhs),rhsMax =  -7.19510022083441E+01  1.81196068732999E+00
(PID.TID 0000.0001)  ploadbar=  1.00994308977713E+05
 cg2d: Sum(rhs),rhsMax =  -7.15545743666729E+01  1.82186302147092E+00
(PID.TID 0000.0001)  ploadbar=  1.00994476400160E+05
 cg2d: Sum(rhs),rhsMax =  -7.11942127742418E+01  1.83092352097375E+00
(PID.TID 0000.0001)  ploadbar=  1.00994643822607E+05
 cg2d: Sum(rhs),rhsMax =  -7.08715802306111E+01  1.83906822866988E+00
(PID.TID 0000.0001)  ploadbar=  1.00994811245054E+05
 cg2d: Sum(rhs),rhsMax =  -7.06407097746973E+01  1.84490443203812E+00
(PID.TID 0000.0001)  ploadbar=  1.00994396571588E+05
 cg2d: Sum(rhs),rhsMax =  -7.04377040555367E+01  1.85005766854741E+00
(PID.TID 0000.0001)  ploadbar=  1.00993981898121E+05
 cg2d: Sum(rhs),rhsMax =  -7.02389149070301E+01  1.85514305260075E+00
(PID.TID 0000.0001)  ploadbar=  1.00993567224655E+05
 cg2d: Sum(rhs),rhsMax =  -7.00404609316642E+01  1.86026496306679E+00
(PID.TID 0000.0001)  ploadbar=  1.00993152551188E+05
 cg2d: Sum(rhs),rhsMax =  -6.98499727730634E+01  1.86521765153417E+00
(PID.TID 0000.0001)  ploadbar=  1.00992737877722E+05
 cg2d: Sum(rhs),rhsMax =  -6.96695687652066E+01  1.86992820541151E+00
(PID.TID 0000.0001)  ploadbar=  1.00992323204255E+05
 cg2d: Sum(rhs),rhsMax =  -6.95353061966089E+01  1.87338694904432E+00
(PID.TID 0000.0001)  ploadbar=  1.00992226021891E+05
 cg2d: Sum(rhs),rhsMax =  -6.93975558692787E+01  1.87690973186662E+00
(PID.TID 0000.0001)  ploadbar=  1.00992128839527E+05
 cg2d: Sum(rhs),rhsMax =  -6.92522622397189E+01  1.88060040267454E+00
(PID.TID 0000.0001)  ploadbar=  1.00992031657162E+05
 cg2d: Sum(rhs),rhsMax =  -6.90987418666413E+01  1.88447708253996E+00
(PID.TID 0000.0001)  ploadbar=  1.00991934474798E+05
 cg2d: Sum(rhs),rhsMax =  -6.89334765575571E+01  1.88863991247656E+00
(PID.TID 0000.0001)  ploadbar=  1.00991837292434E+05
 cg2d: Sum(rhs),rhsMax =  -6.87504249659836E+01  1.89325937145044E+00
(PID.TID 0000.0001)  ploadbar=  1.00991740110070E+05
 cg2d: Sum(rhs),rhsMax =  -6.84260085042030E+01  1.90188271544361E+00
(PID.TID 0000.0001)  ploadbar=  1.00992007063185E+05
 cg2d: Sum(rhs),rhsMax =  -6.80481386259952E+01  1.91213883852823E+00
(PID.TID 0000.0001)  ploadbar=  1.00992274016301E+05
 cg2d: Sum(rhs),rhsMax =  -6.76301269426094E+01  1.92368879608593E+00
(PID.TID 0000.0001)  ploadbar=  1.00992540969416E+05
 cg2d: Sum(rhs),rhsMax =  -6.71665451714615E+01  1.93673281933627E+00
(PID.TID 0000.0001)  ploadbar=  1.00992807922532E+05
 cg2d: Sum(rhs),rhsMax =  -6.66680377776866E+01  1.95101270621893E+00
(PID.TID 0000.0001)  ploadbar=  1.00993074875647E+05
 cg2d: Sum(rhs),rhsMax =  -6.61420000908103E+01  1.96635092942002E+00
(PID.TID 0000.0001)  ploadbar=  1.00993341828763E+05
 cg2d: Sum(rhs),rhsMax =  -6.56272156618476E+01  1.98163914599128E+00
(PID.TID 0000.0001)  ploadbar=  1.00994162665768E+05
 cg2d: Sum(rhs),rhsMax =  -6.51303058607489E+01  1.99665627684376E+00
(PID.TID 0000.0001)  ploadbar=  1.00994983502774E+05
 cg2d: Sum(rhs),rhsMax =  -6.46452838787627E+01  2.01156523995118E+00
(PID.TID 0000.0001)  ploadbar=  1.00995804339779E+05
 cg2d: Sum(rhs),rhsMax =  -6.41636363087646E+01  2.02661748107173E+00
(PID.TID 0000.0001)  ploadbar=  1.00996625176785E+05
 cg2d: Sum(rhs),rhsMax =  -6.36832536408275E+01  2.04187836915960E+00
(PID.TID 0000.0001)  ploadbar=  1.00997446013790E+05
 cg2d: Sum(rhs),rhsMax =  -6.32057229934216E+01  2.05729865050730E+00
(PID.TID 0000.0001)  ploadbar=  1.00998266850796E+05
 cg2d: Sum(rhs),rhsMax =  -6.28060651536577E+01  2.07039128292500E+00
(PID.TID 0000.0001)  ploadbar=  1.00998052347642E+05
 cg2d: Sum(rhs),rhsMax =  -6.24294308365259E+01  2.08288495839398E+00
(PID.TID 0000.0001)  ploadbar=  1.00997837844488E+05
 cg2d: Sum(rhs),rhsMax =  -6.20667169252632E+01  2.09506250390952E+00
(PID.TID 0000.0001)  ploadbar=  1.00997623341335E+05
 cg2d: Sum(rhs),rhsMax =  -6.17260458625225E+01  2.10663454987040E+00
(PID.TID 0000.0001)  ploadbar=  1.00997408838181E+05
 cg2d: Sum(rhs),rhsMax =  -6.14009478251357E+01  2.11780100633190E+00
(PID.TID 0000.0001)  ploadbar=  1.00997194335028E+05
 cg2d: Sum(rhs),rhsMax =  -6.10832452292019E+01  2.12881974539262E+00
(PID.TID 0000.0001)  ploadbar=  1.00996979831874E+05
 cg2d: Sum(rhs),rhsMax =  -6.07925887699032E+01  2.13893070207735E+00
(PID.TID 0000.0001)  ploadbar=  1.00996810787744E+05
 cg2d: Sum(rhs),rhsMax =  -6.05173133960145E+01  2.14850855951732E+00
(PID.TID 0000.0001)  ploadbar=  1.00996641743615E+05
 cg2d: Sum(rhs),rhsMax =  -6.02492823862811E+01  2.15782284964980E+00
(PID.TID 0000.0001)  ploadbar=  1.00996472699486E+05
 cg2d: Sum(rhs),rhsMax =  -5.99922485502026E+01  2.16673129414289E+00
(PID.TID 0000.0001)  ploadbar=  1.00996303655356E+05
 cg2d: Sum(rhs),rhsMax =  -5.97625612134731E+01  2.17462897135600E+00
(PID.TID 0000.0001)  ploadbar=  1.00996134611227E+05
 cg2d: Sum(rhs),rhsMax =  -5.95685301634872E+01  2.18119057837572E+00
(PID.TID 0000.0001)  ploadbar=  1.00995965567097E+05
 cg2d: Sum(rhs),rhsMax =  -5.94014459643188E+01  2.18689265111203E+00
(PID.TID 0000.0001)  ploadbar=  1.00995438180366E+05
 cg2d: Sum(rhs),rhsMax =  -5.92692376859984E+01  2.19141784585888E+00
(PID.TID 0000.0001)  ploadbar=  1.00994910793635E+05
 cg2d: Sum(rhs),rhsMax =  -5.91672486258021E+01  2.19490924482840E+00
(PID.TID 0000.0001)  ploadbar=  1.00994383406904E+05
 cg2d: Sum(rhs),rhsMax =  -5.90889389699008E+01  2.19759439839712E+00
(PID.TID 0000.0001)  ploadbar=  1.00993856020173E+05
 cg2d: Sum(rhs),rhsMax =  -5.90312526717610E+01  2.19957011227252E+00
(PID.TID 0000.0001)  ploadbar=  1.00993328633442E+05
 cg2d: Sum(rhs),rhsMax =  -5.89826900247429E+01  2.20125337380200E+00
(PID.TID 0000.0001)  ploadbar=  1.00992801246711E+05
 cg2d: Sum(rhs),rhsMax =  -5.89520760790661E+01  2.20224459210772E+00
(PID.TID 0000.0001)  ploadbar=  1.00992693510521E+05
 cg2d: Sum(rhs),rhsMax =  -5.89752572929731E+01  2.20119416517340E+00
(PID.TID 0000.0001)  ploadbar=  1.00992585774331E+05
 cg2d: Sum(rhs),rhsMax =  -5.90850890280365E+01  2.19687758401803E+00
(PID.TID 0000.0001)  ploadbar=  1.00992478038141E+05
 cg2d: Sum(rhs),rhsMax =  -5.92858476210863E+01  2.18916724919347E+00
(PID.TID 0000.0001)  ploadbar=  1.00992370301951E+05
 cg2d: Sum(rhs),rhsMax =  -5.95901381526009E+01  2.17766752787636E+00
(PID.TID 0000.0001)  ploadbar=  1.00992262565761E+05
 cg2d: Sum(rhs),rhsMax =  -5.99319533737874E+01  2.16487353357151E+00
(PID.TID 0000.0001)  ploadbar=  1.00992154829571E+05
 cg2d: Sum(rhs),rhsMax =  -6.02247452203992E+01  2.15399033051745E+00
(PID.TID 0000.0001)  ploadbar=  1.00992800108265E+05
 cg2d: Sum(rhs),rhsMax =  -6.04859571126675E+01  2.14433400105207E+00
(PID.TID 0000.0001)  ploadbar=  1.00993445386958E+05
 cg2d: Sum(rhs),rhsMax =  -6.07468501215138E+01  2.13477424408018E+00
(PID.TID 0000.0001)  ploadbar=  1.00994090665651E+05
 cg2d: Sum(rhs),rhsMax =  -6.10213212935519E+01  2.12482824236720E+00
(PID.TID 0000.0001)  ploadbar=  1.00994735944345E+05
 cg2d: Sum(rhs),rhsMax =  -6.13069446512343E+01  2.11459207916794E+00
(PID.TID 0000.0001)  ploadbar=  1.00995381223038E+05
 cg2d: Sum(rhs),rhsMax =  -6.15988302591213E+01  2.10423052843169E+00
(PID.TID 0000.0001)  ploadbar=  1.00996026501732E+05
 cg2d: Sum(rhs),rhsMax =  -6.18421750295513E+01  2.09558083673728E+00
(PID.TID 0000.0001)  ploadbar=  1.00996948799872E+05
 cg2d: Sum(rhs),rhsMax =  -6.20574755058057E+01  2.08789981080835E+00
(PID.TID 0000.0001)  ploadbar=  1.00997871098013E+05
 cg2d: Sum(rhs),rhsMax =  -6.22364977405422E+01  2.08143212889097E+00
(PID.TID 0000.0001)  ploadbar=  1.00998793396154E+05
 cg2d: Sum(rhs),rhsMax =  -6.23685813024228E+01  2.07650922460847E+00
(PID.TID 0000.0001)  ploadbar=  1.00999715694295E+05
 cg2d: Sum(rhs),rhsMax =  -6.24484045847555E+01  2.07328506488567E+00
(PID.TID 0000.0001)  ploadbar=  1.01000637992436E+05
 cg2d: Sum(rhs),rhsMax =  -6.24771743215551E+01  2.07170247479928E+00
(PID.TID 0000.0001)  ploadbar=  1.01001560290577E+05
 cg2d: Sum(rhs),rhsMax =  -6.24491539956947E+01  2.07208529766123E+00
(PID.TID 0000.0001)  ploadbar=  1.01001300761395E+05
 cg2d: Sum(rhs),rhsMax =  -6.24151039469333E+01  2.07274125788488E+00
(PID.TID 0000.0001)  ploadbar=  1.01001041232213E+05
 cg2d: Sum(rhs),rhsMax =  -6.23837783003785E+01  2.07336876845237E+00
(PID.TID 0000.0001)  ploadbar=  1.01000781703031E+05
 cg2d: Sum(rhs),rhsMax =  -6.23605236049817E+01  2.07378529586865E+00
(PID.TID 0000.0001)  ploadbar=  1.01000522173850E+05
 cg2d: Sum(rhs),rhsMax =  -6.23304047784147E+01  2.07448202032264E+00
(PID.TID 0000.0001)  ploadbar=  1.01000262644668E+05
 cg2d: Sum(rhs),rhsMax =  -6.23115898762700E+01  2.07484824400097E+00
(PID.TID 0000.0001)  ploadbar=  1.01000003115486E+05
 cg2d: Sum(rhs),rhsMax =  -6.23778342761054E+01  2.07237872926432E+00
(PID.TID 0000.0001)  ploadbar=  1.00999864777989E+05
 cg2d: Sum(rhs),rhsMax =  -6.24158006276794E+01  2.07083452795791E+00
(PID.TID 0000.0001)  ploadbar=  1.00999726440492E+05
 cg2d: Sum(rhs),rhsMax =  -6.24144607978068E+01  2.07057283741740E+00
(PID.TID 0000.0001)  ploadbar=  1.00999588102995E+05
 cg2d: Sum(rhs),rhsMax =  -6.23672006244666E+01  2.07181034821888E+00
(PID.TID 0000.0001)  ploadbar=  1.00999449765498E+05
 cg2d: Sum(rhs),rhsMax =  -6.22800001040933E+01  2.07434924055463E+00
(PID.TID 0000.0001)  ploadbar=  1.00999311428001E+05
 cg2d: Sum(rhs),rhsMax =  -6.21653068629806E+01  2.07778322988562E+00
(PID.TID 0000.0001)  ploadbar=  1.00999173090504E+05
 cg2d: Sum(rhs),rhsMax =  -6.20266924997110E+01  2.08205500272706E+00
(PID.TID 0000.0001)  ploadbar=  1.00998553357735E+05
 cg2d: Sum(rhs),rhsMax =  -6.18903495436040E+01  2.08628529960305E+00
(PID.TID 0000.0001)  ploadbar=  1.00997933624966E+05
 cg2d: Sum(rhs),rhsMax =  -6.17641526875593E+01  2.09020768687601E+00
(PID.TID 0000.0001)  ploadbar=  1.00997313892197E+05
 cg2d: Sum(rhs),rhsMax =  -6.16654805036079E+01  2.09323078391289E+00
(PID.TID 0000.0001)  ploadbar=  1.00996694159428E+05
 cg2d: Sum(rhs),rhsMax =  -6.16018900609972E+01  2.09508829364022E+00
(PID.TID 0000.0001)  ploadbar=  1.00996074426660E+05
 cg2d: Sum(rhs),rhsMax =  -6.15695866232885E+01  2.09589071440930E+00
(PID.TID 0000.0001)  ploadbar=  1.00995454693891E+05
 cg2d: Sum(rhs),rhsMax =  -6.15336045123722E+01  2.09675634968542E+00
(PID.TID 0000.0001)  ploadbar=  1.00994998502890E+05
 cg2d: Sum(rhs),rhsMax =  -6.14784971387551E+01  2.09820330795758E+00
(PID.TID 0000.0001)  ploadbar=  1.00994542311888E+05
 cg2d: Sum(rhs),rhsMax =  -6.14157324423873E+01  2.09983248399208E+00
(PID.TID 0000.0001)  ploadbar=  1.00994086120887E+05
 cg2d: Sum(rhs),rhsMax =  -6.13374818737918E+01  2.10191178612556E+00
(PID.TID 0000.0001)  ploadbar=  1.00993629929886E+05
 cg2d: Sum(rhs),rhsMax =  -6.12389945638132E+01  2.10460685490350E+00
(PID.TID 0000.0001)  ploadbar=  1.00993173738884E+05
 cg2d: Sum(rhs),rhsMax =  -6.11195290077733E+01  2.10794711075279E+00
(PID.TID 0000.0001)  ploadbar=  1.00992717547883E+05
 cg2d: Sum(rhs),rhsMax =  -6.09755479748382E+01  2.11220103351995E+00
(PID.TID 0000.0001)  ploadbar=  1.00992520407602E+05
 cg2d: Sum(rhs),rhsMax =  -6.08114205992947E+01  2.11721924942054E+00
(PID.TID 0000.0001)  ploadbar=  1.00992323267320E+05
 cg2d: Sum(rhs),rhsMax =  -6.06321600523873E+01  2.12282556229897E+00
(PID.TID 0000.0001)  ploadbar=  1.00992126127039E+05
 cg2d: Sum(rhs),rhsMax =  -6.04466419714679E+01  2.12871086847603E+00
(PID.TID 0000.0001)  ploadbar=  1.00991928986757E+05
 cg2d: Sum(rhs),rhsMax =  -6.02620062922185E+01  2.13462354679736E+00
(PID.TID 0000.0001)  ploadbar=  1.00991731846476E+05
 cg2d: Sum(rhs),rhsMax =  -6.00780203077554E+01  2.14057418728526E+00
(PID.TID 0000.0001)  ploadbar=  1.00991534706194E+05
 cg2d: Sum(rhs),rhsMax =  -5.98954954983174E+01  2.14651080825480E+00
(PID.TID 0000.0001)  ploadbar=  1.00990988785072E+05
 cg2d: Sum(rhs),rhsMax =  -5.97313273247006E+01  2.15181478576360E+00
(PID.TID 0000.0001)  ploadbar=  1.00990442863951E+05
 cg2d: Sum(rhs),rhsMax =  -5.95878406939621E+01  2.15638991123384E+00
(PID.TID 0000.0001)  ploadbar=  1.00989896942829E+05
 cg2d: Sum(rhs),rhsMax =  -5.94625436035256E+01  2.16031111772587E+00
(PID.TID 0000.0001)  ploadbar=  1.00989351021708E+05
 cg2d: Sum(rhs),rhsMax =  -5.97842749346639E+01  2.14804675646347E+00
(PID.TID 0000.0001)  ploadbar=  1.00988805100586E+05
 cg2d: Sum(rhs),rhsMax =  -6.01439335563789E+01  2.13454358182953E+00
(PID.TID 0000.0001)  ploadbar=  1.00988259179464E+05
 cg2d: Sum(rhs),rhsMax =  -6.04793131229164E+01  2.12209171013498E+00
(PID.TID 0000.0001)  ploadbar=  1.00989397565481E+05
 cg2d: Sum(rhs),rhsMax =  -6.07910403756919E+01  2.11063065290580E+00
(PID.TID 0000.0001)  ploadbar=  1.00990535951497E+05
 cg2d: Sum(rhs),rhsMax =  -6.10790551861355E+01  2.10013495235006E+00
(PID.TID 0000.0001)  ploadbar=  1.00991674337513E+05
 cg2d: Sum(rhs),rhsMax =  -6.13426805920373E+01  2.09060234719165E+00
(PID.TID 0000.0001)  ploadbar=  1.00992812723530E+05
 cg2d: Sum(rhs),rhsMax =  -6.15919479860877E+01  2.08166797077051E+00
(PID.TID 0000.0001)  ploadbar=  1.00993951109546E+05
 cg2d: Sum(rhs),rhsMax =  -6.18187082409253E+01  2.07358136049743E+00
(PID.TID 0000.0001)  ploadbar=  1.00995089495562E+05
 cg2d: Sum(rhs),rhsMax =  -6.20424493169777E+01  2.06557989328293E+00
(PID.TID 0000.0001)  ploadbar=  1.00995483639019E+05
 cg2d: Sum(rhs),rhsMax =  -6.23127182565860E+01  2.05601494572203E+00
(PID.TID 0000.0001)  ploadbar=  1.00995877782476E+05
 cg2d: Sum(rhs),rhsMax =  -6.25459968048090E+01  2.04765014268602E+00
(PID.TID 0000.0001)  ploadbar=  1.00996271925933E+05
 cg2d: Sum(rhs),rhsMax =  -6.27497578512966E+01  2.04021145053960E+00
(PID.TID 0000.0001)  ploadbar=  1.00996666069390E+05
 cg2d: Sum(rhs),rhsMax =  -6.29231353298819E+01  2.03370449387634E+00
(PID.TID 0000.0001)  ploadbar=  1.00997060212847E+05
 cg2d: Sum(rhs),rhsMax =  -6.30674316712580E+01  2.02806612346046E+00
(PID.TID 0000.0001)  ploadbar=  1.00997454356304E+05
 cg2d: Sum(rhs),rhsMax =  -6.32275412686481E+01  2.02203379377641E+00
(PID.TID 0000.0001)  ploadbar=  1.00997623281568E+05
 cg2d: Sum(rhs),rhsMax =  -6.35236944559055E+01  2.01179327200823E+00
(PID.TID 0000.0001)  ploadbar=  1.00997792206832E+05
 cg2d: Sum(rhs),rhsMax =  -6.38617917702947E+01  2.00040060750644E+00
(PID.TID 0000.0001)  ploadbar=  1.00997961132095E+05
 cg2d: Sum(rhs),rhsMax =  -6.41883597811378E+01  1.98954628917775E+00
(PID.TID 0000.0001)  ploadbar=  1.00998130057359E+05
 cg2d: Sum(rhs),rhsMax =  -6.45172756055016E+01  1.97878632031296E+00
(PID.TID 0000.0001)  ploadbar=  1.00998298982622E+05
 cg2d: Sum(rhs),rhsMax =  -6.49299196666505E+01  1.96565420801764E+00
(PID.TID 0000.0001)  ploadbar=  1.00998467907886E+05
 cg2d: Sum(rhs),rhsMax =  -6.53505477745925E+01  1.95245499290119E+00
(PID.TID 0000.0001)  ploadbar=  1.00998202230008E+05
 cg2d: Sum(rhs),rhsMax =  -6.57724343018920E+01  1.93938444684635E+00
(PID.TID 0000.0001)  ploadbar=  1.00997936552131E+05
 cg2d: Sum(rhs),rhsMax =  -6.61957774200140E+01  1.92642879552818E+00
(PID.TID 0000.0001)  ploadbar=  1.00997670874253E+05
 cg2d: Sum(rhs),rhsMax =  -6.66145026073418E+01  1.91375380138062E+00
(PID.TID 0000.0001)  ploadbar=  1.00997405196376E+05
 cg2d: Sum(rhs),rhsMax =  -6.70304977749338E+01  1.90128889259782E+00
(PID.TID 0000.0001)  ploadbar=  1.00997139518498E+05
 cg2d: Sum(rhs),rhsMax =  -6.74511941415521E+01  1.88881604862884E+00
(PID.TID 0000.0001)  ploadbar=  1.00996873840621E+05
 cg2d: Sum(rhs),rhsMax =  -6.78908992979613E+01  1.87600463644059E+00
(PID.TID 0000.0001)  ploadbar=  1.00997617709915E+05
 cg2d: Sum(rhs),rhsMax =  -6.83024248134835E+01  1.86415464215629E+00
(PID.TID 0000.0001)  ploadbar=  1.00998361579209E+05
 cg2d: Sum(rhs),rhsMax =  -6.86752598586158E+01  1.85351910737101E+00
(PID.TID 0000.0001)  ploadbar=  1.00999105448503E+05
 cg2d: Sum(rhs),rhsMax =  -6.90078986282182E+01  1.84410228366287E+00
(PID.TID 0000.0001)  ploadbar=  1.00999849317798E+05
 cg2d: Sum(rhs),rhsMax =  -6.92987367502528E+01  1.83591255757839E+00
(PID.TID 0000.0001)  ploadbar=  1.01000593187092E+05
 cg2d: Sum(rhs),rhsMax =  -6.95467588592287E+01  1.82893985023108E+00
(PID.TID 0000.0001)  ploadbar=  1.01001337056386E+05
 cg2d: Sum(rhs),rhsMax =  -6.97441977010520E+01  1.82330621750953E+00
(PID.TID 0000.0001)  ploadbar=  1.01002306772762E+05
 cg2d: Sum(rhs),rhsMax =  -7.00381960010383E+01  1.81515723339522E+00
(PID.TID 0000.0001)  ploadbar=  1.01003276489138E+05
 cg2d: Sum(rhs),rhsMax =  -7.03769379389412E+01  1.80587807858792E+00
(PID.TID 0000.0001)  ploadbar=  1.01004246205513E+05
 cg2d: Sum(rhs),rhsMax =  -7.07308445796994E+01  1.79625098187530E+00
(PID.TID 0000.0001)  ploadbar=  1.01005215921889E+05
 cg2d: Sum(rhs),rhsMax =  -7.10921066357078E+01  1.78648100535350E+00
(PID.TID 0000.0001)  ploadbar=  1.01006185638265E+05
 cg2d: Sum(rhs),rhsMax =  -7.14785613263882E+01  1.77612548703262E+00
(PID.TID 0000.0001)  ploadbar=  1.01007155354641E+05
 cg2d: Sum(rhs),rhsMax =  -7.18870347404007E+01  1.76543238216038E+00
(PID.TID 0000.0001)  ploadbar=  1.01006048060565E+05
 cg2d: Sum(rhs),rhsMax =  -7.23050800181007E+01  1.75471264236805E+00
(PID.TID 0000.0001)  ploadbar=  1.01004940766489E+05
 cg2d: Sum(rhs),rhsMax =  -7.27178435924934E+01  1.74432170306911E+00
(PID.TID 0000.0001)  ploadbar=  1.01003833472413E+05
 cg2d: Sum(rhs),rhsMax =  -7.31172792330048E+01  1.73443919248838E+00
(PID.TID 0000.0001)  ploadbar=  1.01002726178337E+05
 cg2d: Sum(rhs),rhsMax =  -7.36106721970926E+01  1.72253453856875E+00
(PID.TID 0000.0001)  ploadbar=  1.01001618884261E+05
 cg2d: Sum(rhs),rhsMax =  -7.41073702638233E+01  1.71077832158284E+00
(PID.TID 0000.0001)  ploadbar=  1.01000511590185E+05
 cg2d: Sum(rhs),rhsMax =  -7.45584761071182E+01  1.70020824538392E+00
(PID.TID 0000.0001)  ploadbar=  1.01000615806465E+05
 cg2d: Sum(rhs),rhsMax =  -7.50038598106856E+01  1.68987586241568E+00
(PID.TID 0000.0001)  ploadbar=  1.01000720022745E+05
 cg2d: Sum(rhs),rhsMax =  -7.54621034552363E+01  1.67935771876223E+00
(PID.TID 0000.0001)  ploadbar=  1.01000824239024E+05
 cg2d: Sum(rhs),rhsMax =  -7.59454299734136E+01  1.66838836413869E+00
(PID.TID 0000.0001)  ploadbar=  1.01000928455304E+05
 cg2d: Sum(rhs),rhsMax =  -7.64610073005232E+01  1.65682067424943E+00
(PID.TID 0000.0001)  ploadbar=  1.01001032671583E+05
 cg2d: Sum(rhs),rhsMax =  -7.70185053802087E+01  1.64447165809692E+00
(PID.TID 0000.0001)  ploadbar=  1.01001136887863E+05
 cg2d: Sum(rhs),rhsMax =  -7.71828820735355E+01  1.64064126739626E+00
(PID.TID 0000.0001)  ploadbar=  1.01001375041207E+05
 cg2d: Sum(rhs),rhsMax =  -7.71227441970821E+01  1.64161573665400E+00
(PID.TID 0000.0001)  ploadbar=  1.01001613194550E+05
 cg2d: Sum(rhs),rhsMax =  -7.71968545609097E+01  1.63975876725226E+00
(PID.TID 0000.0001)  ploadbar=  1.01001851347894E+05
 cg2d: Sum(rhs),rhsMax =  -7.74013588636496E+01  1.63516899054884E+00
(PID.TID 0000.0001)  ploadbar=  1.01002089501238E+05
 cg2d: Sum(rhs),rhsMax =  -7.76634089060613E+01  1.62941155882686E+00
(PID.TID 0000.0001)  ploadbar=  1.01002327654582E+05
 cg2d: Sum(rhs),rhsMax =  -7.79780014140094E+01  1.62260997636366E+00
(PID.TID 0000.0001)  ploadbar=  1.01002565807926E+05
 cg2d: Sum(rhs),rhsMax =  -7.82185367737357E+01  1.61734436536022E+00
(PID.TID 0000.0001)  ploadbar=  1.01003292780368E+05
 cg2d: Sum(rhs),rhsMax =  -7.79931436943927E+01  1.62168540909329E+00
(PID.TID 0000.0001)  ploadbar=  1.01004019752810E+05
 cg2d: Sum(rhs),rhsMax =  -7.78536446220580E+01  1.62419718064198E+00
(PID.TID 0000.0001)  ploadbar=  1.01004746725252E+05
 cg2d: Sum(rhs),rhsMax =  -7.77571134147973E+01  1.62575562299980E+00
(PID.TID 0000.0001)  ploadbar=  1.01005473697694E+05
 cg2d: Sum(rhs),rhsMax =  -7.77149237899083E+01  1.62611377027571E+00
(PID.TID 0000.0001)  ploadbar=  1.01006200670136E+05
 cg2d: Sum(rhs),rhsMax =  -7.77128307084116E+01  1.62556460644259E+00
(PID.TID 0000.0001)  ploadbar=  1.01006927642579E+05
 cg2d: Sum(rhs),rhsMax =  -7.76562393068216E+01  1.62621304532150E+00
(PID.TID 0000.0001)  ploadbar=  1.01007714721786E+05
 cg2d: Sum(rhs),rhsMax =  -7.75903479404580E+01  1.62710664901201E+00
(PID.TID 0000.0001)  ploadbar=  1.01008501800994E+05
 cg2d: Sum(rhs),rhsMax =  -7.75483194906777E+01  1.62754539282560E+00
(PID.TID 0000.0001)  ploadbar=  1.01009288880202E+05
 cg2d: Sum(rhs),rhsMax =  -7.75233896237938E+01  1.62766096906402E+00
(PID.TID 0000.0001)  ploadbar=  1.01010075959410E+05
 cg2d: Sum(rhs),rhsMax =  -7.75044321951750E+01  1.62768298533902E+00
(PID.TID 0000.0001)  ploadbar=  1.01010863038618E+05
 cg2d: Sum(rhs),rhsMax =  -7.75240657188290E+01  1.62692349971265E+00
(PID.TID 0000.0001)  ploadbar=  1.01011650117826E+05
 cg2d: Sum(rhs),rhsMax =  -7.75731562135488E+01  1.62554709985195E+00
(PID.TID 0000.0001)  ploadbar=  1.01013272452169E+05
 cg2d: Sum(rhs),rhsMax =  -7.76500320442295E+01  1.62358414936253E+00
(PID.TID 0000.0001)  ploadbar=  1.01014894786513E+05
 cg2d: Sum(rhs),rhsMax =  -7.77656356879182E+01  1.62080637971309E+00
(PID.TID 0000.0001)  ploadbar=  1.01016517120857E+05
 cg2d: Sum(rhs),rhsMax =  -7.78586265896543E+01  1.61849141912447E+00
(PID.TID 0000.0001)  ploadbar=  1.01018139455201E+05
 cg2d: Sum(rhs),rhsMax =  -7.79200255587120E+01  1.61681662733036E+00
(PID.TID 0000.0001)  ploadbar=  1.01019761789545E+05
 cg2d: Sum(rhs),rhsMax =  -7.79829348534823E+01  1.61508716881912E+00
(PID.TID 0000.0001)  ploadbar=  1.01021384123888E+05
 cg2d: Sum(rhs),rhsMax =  -7.80676516949559E+01  1.61293925693256E+00
(PID.TID 0000.0001)  ploadbar=  1.01022486778456E+05
 cg2d: Sum(rhs),rhsMax =  -7.80990756698423E+01  1.61192121691316E+00
(PID.TID 0000.0001)  ploadbar=  1.01023589433023E+05
 cg2d: Sum(rhs),rhsMax =  -7.80760505307122E+01  1.61205303144530E+00
(PID.TID 0000.0001)  ploadbar=  1.01024692087590E+05
 cg2d: Sum(rhs),rhsMax =  -7.79790498861676E+01  1.61373861765360E+00
(PID.TID 0000.0001)  ploadbar=  1.01025794742158E+05
 cg2d: Sum(rhs),rhsMax =  -7.78232401336442E+01  1.61666833700050E+00
(PID.TID 0000.0001)  ploadbar=  1.01026897396725E+05
 cg2d: Sum(rhs),rhsMax =  -7.76156544687806E+01  1.62070410204468E+00
(PID.TID 0000.0001)  ploadbar=  1.01028000051292E+05
 cg2d: Sum(rhs),rhsMax =  -7.73258539832322E+01  1.62647353558701E+00
(PID.TID 0000.0001)  ploadbar=  1.01028948382509E+05
 cg2d: Sum(rhs),rhsMax =  -7.71231215689792E+01  1.63042079790429E+00
(PID.TID 0000.0001)  ploadbar=  1.01029896713727E+05
 cg2d: Sum(rhs),rhsMax =  -7.70227917324674E+01  1.63218889828551E+00
(PID.TID 0000.0001)  ploadbar=  1.01030845044944E+05
 cg2d: Sum(rhs),rhsMax =  -7.69372426008421E+01  1.63361727654424E+00
(PID.TID 0000.0001)  ploadbar=  1.01031793376161E+05
 cg2d: Sum(rhs),rhsMax =  -7.68587241698355E+01  1.63486621631971E+00
(PID.TID 0000.0001)  ploadbar=  1.01032741707378E+05
 cg2d: Sum(rhs),rhsMax =  -7.67813268734584E+01  1.63605795039961E+00
(PID.TID 0000.0001)  ploadbar=  1.01033690038595E+05
 cg2d: Sum(rhs),rhsMax =  -7.67300913720596E+01  1.63674502717914E+00
(PID.TID 0000.0001)  ploadbar=  1.01034131087033E+05
 cg2d: Sum(rhs),rhsMax =  -7.67191028832271E+01  1.63662024353730E+00
(PID.TID 0000.0001)  ploadbar=  1.01034572135472E+05
 cg2d: Sum(rhs),rhsMax =  -7.67560137072388E+01  1.63551414789764E+00
(PID.TID 0000.0001)  ploadbar=  1.01035013183911E+05
 cg2d: Sum(rhs),rhsMax =  -7.68538378051456E+01  1.63314611295383E+00
(PID.TID 0000.0001)  ploadbar=  1.01035454232350E+05
 cg2d: Sum(rhs),rhsMax =  -7.69998654584604E+01  1.62979463909919E+00
(PID.TID 0000.0001)  ploadbar=  1.01035895280788E+05
 cg2d: Sum(rhs),rhsMax =  -7.71989869568860E+01  1.62536437329642E+00
(PID.TID 0000.0001)  ploadbar=  1.01036336329227E+05
 cg2d: Sum(rhs),rhsMax =  -7.74114449033134E+01  1.62068813964039E+00
(PID.TID 0000.0001)  ploadbar=  1.01035983208489E+05
 cg2d: Sum(rhs),rhsMax =  -7.76487035462838E+01  1.61552551074423E+00
(PID.TID 0000.0001)  ploadbar=  1.01035630087751E+05
 cg2d: Sum(rhs),rhsMax =  -7.78919368091863E+01  1.61027136237912E+00
(PID.TID 0000.0001)  ploadbar=  1.01035276967013E+05
 cg2d: Sum(rhs),rhsMax =  -7.81239308380030E+01  1.60527702430889E+00
(PID.TID 0000.0001)  ploadbar=  1.01034923846274E+05
 cg2d: Sum(rhs),rhsMax =  -7.83348082803705E+01  1.60073503694693E+00
(PID.TID 0000.0001)  ploadbar=  1.01034570725536E+05
 cg2d: Sum(rhs),rhsMax =  -7.85152033879966E+01  1.59682668809182E+00
(PID.TID 0000.0001)  ploadbar=  1.01034217604798E+05
 cg2d: Sum(rhs),rhsMax =  -7.86623428465030E+01  1.59361647573892E+00
(PID.TID 0000.0001)  ploadbar=  1.01034687576372E+05
 cg2d: Sum(rhs),rhsMax =  -7.87575573471902E+01  1.59146559750984E+00
(PID.TID 0000.0001)  ploadbar=  1.01035157547947E+05
 cg2d: Sum(rhs),rhsMax =  -7.88113988331016E+01  1.59015146545366E+00
(PID.TID 0000.0001)  ploadbar=  1.01035627519521E+05
 cg2d: Sum(rhs),rhsMax =  -7.88376320198473E+01  1.58939018607948E+00
(PID.TID 0000.0001)  ploadbar=  1.01036097491096E+05
 cg2d: Sum(rhs),rhsMax =  -7.88634441857732E+01  1.58862773687896E+00
(PID.TID 0000.0001)  ploadbar=  1.01036567462670E+05
 cg2d: Sum(rhs),rhsMax =  -7.88823622871985E+01  1.58798774820073E+00
(PID.TID 0000.0001)  ploadbar=  1.01037037434245E+05
 cg2d: Sum(rhs),rhsMax =  -7.88767915177196E+01  1.58780630909632E+00
(PID.TID 0000.0001)  ploadbar=  1.01037689109947E+05
 cg2d: Sum(rhs),rhsMax =  -7.89833102651101E+01  1.58533099522905E+00
(PID.TID 0000.0001)  ploadbar=  1.01038340785649E+05
 cg2d: Sum(rhs),rhsMax =  -7.91759708490584E+01  1.58109474604069E+00
(PID.TID 0000.0001)  ploadbar=  1.01038992461351E+05
 cg2d: Sum(rhs),rhsMax =  -7.93998093442871E+01  1.57621042965017E+00
(PID.TID 0000.0001)  ploadbar=  1.01039644137052E+05
 cg2d: Sum(rhs),rhsMax =  -7.96368308741478E+01  1.57104077388857E+00
(PID.TID 0000.0001)  ploadbar=  1.01040295812754E+05
 cg2d: Sum(rhs),rhsMax =  -7.98694746807284E+01  1.56593245825423E+00
(PID.TID 0000.0001)  ploadbar=  1.01040947488456E+05
 cg2d: Sum(rhs),rhsMax =  -8.01169698812969E+01  1.56061270685543E+00
(PID.TID 0000.0001)  ploadbar=  1.01041377094217E+05
 cg2d: Sum(rhs),rhsMax =  -8.03858438541677E+01  1.55495237992795E+00
(PID.TID 0000.0001)  ploadbar=  1.01041806699978E+05
 cg2d: Sum(rhs),rhsMax =  -8.06483125651315E+01  1.54948432375308E+00
(PID.TID 0000.0001)  ploadbar=  1.01042236305739E+05
 cg2d: Sum(rhs),rhsMax =  -8.09060197010584E+01  1.54417032492350E+00
(PID.TID 0000.0001)  ploadbar=  1.01042665911500E+05
 cg2d: Sum(rhs),rhsMax =  -8.11727425701125E+01  1.53874403942164E+00
(PID.TID 0000.0001)  ploadbar=  1.01043095517261E+05
 cg2d: Sum(rhs),rhsMax =  -8.14555259478922E+01  1.53306955318714E+00
(PID.TID 0000.0001)  ploadbar=  1.01043525123022E+05
 cg2d: Sum(rhs),rhsMax =  -8.17444995282331E+01  1.52733406209669E+00
(PID.TID 0000.0001)  ploadbar=  1.01045269936964E+05
 cg2d: Sum(rhs),rhsMax =  -8.20483718185630E+01  1.52137043049053E+00
(PID.TID 0000.0001)  ploadbar=  1.01047014750907E+05
 cg2d: Sum(rhs),rhsMax =  -8.23820303516913E+01  1.51490759607810E+00
(PID.TID 0000.0001)  ploadbar=  1.01048759564850E+05
 cg2d: Sum(rhs),rhsMax =  -8.27488338475523E+01  1.50789178028834E+00
(PID.TID 0000.0001)  ploadbar=  1.01050504378793E+05
 cg2d: Sum(rhs),rhsMax =  -8.28732754041004E+01  1.50532063999746E+00
(PID.TID 0000.0001)  ploadbar=  1.01052249192735E+05
 cg2d: Sum(rhs),rhsMax =  -8.24864651862877E+01  1.51206181613018E+00
(PID.TID 0000.0001)  ploadbar=  1.01053994006678E+05
 cg2d: Sum(rhs),rhsMax =  -8.20990825142871E+01  1.51890448987206E+00
(PID.TID 0000.0001)  ploadbar=  1.01054859207439E+05
 cg2d: Sum(rhs),rhsMax =  -8.16791342756471E+01  1.52643882634706E+00
(PID.TID 0000.0001)  ploadbar=  1.01055724408200E+05
 cg2d: Sum(rhs),rhsMax =  -8.12287089019202E+01  1.53464068203570E+00
(PID.TID 0000.0001)  ploadbar=  1.01056589608961E+05
 cg2d: Sum(rhs),rhsMax =  -8.07633678829367E+01  1.54322931031849E+00
(PID.TID 0000.0001)  ploadbar=  1.01057454809722E+05
 cg2d: Sum(rhs),rhsMax =  -8.02897542075556E+01  1.55207874241046E+00
(PID.TID 0000.0001)  ploadbar=  1.01058320010483E+05
 cg2d: Sum(rhs),rhsMax =  -7.98790592405983E+01  1.55979524379482E+00
(PID.TID 0000.0001)  ploadbar=  1.01059185211244E+05
 cg2d: Sum(rhs),rhsMax =  -7.95062113515874E+01  1.56680860109186E+00
(PID.TID 0000.0001)  ploadbar=  1.01059671742743E+05
 cg2d: Sum(rhs),rhsMax =  -7.92190207034038E+01  1.57214416580350E+00
(PID.TID 0000.0001)  ploadbar=  1.01060158274241E+05
 cg2d: Sum(rhs),rhsMax =  -7.93934139944569E+01  1.56829860537699E+00
(PID.TID 0000.0001)  ploadbar=  1.01060644805740E+05
 cg2d: Sum(rhs),rhsMax =  -8.00272123646488E+01  1.55543530948783E+00
(PID.TID 0000.0001)  ploadbar=  1.01061131337238E+05
 cg2d: Sum(rhs),rhsMax =  -8.06397701033399E+01  1.54312152009740E+00
(PID.TID 0000.0001)  ploadbar=  1.01061617868737E+05
 cg2d: Sum(rhs),rhsMax =  -8.11754575099760E+01  1.53237858105402E+00
(PID.TID 0000.0001)  ploadbar=  1.01062104400235E+05
 cg2d: Sum(rhs),rhsMax =  -8.15588379039883E+01  1.52467732015864E+00
(PID.TID 0000.0001)  ploadbar=  1.01062475375896E+05
 cg2d: Sum(rhs),rhsMax =  -8.23801855252731E+01  1.50903461008633E+00
(PID.TID 0000.0001)  ploadbar=  1.01062846351557E+05
 cg2d: Sum(rhs),rhsMax =  -8.34786198627729E+01  1.48878654076302E+00
(PID.TID 0000.0001)  ploadbar=  1.01063217327218E+05
 cg2d: Sum(rhs),rhsMax =  -8.48431032510184E+01  1.46449426278057E+00
(PID.TID 0000.0001)  ploadbar=  1.01063588302879E+05
 cg2d: Sum(rhs),rhsMax =  -8.61913326968595E+01  1.44127420666095E+00
(PID.TID 0000.0001)  ploadbar=  1.01063959278539E+05
 cg2d: Sum(rhs),rhsMax =  -8.57839347273869E+01  1.44783100904894E+00
(PID.TID 0000.0001)  ploadbar=  1.01064330254200E+05
 cg2d: Sum(rhs),rhsMax =  -8.54570572696308E+01  1.45307817078625E+00
(PID.TID 0000.0001)  ploadbar=  1.01064080050482E+05
 cg2d: Sum(rhs),rhsMax =  -8.51839624008741E+01  1.45743964814062E+00
(PID.TID 0000.0001)  ploadbar=  1.01063829846764E+05
 cg2d: Sum(rhs),rhsMax =  -8.49483357914934E+01  1.46117503415903E+00
(PID.TID 0000.0001)  ploadbar=  1.01063579643045E+05
 cg2d: Sum(rhs),rhsMax =  -8.47388157191708E+01  1.46446708666542E+00
(PID.TID 0000.0001)  ploadbar=  1.01063329439327E+05
 cg2d: Sum(rhs),rhsMax =  -8.45446292434724E+01  1.46749295201633E+00
(PID.TID 0000.0001)  ploadbar=  1.01063079235609E+05
 cg2d: Sum(rhs),rhsMax =  -8.43608229742464E+01  1.47033357527969E+00
(PID.TID 0000.0001)  ploadbar=  1.01062829031890E+05
 cg2d: Sum(rhs),rhsMax =  -8.47864021997076E+01  1.46264079195068E+00
(PID.TID 0000.0001)  ploadbar=  1.01061685611831E+05
 cg2d: Sum(rhs),rhsMax =  -8.58971460453232E+01  1.44345225255290E+00
(PID.TID 0000.0001)  ploadbar=  1.01060542191772E+05
 cg2d: Sum(rhs),rhsMax =  -8.71306415950569E+01  1.42277648854138E+00
(PID.TID 0000.0001)  ploadbar=  1.01059398771714E+05
 cg2d: Sum(rhs),rhsMax =  -8.85266719174310E+01  1.40012897013024E+00
(PID.TID 0000.0001)  ploadbar=  1.01058255351655E+05
 cg2d: Sum(rhs),rhsMax =  -9.00980764859946E+01  1.37552422494981E+00
(PID.TID 0000.0001)  ploadbar=  1.01057111931596E+05
 cg2d: Sum(rhs),rhsMax =  -9.18084913563877E+01  1.34973470107829E+00
(PID.TID 0000.0001)  ploadbar=  1.01055968511537E+05
 cg2d: Sum(rhs),rhsMax =  -9.34921700910150E+01  1.32524312531876E+00
(PID.TID 0000.0001)  ploadbar=  1.01054918432636E+05
 cg2d: Sum(rhs),rhsMax =  -9.50741834192692E+01  1.30298317756799E+00
(PID.TID 0000.0001)  ploadbar=  1.01053868353736E+05
 cg2d: Sum(rhs),rhsMax =  -9.56978151153018E+01  1.29425447622611E+00
(PID.TID 0000.0001)  ploadbar=  1.01052818274836E+05
 cg2d: Sum(rhs),rhsMax =  -9.53618003111800E+01  1.29854077152671E+00
(PID.TID 0000.0001)  ploadbar=  1.01051768195935E+05
 cg2d: Sum(rhs),rhsMax =  -9.50563428231422E+01  1.30239932774622E+00
(PID.TID 0000.0001)  ploadbar=  1.01050718117035E+05
 cg2d: Sum(rhs),rhsMax =  -9.47765169315404E+01  1.30588348854386E+00
(PID.TID 0000.0001)  ploadbar=  1.01049668038135E+05
 cg2d: Sum(rhs),rhsMax =  -9.45355027658890E+01  1.30887535313547E+00
(PID.TID 0000.0001)  ploadbar=  1.01048037349020E+05
 cg2d: Sum(rhs),rhsMax =  -9.43142745689240E+01  1.31162872388565E+00
(PID.TID 0000.0001)  ploadbar=  1.01046406659906E+05
 cg2d: Sum(rhs),rhsMax =  -9.41039375530402E+01  1.31426156272459E+00
(PID.TID 0000.0001)  ploadbar=  1.01044775970791E+05
 cg2d: Sum(rhs),rhsMax =  -9.39107048465781E+01  1.31668128571928E+00
(PID.TID 0000.0001)  ploadbar=  1.01043145281676E+05
 cg2d: Sum(rhs),rhsMax =  -9.37371903133166E+01  1.31884295928374E+00
(PID.TID 0000.0001)  ploadbar=  1.01041514592562E+05
 cg2d: Sum(rhs),rhsMax =  -9.35868531959832E+01  1.32069067038772E+00
(PID.TID 0000.0001)  ploadbar=  1.01039883903447E+05
 cg2d: Sum(rhs),rhsMax =  -9.34862356003496E+01  1.32182667661169E+00
(PID.TID 0000.0001)  ploadbar=  1.01039323224806E+05
 cg2d: Sum(rhs),rhsMax =  -9.34196238400391E+01  1.32246570222659E+00
(PID.TID 0000.0001)  ploadbar=  1.01038762546164E+05
 cg2d: Sum(rhs),rhsMax =  -9.28201601496439E+01  1.33067998266364E+00
(PID.TID 0000.0001)  ploadbar=  1.01038201867523E+05
 cg2d: Sum(rhs),rhsMax =  -9.19269800424289E+01  1.34325639362957E+00
(PID.TID 0000.0001)  ploadbar=  1.01037641188881E+05
 cg2d: Sum(rhs),rhsMax =  -9.07510801189530E+01  1.36027939954055E+00
(PID.TID 0000.0001)  ploadbar=  1.01037080510240E+05
 cg2d: Sum(rhs),rhsMax =  -8.93372940488006E+01  1.38139146415913E+00
(PID.TID 0000.0001)  ploadbar=  1.01036519831598E+05
 cg2d: Sum(rhs),rhsMax =  -8.77840322347845E+01  1.40544156885364E+00
(PID.TID 0000.0001)  ploadbar=  1.01036672051789E+05
 cg2d: Sum(rhs),rhsMax =  -8.62683354085694E+01  1.42975836375270E+00
(PID.TID 0000.0001)  ploadbar=  1.01036824271979E+05
 cg2d: Sum(rhs),rhsMax =  -8.49509692937160E+01  1.45156752071163E+00
(PID.TID 0000.0001)  ploadbar=  1.01036976492170E+05
 cg2d: Sum(rhs),rhsMax =  -8.38166110999490E+01  1.47086050028625E+00
(PID.TID 0000.0001)  ploadbar=  1.01037128712360E+05
 cg2d: Sum(rhs),rhsMax =  -8.28453856030281E+01  1.48775939573113E+00
(PID.TID 0000.0001)  ploadbar=  1.01037280932551E+05
 cg2d: Sum(rhs),rhsMax =  -8.20516211667945E+01  1.50181093943556E+00
(PID.TID 0000.0001)  ploadbar=  1.01037433152741E+05
 cg2d: Sum(rhs),rhsMax =  -8.15133158069169E+01  1.51134596679241E+00
(PID.TID 0000.0001)  ploadbar=  1.01037371101430E+05
 cg2d: Sum(rhs),rhsMax =  -8.14900286256190E+01  1.51135178068871E+00
(PID.TID 0000.0001)  ploadbar=  1.01037309050119E+05
 cg2d: Sum(rhs),rhsMax =  -8.15289929069790E+01  1.51015793452563E+00
(PID.TID 0000.0001)  ploadbar=  1.01037246998807E+05
 cg2d: Sum(rhs),rhsMax =  -8.16525460039194E+01  1.50735101140302E+00
(PID.TID 0000.0001)  ploadbar=  1.01037184947496E+05
 cg2d: Sum(rhs),rhsMax =  -8.18007311993701E+01  1.50404647660635E+00
(PID.TID 0000.0001)  ploadbar=  1.01037122896185E+05
 cg2d: Sum(rhs),rhsMax =  -8.19595299380329E+01  1.50049930805907E+00
(PID.TID 0000.0001)  ploadbar=  1.01037060844873E+05
 cg2d: Sum(rhs),rhsMax =  -8.22510657363669E+01  1.49460855324847E+00
(PID.TID 0000.0001)  ploadbar=  1.01037935849528E+05
 cg2d: Sum(rhs),rhsMax =  -8.26046505635506E+01  1.48769316478869E+00
(PID.TID 0000.0001)  ploadbar=  1.01038810854182E+05
 cg2d: Sum(rhs),rhsMax =  -8.30490748310897E+01  1.47926352717212E+00
(PID.TID 0000.0001)  ploadbar=  1.01039685858837E+05
 cg2d: Sum(rhs),rhsMax =  -8.35403195598007E+01  1.47013713860227E+00
(PID.TID 0000.0001)  ploadbar=  1.01040560863491E+05
 cg2d: Sum(rhs),rhsMax =  -8.40369230983338E+01  1.46105567170811E+00
(PID.TID 0000.0001)  ploadbar=  1.01041435868146E+05
 cg2d: Sum(rhs),rhsMax =  -8.45157474387260E+01  1.45241586199286E+00
(PID.TID 0000.0001)  ploadbar=  1.01042310872800E+05
 cg2d: Sum(rhs),rhsMax =  -8.49921011769587E+01  1.44392243145946E+00
(PID.TID 0000.0001)  ploadbar=  1.01042582000270E+05
 cg2d: Sum(rhs),rhsMax =  -8.54411579064320E+01  1.43598405614577E+00
(PID.TID 0000.0001)  ploadbar=  1.01042853127741E+05
 cg2d: Sum(rhs),rhsMax =  -8.58736016647360E+01  1.42840245947621E+00
(PID.TID 0000.0001)  ploadbar=  1.01043124255211E+05
 cg2d: Sum(rhs),rhsMax =  -8.69622557605036E+01  1.41016761153900E+00
(PID.TID 0000.0001)  ploadbar=  1.01043395382681E+05
 cg2d: Sum(rhs),rhsMax =  -8.74927889242056E+01  1.40125440430041E+00
(PID.TID 0000.0001)  ploadbar=  1.01043666510152E+05
 cg2d: Sum(rhs),rhsMax =  -8.69026727937219E+01  1.41039063295033E+00
(PID.TID 0000.0001)  ploadbar=  1.01043937637622E+05
 cg2d: Sum(rhs),rhsMax =  -8.64865862976629E+01  1.41681556437414E+00
(PID.TID 0000.0001)  ploadbar=  1.01044577937163E+05
 cg2d: Sum(rhs),rhsMax =  -8.62003781679554E+01  1.42117425884153E+00
(PID.TID 0000.0001)  ploadbar=  1.01045218236704E+05
 cg2d: Sum(rhs),rhsMax =  -8.60130661352898E+01  1.42393849184294E+00
(PID.TID 0000.0001)  ploadbar=  1.01045858536244E+05
 cg2d: Sum(rhs),rhsMax =  -8.58856321992119E+01  1.42573461538255E+00
(PID.TID 0000.0001)  ploadbar=  1.01046498835785E+05
 cg2d: Sum(rhs),rhsMax =  -8.57851845395973E+01  1.42709686307311E+00
(PID.TID 0000.0001)  ploadbar=  1.01047139135326E+05
 cg2d: Sum(rhs),rhsMax =  -8.56894860582349E+01  1.42839002568817E+00
(PID.TID 0000.0001)  ploadbar=  1.01047779434867E+05
 cg2d: Sum(rhs),rhsMax =  -8.55192042786042E+01  1.43090839547390E+00
(PID.TID 0000.0001)  ploadbar=  1.01048963318518E+05
 cg2d: Sum(rhs),rhsMax =  -8.53398384245003E+01  1.43356182770397E+00
(PID.TID 0000.0001)  ploadbar=  1.01050147202169E+05
 cg2d: Sum(rhs),rhsMax =  -8.51880668312808E+01  1.43572859971745E+00
(PID.TID 0000.0001)  ploadbar=  1.01051331085820E+05
 cg2d: Sum(rhs),rhsMax =  -8.50913211668437E+01  1.43693819632152E+00
(PID.TID 0000.0001)  ploadbar=  1.01052514969471E+05
 cg2d: Sum(rhs),rhsMax =  -8.50761762225577E+01  1.43673314127138E+00
(PID.TID 0000.0001)  ploadbar=  1.01053698853123E+05
 cg2d: Sum(rhs),rhsMax =  -8.51554368956876E+01  1.43489525748960E+00
(PID.TID 0000.0001)  ploadbar=  1.01054882736774E+05
 cg2d: Sum(rhs),rhsMax =  -8.52714342610014E+01  1.43247532854986E+00
(PID.TID 0000.0001)  ploadbar=  1.01054892950075E+05
 cg2d: Sum(rhs),rhsMax =  -8.54230522067605E+01  1.42949362635526E+00
(PID.TID 0000.0001)  ploadbar=  1.01054903163376E+05
 cg2d: Sum(rhs),rhsMax =  -8.55868103454746E+01  1.42634512201729E+00
(PID.TID 0000.0001)  ploadbar=  1.01054913376677E+05
 cg2d: Sum(rhs),rhsMax =  -8.57463089653389E+01  1.42329994425383E+00
(PID.TID 0000.0001)  ploadbar=  1.01054923589978E+05
 cg2d: Sum(rhs),rhsMax =  -8.59615131162445E+01  1.41936347579553E+00
(PID.TID 0000.0001)  ploadbar=  1.01054933803279E+05
 cg2d: Sum(rhs),rhsMax =  -8.62140778248246E+01  1.41484968509612E+00
(PID.TID 0000.0001)  ploadbar=  1.01054944016580E+05
 cg2d: Sum(rhs),rhsMax =  -8.65057787666098E+01  1.40971458122988E+00
(PID.TID 0000.0001)  ploadbar=  1.01056311396452E+05
 cg2d: Sum(rhs),rhsMax =  -8.68457620016573E+01  1.40382280975694E+00
(PID.TID 0000.0001)  ploadbar=  1.01057678776325E+05
 cg2d: Sum(rhs),rhsMax =  -8.83686661976895E+01  1.37924987556284E+00
(PID.TID 0000.0001)  ploadbar=  1.01059046156197E+05
 cg2d: Sum(rhs),rhsMax =  -8.98805508032772E+01  1.35566225073222E+00
(PID.TID 0000.0001)  ploadbar=  1.01060413536069E+05
 cg2d: Sum(rhs),rhsMax =  -9.13295763418251E+01  1.33375778100391E+00
(PID.TID 0000.0001)  ploadbar=  1.01061780915941E+05
 cg2d: Sum(rhs),rhsMax =  -9.21272248437518E+01  1.32180225530773E+00
(PID.TID 0000.0001)  ploadbar=  1.01063148295813E+05
 cg2d: Sum(rhs),rhsMax =  -9.20062077872193E+01  1.32313771359364E+00
(PID.TID 0000.0001)  ploadbar=  1.01064158484978E+05
 cg2d: Sum(rhs),rhsMax =  -9.17174260666629E+01  1.32690097003264E+00
(PID.TID 0000.0001)  ploadbar=  1.01065168674142E+05
 cg2d: Sum(rhs),rhsMax =  -9.10873212285330E+01  1.33567391228699E+00
(PID.TID 0000.0001)  ploadbar=  1.01066178863307E+05
 cg2d: Sum(rhs),rhsMax =  -9.02952069538716E+01  1.34698002342158E+00
(PID.TID 0000.0001)  ploadbar=  1.01067189052471E+05
 cg2d: Sum(rhs),rhsMax =  -8.94830679173362E+01  1.35878692566928E+00
(PID.TID 0000.0001)  ploadbar=  1.01068199241636E+05
 cg2d: Sum(rhs),rhsMax =  -8.88291883808414E+01  1.36836278851745E+00
(PID.TID 0000.0001)  ploadbar=  1.01069209430800E+05
 cg2d: Sum(rhs),rhsMax =  -8.83033543536932E+01  1.37603571135909E+00
(PID.TID 0000.0001)  ploadbar=  1.01069242967156E+05
 cg2d: Sum(rhs),rhsMax =  -8.79684024109342E+01  1.38074661585090E+00
(PID.TID 0000.0001)  ploadbar=  1.01069276503512E+05
 cg2d: Sum(rhs),rhsMax =  -8.78359429402909E+01  1.38224551386337E+00
(PID.TID 0000.0001)  ploadbar=  1.01069310039867E+05
 cg2d: Sum(rhs),rhsMax =  -8.78917743969458E+01  1.38072990883397E+00
(PID.TID 0000.0001)  ploadbar=  1.01069343576223E+05
 cg2d: Sum(rhs),rhsMax =  -8.81299988874041E+01  1.37630540352324E+00
(PID.TID 0000.0001)  ploadbar=  1.01069377112578E+05
 cg2d: Sum(rhs),rhsMax =  -8.85084756264096E+01  1.36967313969960E+00
(PID.TID 0000.0001)  ploadbar=  1.01069410648934E+05
 cg2d: Sum(rhs),rhsMax =  -8.88341316771994E+01  1.36395422578554E+00
(PID.TID 0000.0001)  ploadbar=  1.01069012949011E+05
 cg2d: Sum(rhs),rhsMax =  -8.90121741095344E+01  1.36057288228270E+00
(PID.TID 0000.0001)  ploadbar=  1.01068615249089E+05
 cg2d: Sum(rhs),rhsMax =  -8.89118637595383E+01  1.36149539380036E+00
(PID.TID 0000.0001)  ploadbar=  1.01068217549166E+05
 cg2d: Sum(rhs),rhsMax =  -8.84418039129552E+01  1.36815470076420E+00
(PID.TID 0000.0001)  ploadbar=  1.01067819849243E+05
 cg2d: Sum(rhs),rhsMax =  -8.77578017187917E+01  1.37827289124386E+00
(PID.TID 0000.0001)  ploadbar=  1.01067422149321E+05
 cg2d: Sum(rhs),rhsMax =  -8.69754569790129E+01  1.39015216093332E+00
(PID.TID 0000.0001)  ploadbar=  1.01067024449398E+05
 cg2d: Sum(rhs),rhsMax =  -8.61617810121493E+01  1.40274991341935E+00
(PID.TID 0000.0001)  ploadbar=  1.01066709699359E+05
 cg2d: Sum(rhs),rhsMax =  -8.53356815504612E+01  1.41578391899134E+00
(PID.TID 0000.0001)  ploadbar=  1.01066394949320E+05
 cg2d: Sum(rhs),rhsMax =  -8.45179594158559E+01  1.42891821045825E+00
(PID.TID 0000.0001)  ploadbar=  1.01066080199281E+05
 cg2d: Sum(rhs),rhsMax =  -8.37131973370729E+01  1.44207196271491E+00
(PID.TID 0000.0001)  ploadbar=  1.01065765449242E+05
 cg2d: Sum(rhs),rhsMax =  -8.29077212143197E+01  1.45547982279247E+00
(PID.TID 0000.0001)  ploadbar=  1.01065450699203E+05
 cg2d: Sum(rhs),rhsMax =  -8.20744974392863E+01  1.46963608317860E+00
(PID.TID 0000.0001)  ploadbar=  1.01065135949164E+05
 cg2d: Sum(rhs),rhsMax =  -8.12211352726974E+01  1.48447648975919E+00
(PID.TID 0000.0001)  ploadbar=  1.01065133642198E+05
 cg2d: Sum(rhs),rhsMax =  -8.03375762854014E+01  1.50021717978254E+00
(PID.TID 0000.0001)  ploadbar=  1.01065131335232E+05
 cg2d: Sum(rhs),rhsMax =  -7.94150365216387E+01  1.51707239595171E+00
(PID.TID 0000.0001)  ploadbar=  1.01065129028266E+05
 cg2d: Sum(rhs),rhsMax =  -7.84584306069755E+01  1.53501045007676E+00
(PID.TID 0000.0001)  ploadbar=  1.01065126721300E+05
 cg2d: Sum(rhs),rhsMax =  -7.74792327410664E+01  1.55386393279629E+00
(PID.TID 0000.0001)  ploadbar=  1.01065124414334E+05
 cg2d: Sum(rhs),rhsMax =  -7.66170186263738E+01  1.57081523771269E+00
(PID.TID 0000.0001)  ploadbar=  1.01065122107368E+05
 cg2d: Sum(rhs),rhsMax =  -7.58273739187141E+01  1.58663157705201E+00
(PID.TID 0000.0001)  ploadbar=  1.01064591708467E+05
 cg2d: Sum(rhs),rhsMax =  -7.51307795284505E+01  1.60078872179110E+00
(PID.TID 0000.0001)  ploadbar=  1.01064061309565E+05
 cg2d: Sum(rhs),rhsMax =  -7.45440692999384E+01  1.61282024982418E+00
(PID.TID 0000.0001)  ploadbar=  1.01063530910664E+05
 cg2d: Sum(rhs),rhsMax =  -7.40791254219377E+01  1.62235825693341E+00
(PID.TID 0000.0001)  ploadbar=  1.01063000511762E+05
 cg2d: Sum(rhs),rhsMax =  -7.37360372856872E+01  1.62930171950178E+00
(PID.TID 0000.0001)  ploadbar=  1.01062470112861E+05
 cg2d: Sum(rhs),rhsMax =  -7.34966991370923E+01  1.63397869725683E+00
(PID.TID 0000.0001)  ploadbar=  1.01061939713959E+05
 cg2d: Sum(rhs),rhsMax =  -7.32165362924126E+01  1.63963505445509E+00
(PID.TID 0000.0001)  ploadbar=  1.01060458265657E+05
 cg2d: Sum(rhs),rhsMax =  -7.28212033317237E+01  1.64796569508774E+00
(PID.TID 0000.0001)  ploadbar=  1.01058976817355E+05
 cg2d: Sum(rhs),rhsMax =  -7.22985092973349E+01  1.65932878122662E+00
(PID.TID 0000.0001)  ploadbar=  1.01057495369054E+05
 cg2d: Sum(rhs),rhsMax =  -7.16711503969818E+01  1.67331674180162E+00
(PID.TID 0000.0001)  ploadbar=  1.01056013920752E+05
 cg2d: Sum(rhs),rhsMax =  -7.10373344645000E+01  1.68771875887484E+00
(PID.TID 0000.0001)  ploadbar=  1.01054532472450E+05
 cg2d: Sum(rhs),rhsMax =  -7.08760053040898E+01  1.69104569935836E+00
(PID.TID 0000.0001)  ploadbar=  1.01053051024148E+05
 cg2d: Sum(rhs),rhsMax =  -7.06913477597553E+01  1.69492187278805E+00
(PID.TID 0000.0001)  ploadbar=  1.01051121961370E+05
 cg2d: Sum(rhs),rhsMax =  -7.04820945602780E+01  1.69938140398874E+00
(PID.TID 0000.0001)  ploadbar=  1.01049192898592E+05
 cg2d: Sum(rhs),rhsMax =  -7.02460839901342E+01  1.70448345301989E+00
(PID.TID 0000.0001)  ploadbar=  1.01047263835813E+05
 cg2d: Sum(rhs),rhsMax =  -6.99834705985718E+01  1.71023312665066E+00
(PID.TID 0000.0001)  ploadbar=  1.01045334773035E+05
 cg2d: Sum(rhs),rhsMax =  -6.96934291458164E+01  1.71666028924830E+00
(PID.TID 0000.0001)  ploadbar=  1.01043405710257E+05
 cg2d: Sum(rhs),rhsMax =  -6.93799001173607E+01  1.72368274944506E+00
(PID.TID 0000.0001)  ploadbar=  1.01041476647479E+05
 cg2d: Sum(rhs),rhsMax =  -6.90537922519531E+01  1.73108087033161E+00
(PID.TID 0000.0001)  ploadbar=  1.01038593197918E+05
 cg2d: Sum(rhs),rhsMax =  -6.87300700475069E+01  1.73847850905089E+00
(PID.TID 0000.0001)  ploadbar=  1.01035709748358E+05
 cg2d: Sum(rhs),rhsMax =  -6.84172115436380E+01  1.74565624439797E+00
(PID.TID 0000.0001)  ploadbar=  1.01032826298798E+05
 cg2d: Sum(rhs),rhsMax =  -6.81223169829079E+01  1.75241985980243E+00
(PID.TID 0000.0001)  ploadbar=  1.01029942849237E+05
 cg2d: Sum(rhs),rhsMax =  -6.78486822935911E+01  1.75866745544897E+00
(PID.TID 0000.0001)  ploadbar=  1.01027059399677E+05
 cg2d: Sum(rhs),rhsMax =  -6.75991251549360E+01  1.76431080624725E+00
(PID.TID 0000.0001)  ploadbar=  1.01024175950117E+05
 cg2d: Sum(rhs),rhsMax =  -6.73532652847208E+01  1.76989831377684E+00
(PID.TID 0000.0001)  ploadbar=  1.01022304886696E+05
 cg2d: Sum(rhs),rhsMax =  -6.70961965778238E+01  1.77582088900312E+00
(PID.TID 0000.0001)  ploadbar=  1.01020433823275E+05
 cg2d: Sum(rhs),rhsMax =  -6.68184229155095E+01  1.78233578728218E+00
(PID.TID 0000.0001)  ploadbar=  1.01018562759854E+05
 cg2d: Sum(rhs),rhsMax =  -6.65889437820411E+01  1.78759839472997E+00
(PID.TID 0000.0001)  ploadbar=  1.01016691696434E+05
 cg2d: Sum(rhs),rhsMax =  -6.63032115567008E+01  1.79440427563502E+00
(PID.TID 0000.0001)  ploadbar=  1.01014820633013E+05
 cg2d: Sum(rhs),rhsMax =  -6.60041213455176E+01  1.80161640705818E+00
(PID.TID 0000.0001)  ploadbar=  1.01012949569592E+05
 cg2d: Sum(rhs),rhsMax =  -6.56231140498516E+01  1.81120682550213E+00
(PID.TID 0000.0001)  ploadbar=  1.01012149004527E+05
 cg2d: Sum(rhs),rhsMax =  -6.51393148398507E+01  1.82383161982495E+00
(PID.TID 0000.0001)  ploadbar=  1.01011348439463E+05
 cg2d: Sum(rhs),rhsMax =  -6.46172936292841E+01  1.83777010993871E+00
(PID.TID 0000.0001)  ploadbar=  1.01010547874398E+05
 cg2d: Sum(rhs),rhsMax =  -6.42546040090618E+01  1.84737556244118E+00
(PID.TID 0000.0001)  ploadbar=  1.01009747309334E+05
 cg2d: Sum(rhs),rhsMax =  -6.38815421406864E+01  1.85742142390408E+00
(PID.TID 0000.0001)  ploadbar=  1.01008946744269E+05
 cg2d: Sum(rhs),rhsMax =  -6.34999404330617E+01  1.86786470900899E+00
(PID.TID 0000.0001)  ploadbar=  1.01008146179205E+05
 cg2d: Sum(rhs),rhsMax =  -6.31198861103243E+01  1.87839255998785E+00
(PID.TID 0000.0001)  ploadbar=  1.01007017803217E+05
 cg2d: Sum(rhs),rhsMax =  -6.27503088011960E+01  1.88873029766539E+00
(PID.TID 0000.0001)  ploadbar=  1.01005889427228E+05
 cg2d: Sum(rhs),rhsMax =  -6.24022337132388E+01  1.89852700359842E+00
(PID.TID 0000.0001)  ploadbar=  1.01004761051240E+05
 cg2d: Sum(rhs),rhsMax =  -6.20744450365061E+01  1.90779262102421E+00
(PID.TID 0000.0001)  ploadbar=  1.01003632675252E+05
 cg2d: Sum(rhs),rhsMax =  -6.17607840082269E+01  1.91669711842659E+00
(PID.TID 0000.0001)  ploadbar=  1.01002504299264E+05
 cg2d: Sum(rhs),rhsMax =  -6.14666270878352E+01  1.92505515818001E+00
(PID.TID 0000.0001)  ploadbar=  1.01001375923276E+05
 cg2d: Sum(rhs),rhsMax =  -6.12147030335699E+01  1.93216777719417E+00
(PID.TID 0000.0001)  ploadbar=  1.01000018794053E+05
 cg2d: Sum(rhs),rhsMax =  -6.10117051596112E+01  1.93778438952957E+00
(PID.TID 0000.0001)  ploadbar=  1.00998661664831E+05
 cg2d: Sum(rhs),rhsMax =  -6.08790808073600E+01  1.94119110757778E+00
(PID.TID 0000.0001)  ploadbar=  1.00997304535609E+05
 cg2d: Sum(rhs),rhsMax =  -6.08215729452386E+01  1.94221034842309E+00
(PID.TID 0000.0001)  ploadbar=  1.00995947406387E+05
 cg2d: Sum(rhs),rhsMax =  -6.08343291476875E+01  1.94098041445217E+00
(PID.TID 0000.0001)  ploadbar=  1.00994590277164E+05
 cg2d: Sum(rhs),rhsMax =  -6.09098427046582E+01  1.93774096938669E+00
(PID.TID 0000.0001)  ploadbar=  1.00993233147942E+05
 cg2d: Sum(rhs),rhsMax =  -6.09978707571336E+01  1.93410807807018E+00
(PID.TID 0000.0001)  ploadbar=  1.00993337934992E+05
 cg2d: Sum(rhs),rhsMax =  -6.10720687296787E+01  1.93090958148943E+00
(PID.TID 0000.0001)  ploadbar=  1.00993442722041E+05
 cg2d: Sum(rhs),rhsMax =  -6.11090231333425E+01  1.92887660716409E+00
(PID.TID 0000.0001)  ploadbar=  1.00993547509091E+05
 cg2d: Sum(rhs),rhsMax =  -6.11198597973015E+01  1.92764413166944E+00
(PID.TID 0000.0001)  ploadbar=  1.00993652296141E+05
 cg2d: Sum(rhs),rhsMax =  -6.11004567535171E+01  1.92733473459660E+00
(PID.TID 0000.0001)  ploadbar=  1.00993757083190E+05
 cg2d: Sum(rhs),rhsMax =  -6.10410503618443E+01  1.92825183203724E+00
(PID.TID 0000.0001)  ploadbar=  1.00993861870240E+05
 cg2d: Sum(rhs),rhsMax =  -6.09156635644269E+01  1.93132004563937E+00
(PID.TID 0000.0001)  ploadbar=  1.00994479700521E+05
 cg2d: Sum(rhs),rhsMax =  -6.09359567590766E+01  1.92982926487655E+00
(PID.TID 0000.0001)  ploadbar=  1.00995097530803E+05
 cg2d: Sum(rhs),rhsMax =  -6.10639061516436E+01  1.92498849874066E+00
(PID.TID 0000.0001)  ploadbar=  1.00995715361085E+05
 cg2d: Sum(rhs),rhsMax =  -6.12803330771828E+01  1.91743830254609E+00
(PID.TID 0000.0001)  ploadbar=  1.00996333191366E+05
 cg2d: Sum(rhs),rhsMax =  -6.15851050062679E+01  1.90724313029731E+00
(PID.TID 0000.0001)  ploadbar=  1.00996951021648E+05
 cg2d: Sum(rhs),rhsMax =  -6.19669518709268E+01  1.89482750847177E+00
(PID.TID 0000.0001)  ploadbar=  1.00997568851930E+05
 cg2d: Sum(rhs),rhsMax =  -6.24399875732493E+01  1.87981537681195E+00
(PID.TID 0000.0001)  ploadbar=  1.00998598852733E+05
 cg2d: Sum(rhs),rhsMax =  -6.29927603920620E+01  1.86266503139737E+00
(PID.TID 0000.0001)  ploadbar=  1.00999628853536E+05
 cg2d: Sum(rhs),rhsMax =  -6.36128152301692E+01  1.84385426088095E+00
(PID.TID 0000.0001)  ploadbar=  1.01000658854339E+05
 cg2d: Sum(rhs),rhsMax =  -6.42914960852242E+01  1.82373270510315E+00
(PID.TID 0000.0001)  ploadbar=  1.01001688855142E+05
 cg2d: Sum(rhs),rhsMax =  -6.50265327744236E+01  1.80245207297323E+00
(PID.TID 0000.0001)  ploadbar=  1.01002718855945E+05
 cg2d: Sum(rhs),rhsMax =  -6.58251442192901E+01  1.77990652640234E+00
(PID.TID 0000.0001)  ploadbar=  1.01003748856748E+05
 cg2d: Sum(rhs),rhsMax =  -6.66818437172462E+01  1.75639691434462E+00
(PID.TID 0000.0001)  ploadbar=  1.01003476315386E+05
 cg2d: Sum(rhs),rhsMax =  -6.76142414707962E+01  1.73156621705899E+00
(PID.TID 0000.0001)  ploadbar=  1.01003203774023E+05
 cg2d: Sum(rhs),rhsMax =  -6.86358214529404E+01  1.70521235862945E+00
(PID.TID 0000.0001)  ploadbar=  1.01002931232660E+05
 cg2d: Sum(rhs),rhsMax =  -6.97589892440413E+01  1.67720287756846E+00
(PID.TID 0000.0001)  ploadbar=  1.01002658691297E+05
 cg2d: Sum(rhs),rhsMax =  -7.09914243997405E+01  1.64755670557058E+00
(PID.TID 0000.0001)  ploadbar=  1.01002386149934E+05
 cg2d: Sum(rhs),rhsMax =  -7.23334368051693E+01  1.61647702511202E+00
(PID.TID 0000.0001)  ploadbar=  1.01002113608571E+05
 cg2d: Sum(rhs),rhsMax =  -7.37229728693722E+01  1.58547372362518E+00
(PID.TID 0000.0001)  ploadbar=  1.01002858278813E+05
 cg2d: Sum(rhs),rhsMax =  -7.51413588285320E+01  1.55498498717842E+00
(PID.TID 0000.0001)  ploadbar=  1.01003602949055E+05
 cg2d: Sum(rhs),rhsMax =  -7.65709416821591E+01  1.52536543630225E+00
(PID.TID 0000.0001)  ploadbar=  1.01004347619296E+05
 cg2d: Sum(rhs),rhsMax =  -7.80007799189730E+01  1.49678516124574E+00
(PID.TID 0000.0001)  ploadbar=  1.01005092289538E+05
 cg2d: Sum(rhs),rhsMax =  -7.94286793339596E+01  1.46922471070512E+00
(PID.TID 0000.0001)  ploadbar=  1.01005836959780E+05
 cg2d: Sum(rhs),rhsMax =  -8.08928583599596E+01  1.44194313760492E+00
(PID.TID 0000.0001)  ploadbar=  1.01006581630022E+05
 cg2d: Sum(rhs),rhsMax =  -8.23318035982342E+01  1.41611703145678E+00
(PID.TID 0000.0001)  ploadbar=  1.01006901708736E+05
 cg2d: Sum(rhs),rhsMax =  -8.25979676833990E+01  1.41097991623346E+00
(PID.TID 0000.0001)  ploadbar=  1.01007221787450E+05
 cg2d: Sum(rhs),rhsMax =  -8.20086891779111E+01  1.42058779169974E+00
(PID.TID 0000.0001)  ploadbar=  1.01007541866165E+05
 cg2d: Sum(rhs),rhsMax =  -8.13096337559450E+01  1.43231168499082E+00
(PID.TID 0000.0001)  ploadbar=  1.01007861944879E+05
 cg2d: Sum(rhs),rhsMax =  -8.06198011157559E+01  1.44411788169526E+00
(PID.TID 0000.0001)  ploadbar=  1.01008182023593E+05
 cg2d: Sum(rhs),rhsMax =  -7.93939754593283E+01  1.46600240452183E+00
(PID.TID 0000.0001)  ploadbar=  1.01008502102308E+05
 cg2d: Sum(rhs),rhsMax =  -7.76875044696058E+01  1.49778248317291E+00
(PID.TID 0000.0001)  ploadbar=  1.01009225040694E+05
 cg2d: Sum(rhs),rhsMax =  -7.61638942923024E+01  1.52730791365719E+00
(PID.TID 0000.0001)  ploadbar=  1.01009947979081E+05
 cg2d: Sum(rhs),rhsMax =  -7.48231434307035E+01  1.55422031631646E+00
(PID.TID 0000.0001)  ploadbar=  1.01010670917467E+05
 cg2d: Sum(rhs),rhsMax =  -7.36608179420926E+01  1.57826618508354E+00
(PID.TID 0000.0001)  ploadbar=  1.01011393855853E+05
 cg2d: Sum(rhs),rhsMax =  -7.26640881356522E+01  1.59940682238062E+00
(PID.TID 0000.0001)  ploadbar=  1.01012116794240E+05
 cg2d: Sum(rhs),rhsMax =  -7.18155870816425E+01  1.61776158907002E+00
(PID.TID 0000.0001)  ploadbar=  1.01012839732626E+05
 cg2d: Sum(rhs),rhsMax =  -7.09593261588276E+01  1.63677240176397E+00
(PID.TID 0000.0001)  ploadbar=  1.01013356025030E+05
 cg2d: Sum(rhs),rhsMax =  -7.00808538386970E+01  1.65680869248665E+00
(PID.TID 0000.0001)  ploadbar=  1.01013872317434E+05
 cg2d: Sum(rhs),rhsMax =  -6.91945130614471E+01  1.67757903180514E+00
(PID.TID 0000.0001)  ploadbar=  1.01014388609838E+05
 cg2d: Sum(rhs),rhsMax =  -6.83358846148616E+01  1.69823359226676E+00
(PID.TID 0000.0001)  ploadbar=  1.01014904902242E+05
 cg2d: Sum(rhs),rhsMax =  -6.75276476972422E+01  1.71816157885424E+00
(PID.TID 0000.0001)  ploadbar=  1.01015421194646E+05
 cg2d: Sum(rhs),rhsMax =  -6.67494504190850E+01  1.73781495338349E+00
(PID.TID 0000.0001)  ploadbar=  1.01015937487050E+05
 cg2d: Sum(rhs),rhsMax =  -6.60291652706633E+01  1.75633553434613E+00
(PID.TID 0000.0001)  ploadbar=  1.01016084950134E+05
 cg2d: Sum(rhs),rhsMax =  -6.51872379272329E+01  1.77851707366894E+00
(PID.TID 0000.0001)  ploadbar=  1.01016232413218E+05
 cg2d: Sum(rhs),rhsMax =  -6.39720001707732E+01  1.81172546239358E+00
(PID.TID 0000.0001)  ploadbar=  1.01016379876301E+05
 cg2d: Sum(rhs),rhsMax =  -6.23144687280952E+01  1.85925224272783E+00
(PID.TID 0000.0001)  ploadbar=  1.01016527339385E+05
 cg2d: Sum(rhs),rhsMax =  -6.04039017500822E+01  1.91729358184758E+00
(PID.TID 0000.0001)  ploadbar=  1.01016674802469E+05
 cg2d: Sum(rhs),rhsMax =  -5.83185842865190E+01  1.98496940102899E+00
(PID.TID 0000.0001)  ploadbar=  1.01016822265552E+05
 cg2d: Sum(rhs),rhsMax =  -5.64093865447860E+01  2.05129724845292E+00
(PID.TID 0000.0001)  ploadbar=  1.01016306178668E+05
 cg2d: Sum(rhs),rhsMax =  -5.47322363833289E+01  2.11332588607221E+00
(PID.TID 0000.0001)  ploadbar=  1.01015790091784E+05
 cg2d: Sum(rhs),rhsMax =  -5.33338806315164E+01  2.16793172188823E+00
(PID.TID 0000.0001)  ploadbar=  1.01015274004900E+05
 cg2d: Sum(rhs),rhsMax =  -5.21301329692661E+01  2.21721279381539E+00
(PID.TID 0000.0001)  ploadbar=  1.01014757918016E+05
 cg2d: Sum(rhs),rhsMax =  -5.10848648373600E+01  2.26182063386057E+00
(PID.TID 0000.0001)  ploadbar=  1.01014241831132E+05
 cg2d: Sum(rhs),rhsMax =  -5.01552244297376E+01  2.30299883179647E+00
(PID.TID 0000.0001)  ploadbar=  1.01013725744248E+05
 cg2d: Sum(rhs),rhsMax =  -4.92816368460795E+01  2.34305555716505E+00
(PID.TID 0000.0001)  ploadbar=  1.01013399963811E+05
 cg2d: Sum(rhs),rhsMax =  -4.83741481032061E+01  2.38620850693844E+00
(PID.TID 0000.0001)  ploadbar=  1.01013074183375E+05
 cg2d: Sum(rhs),rhsMax =  -4.74656325884617E+01  2.43103524779439E+00
(PID.TID 0000.0001)  ploadbar=  1.01012748402939E+05
 cg2d: Sum(rhs),rhsMax =  -4.65279576255897E+01  2.47912663842234E+00
(PID.TID 0000.0001)  ploadbar=  1.01012422622503E+05
 cg2d: Sum(rhs),rhsMax =  -4.57078408632285E+01  2.52264438633013E+00
(PID.TID 0000.0001)  ploadbar=  1.01012096842067E+05
 cg2d: Sum(rhs),rhsMax =  -4.46921255669998E+01  2.57893381382078E+00
(PID.TID 0000.0001)  ploadbar=  1.01011771061631E+05
 cg2d: Sum(rhs),rhsMax =  -4.34637875711149E+01  2.65080200323862E+00
(PID.TID 0000.0001)  ploadbar=  1.01011712036117E+05
 cg2d: Sum(rhs),rhsMax =  -4.26794377642298E+01  2.69853431585342E+00
(PID.TID 0000.0001)  ploadbar=  1.01011653010603E+05
 cg2d: Sum(rhs),rhsMax =  -4.18017149851762E+01  2.75424278206959E+00
(PID.TID 0000.0001)  ploadbar=  1.01011593985089E+05
 cg2d: Sum(rhs),rhsMax =  -4.08931522010137E+01  2.81450961770401E+00
(PID.TID 0000.0001)  ploadbar=  1.01011534959575E+05
 cg2d: Sum(rhs),rhsMax =  -3.98575374548486E+01  2.88672949485455E+00
(PID.TID 0000.0001)  ploadbar=  1.01011475934061E+05
 cg2d: Sum(rhs),rhsMax =  -3.87406209697452E+01  2.96905639982709E+00
(PID.TID 0000.0001)  ploadbar=  1.01011416908546E+05
 cg2d: Sum(rhs),rhsMax =  -3.77027147678002E+01  3.04983812111138E+00
(PID.TID 0000.0001)  ploadbar=  1.01010561734914E+05
 cg2d: Sum(rhs),rhsMax =  -3.67804436792195E+01  3.12529461263882E+00
(PID.TID 0000.0001)  ploadbar=  1.01009706561282E+05
 cg2d: Sum(rhs),rhsMax =  -3.60349482968989E+01  3.18885914646474E+00
(PID.TID 0000.0001)  ploadbar=  1.01008851387650E+05
 cg2d: Sum(rhs),rhsMax =  -3.59369545554265E+01  3.19639720468668E+00
(PID.TID 0000.0001)  ploadbar=  1.01007996214017E+05
 cg2d: Sum(rhs),rhsMax =  -3.62387748600512E+01  3.16855503346377E+00
(PID.TID 0000.0001)  ploadbar=  1.01007141040385E+05
 cg2d: Sum(rhs),rhsMax =  -3.68797525244342E+01  3.11221221057188E+00
(PID.TID 0000.0001)  ploadbar=  1.01006285866753E+05
 cg2d: Sum(rhs),rhsMax =  -3.76926032069547E+01  3.04397721620518E+00
(PID.TID 0000.0001)  ploadbar=  1.01005967279588E+05
 cg2d: Sum(rhs),rhsMax =  -3.83441149726666E+01  2.99126893864054E+00
(PID.TID 0000.0001)  ploadbar=  1.01005648692423E+05
 cg2d: Sum(rhs),rhsMax =  -3.86213891457005E+01  2.96891450970645E+00
(PID.TID 0000.0001)  ploadbar=  1.01005330105258E+05
 cg2d: Sum(rhs),rhsMax =  -3.84782325250880E+01  2.97917187730059E+00
(PID.TID 0000.0001)  ploadbar=  1.01005011518093E+05
 cg2d: Sum(rhs),rhsMax =  -3.79796708296885E+01  3.01756812056463E+00
(PID.TID 0000.0001)  ploadbar=  1.01004692930928E+05
 cg2d: Sum(rhs),rhsMax =  -3.72244875572846E+01  3.07814492138625E+00
(PID.TID 0000.0001)  ploadbar=  1.01004374343763E+05
 cg2d: Sum(rhs),rhsMax =  -3.63873677823162E+01  3.14822626598917E+00
(PID.TID 0000.0001)  ploadbar=  1.01004343837530E+05
 cg2d: Sum(rhs),rhsMax =  -3.55900600486914E+01  3.21792001290026E+00
(PID.TID 0000.0001)  ploadbar=  1.01004313331297E+05
 cg2d: Sum(rhs),rhsMax =  -3.49710770497933E+01  3.27393512933629E+00
(PID.TID 0000.0001)  ploadbar=  1.01004282825064E+05
 cg2d: Sum(rhs),rhsMax =  -3.46500350122269E+01  3.30321706602643E+00
(PID.TID 0000.0001)  ploadbar=  1.01004252318831E+05
 cg2d: Sum(rhs),rhsMax =  -3.45766697169529E+01  3.30905909050053E+00
(PID.TID 0000.0001)  ploadbar=  1.01004221812597E+05
 cg2d: Sum(rhs),rhsMax =  -3.46738092615410E+01  3.29851516040080E+00
(PID.TID 0000.0001)  ploadbar=  1.01004191306364E+05
 cg2d: Sum(rhs),rhsMax =  -3.48906960783977E+01  3.27681824373881E+00
(PID.TID 0000.0001)  ploadbar=  1.01005551507471E+05
 cg2d: Sum(rhs),rhsMax =  -3.53825969680788E+01  3.23015057510516E+00
(PID.TID 0000.0001)  ploadbar=  1.01006911708578E+05
 cg2d: Sum(rhs),rhsMax =  -3.62246901921415E+01  3.15403212663716E+00
(PID.TID 0000.0001)  ploadbar=  1.01008271909685E+05
 cg2d: Sum(rhs),rhsMax =  -3.72929963369266E+01  3.06273591659133E+00
(PID.TID 0000.0001)  ploadbar=  1.01009632110791E+05
 cg2d: Sum(rhs),rhsMax =  -3.83558733638570E+01  2.97699254568771E+00
(PID.TID 0000.0001)  ploadbar=  1.01010992311898E+05
 cg2d: Sum(rhs),rhsMax =  -3.94551025051375E+01  2.89324667150318E+00
(PID.TID 0000.0001)  ploadbar=  1.01012352513005E+05
 cg2d: Sum(rhs),rhsMax =  -3.97800204541481E+01  2.86879951921299E+00
(PID.TID 0000.0001)  ploadbar=  1.01012593443208E+05
 cg2d: Sum(rhs),rhsMax =  -4.04326685587041E+01  2.82166528428285E+00
(PID.TID 0000.0001)  ploadbar=  1.01012834373411E+05
 cg2d: Sum(rhs),rhsMax =  -4.12690920198751E+01  2.76363660548366E+00
(PID.TID 0000.0001)  ploadbar=  1.01013075303614E+05
 cg2d: Sum(rhs),rhsMax =  -4.20119044870056E+01  2.71391404035444E+00
(PID.TID 0000.0001)  ploadbar=  1.01013316233818E+05
 cg2d: Sum(rhs),rhsMax =  -4.26261940706584E+01  2.67391561982894E+00
(PID.TID 0000.0001)  ploadbar=  1.01013557164021E+05
 cg2d: Sum(rhs),rhsMax =  -4.31186117895332E+01  2.64245946926214E+00
(PID.TID 0000.0001)  ploadbar=  1.01013798094224E+05
 cg2d: Sum(rhs),rhsMax =  -4.34709685176036E+01  2.62017579331831E+00
(PID.TID 0000.0001)  ploadbar=  1.01016350008917E+05
 cg2d: Sum(rhs),rhsMax =  -4.37040779806134E+01  2.60537922878277E+00
(PID.TID 0000.0001)  ploadbar=  1.01018901923610E+05
 cg2d: Sum(rhs),rhsMax =  -4.39304236489598E+01  2.59117243778496E+00
(PID.TID 0000.0001)  ploadbar=  1.01021453838302E+05
 cg2d: Sum(rhs),rhsMax =  -4.42145235475373E+01  2.57377697816525E+00
(PID.TID 0000.0001)  ploadbar=  1.01024005752995E+05
 cg2d: Sum(rhs),rhsMax =  -4.48816604896224E+01  2.53481352823974E+00
(PID.TID 0000.0001)  ploadbar=  1.01026557667688E+05
 cg2d: Sum(rhs),rhsMax =  -4.58190802094592E+01  2.48229005030584E+00
(PID.TID 0000.0001)  ploadbar=  1.01029109582381E+05
 cg2d: Sum(rhs),rhsMax =  -4.69352406361489E+01  2.42264442800212E+00
(PID.TID 0000.0001)  ploadbar=  1.01031451268125E+05
 cg2d: Sum(rhs),rhsMax =  -4.52795580619246E+01  2.51062102300275E+00
(PID.TID 0000.0001)  ploadbar=  1.01033792953870E+05
 cg2d: Sum(rhs),rhsMax =  -4.34466475447605E+01  2.61592192624410E+00
(PID.TID 0000.0001)  ploadbar=  1.01036134639614E+05
 cg2d: Sum(rhs),rhsMax =  -4.18492817288547E+01  2.71514198708339E+00
(PID.TID 0000.0001)  ploadbar=  1.01038476325359E+05
 cg2d: Sum(rhs),rhsMax =  -4.04052902325174E+01  2.81152358016727E+00
(PID.TID 0000.0001)  ploadbar=  1.01040818011103E+05
 cg2d: Sum(rhs),rhsMax =  -3.91055929872914E+01  2.90428460572739E+00
(PID.TID 0000.0001)  ploadbar=  1.01043159696848E+05
 cg2d: Sum(rhs),rhsMax =  -3.79481366066448E+01  2.99219665202377E+00
(PID.TID 0000.0001)  ploadbar=  1.01045521240953E+05
 cg2d: Sum(rhs),rhsMax =  -3.69486439088748E+01  3.07247667867024E+00
(PID.TID 0000.0001)  ploadbar=  1.01047882785058E+05
 cg2d: Sum(rhs),rhsMax =  -3.61089071164519E+01  3.14327569566172E+00
(PID.TID 0000.0001)  ploadbar=  1.01050244329163E+05
 cg2d: Sum(rhs),rhsMax =  -3.54277920388019E+01  3.20305929498174E+00
(PID.TID 0000.0001)  ploadbar=  1.01052605873268E+05
 cg2d: Sum(rhs),rhsMax =  -3.48666472125449E+01  3.25396325126370E+00
(PID.TID 0000.0001)  ploadbar=  1.01054967417373E+05
 cg2d: Sum(rhs),rhsMax =  -3.44313437022493E+01  3.29445237849932E+00
(PID.TID 0000.0001)  ploadbar=  1.01057328961479E+05
 cg2d: Sum(rhs),rhsMax =  -3.41532090652835E+01  3.32057133534913E+00
(PID.TID 0000.0001)  ploadbar=  1.01058414463417E+05
 cg2d: Sum(rhs),rhsMax =  -3.39748241824530E+01  3.33722408487632E+00
(PID.TID 0000.0001)  ploadbar=  1.01059499965356E+05
 cg2d: Sum(rhs),rhsMax =  -3.38902566208797E+01  3.34469392671262E+00
(PID.TID 0000.0001)  ploadbar=  1.01060585467295E+05
 cg2d: Sum(rhs),rhsMax =  -3.38825544925546E+01  3.34451469080326E+00
(PID.TID 0000.0001)  ploadbar=  1.01061670969234E+05
 cg2d: Sum(rhs),rhsMax =  -3.39314049752585E+01  3.33866752082622E+00
(PID.TID 0000.0001)  ploadbar=  1.01062756471173E+05
 cg2d: Sum(rhs),rhsMax =  -3.40206561327642E+01  3.32877207588163E+00
(PID.TID 0000.0001)  ploadbar=  1.01063841973112E+05
 cg2d: Sum(rhs),rhsMax =  -3.41439904094828E+01  3.31570148950048E+00
(PID.TID 0000.0001)  ploadbar=  1.01063451579496E+05
 cg2d: Sum(rhs),rhsMax =  -3.42949156009548E+01  3.30014556876284E+00
(PID.TID 0000.0001)  ploadbar=  1.01063061185879E+05
 cg2d: Sum(rhs),rhsMax =  -3.44784997842124E+01  3.28168553733309E+00
(PID.TID 0000.0001)  ploadbar=  1.01062670792263E+05
 cg2d: Sum(rhs),rhsMax =  -3.46992371556426E+01  3.25998572925156E+00
(PID.TID 0000.0001)  ploadbar=  1.01062280398647E+05
 cg2d: Sum(rhs),rhsMax =  -3.49604508963127E+01  3.23486308072324E+00
(PID.TID 0000.0001)  ploadbar=  1.01061890005031E+05
 cg2d: Sum(rhs),rhsMax =  -3.52658941516073E+01  3.20613452626951E+00
(PID.TID 0000.0001)  ploadbar=  1.01061499611414E+05
 cg2d: Sum(rhs),rhsMax =  -3.55964668933688E+01  3.17561709652129E+00
(PID.TID 0000.0001)  ploadbar=  1.01061195176100E+05
 cg2d: Sum(rhs),rhsMax =  -3.59510827829122E+01  3.14350809705173E+00
(PID.TID 0000.0001)  ploadbar=  1.01060890740785E+05
 cg2d: Sum(rhs),rhsMax =  -3.63271695489236E+01  3.11013201369258E+00
(PID.TID 0000.0001)  ploadbar=  1.01060586305470E+05
 cg2d: Sum(rhs),rhsMax =  -3.67198036510764E+01  3.07599581452037E+00
(PID.TID 0000.0001)  ploadbar=  1.01060281870155E+05
 cg2d: Sum(rhs),rhsMax =  -3.71269937567274E+01  3.04131871039039E+00
(PID.TID 0000.0001)  ploadbar=  1.01059977434840E+05
 cg2d: Sum(rhs),rhsMax =  -3.75484453006869E+01  3.00617160118710E+00
(PID.TID 0000.0001)  ploadbar=  1.01059672999526E+05
 cg2d: Sum(rhs),rhsMax =  -3.79651542155773E+01  2.97223038684153E+00
(PID.TID 0000.0001)  ploadbar=  1.01059262190127E+05
 cg2d: Sum(rhs),rhsMax =  -3.83905935968541E+01  2.93840648714908E+00
(PID.TID 0000.0001)  ploadbar=  1.01058851380729E+05
 cg2d: Sum(rhs),rhsMax =  -3.88224511432715E+01  2.90488792322414E+00
(PID.TID 0000.0001)  ploadbar=  1.01058440571330E+05
 cg2d: Sum(rhs),rhsMax =  -3.92564357671721E+01  2.87198950312359E+00
(PID.TID 0000.0001)  ploadbar=  1.01058029761932E+05
 cg2d: Sum(rhs),rhsMax =  -3.96884002465461E+01  2.83998152200764E+00
(PID.TID 0000.0001)  ploadbar=  1.01057618952533E+05
 cg2d: Sum(rhs),rhsMax =  -4.01136822683018E+01  2.80914395368951E+00
(PID.TID 0000.0001)  ploadbar=  1.01057208143135E+05
 cg2d: Sum(rhs),rhsMax =  -4.05353752597631E+01  2.77917214716151E+00
(PID.TID 0000.0001)  ploadbar=  1.01057744515797E+05
 cg2d: Sum(rhs),rhsMax =  -4.09653772882125E+01  2.74922262194931E+00
(PID.TID 0000.0001)  ploadbar=  1.01058280888458E+05
 cg2d: Sum(rhs),rhsMax =  -4.14155567331853E+01  2.71852785170385E+00
(PID.TID 0000.0001)  ploadbar=  1.01058817261120E+05
 cg2d: Sum(rhs),rhsMax =  -4.18911827890495E+01  2.68681190871185E+00
(PID.TID 0000.0001)  ploadbar=  1.01059353633782E+05
 cg2d: Sum(rhs),rhsMax =  -4.23938095813891E+01  2.65405991087478E+00
(PID.TID 0000.0001)  ploadbar=  1.01059890006443E+05
 cg2d: Sum(rhs),rhsMax =  -4.29202969958386E+01  2.62055128011734E+00
(PID.TID 0000.0001)  ploadbar=  1.01060426379105E+05
 cg2d: Sum(rhs),rhsMax =  -4.34465784605783E+01  2.58793258778415E+00
(PID.TID 0000.0001)  ploadbar=  1.01060609737929E+05
 cg2d: Sum(rhs),rhsMax =  -4.39591887618488E+01  2.55695100540108E+00
(PID.TID 0000.0001)  ploadbar=  1.01060793096753E+05
 cg2d: Sum(rhs),rhsMax =  -4.44469463805762E+01  2.52815274004825E+00
(PID.TID 0000.0001)  ploadbar=  1.01060976455577E+05
 cg2d: Sum(rhs),rhsMax =  -4.49056700250413E+01  2.50164251176744E+00
(PID.TID 0000.0001)  ploadbar=  1.01061159814401E+05
 cg2d: Sum(rhs),rhsMax =  -4.53375985042068E+01  2.47717128809119E+00
(PID.TID 0000.0001)  ploadbar=  1.01061343173225E+05
 cg2d: Sum(rhs),rhsMax =  -4.57464010721069E+01  2.45443326394103E+00
(PID.TID 0000.0001)  ploadbar=  1.01061526532049E+05
 cg2d: Sum(rhs),rhsMax =  -4.61479034376851E+01  2.43247999418864E+00
(PID.TID 0000.0001)  ploadbar=  1.01060913040664E+05
 cg2d: Sum(rhs),rhsMax =  -4.65428755866473E+01  2.41123227044714E+00
(PID.TID 0000.0001)  ploadbar=  1.01060299549280E+05
 cg2d: Sum(rhs),rhsMax =  -4.69406835807500E+01  2.39018024090750E+00
(PID.TID 0000.0001)  ploadbar=  1.01059686057896E+05
 cg2d: Sum(rhs),rhsMax =  -4.73432968663299E+01  2.36921495743597E+00
(PID.TID 0000.0001)  ploadbar=  1.01059072566512E+05
 cg2d: Sum(rhs),rhsMax =  -4.77506802246180E+01  2.34833219136616E+00
(PID.TID 0000.0001)  ploadbar=  1.01058459075128E+05
 cg2d: Sum(rhs),rhsMax =  -4.81612762249912E+01  2.32760336136564E+00
(PID.TID 0000.0001)  ploadbar=  1.01057845583744E+05
 cg2d: Sum(rhs),rhsMax =  -4.85651863060691E+01  2.30759727005618E+00
(PID.TID 0000.0001)  ploadbar=  1.01057382400916E+05
 cg2d: Sum(rhs),rhsMax =  -4.89727398305351E+01  2.28780031733562E+00
(PID.TID 0000.0001)  ploadbar=  1.01056919218087E+05
 cg2d: Sum(rhs),rhsMax =  -4.93566823960499E+01  2.26946365430156E+00
(PID.TID 0000.0001)  ploadbar=  1.01056456035258E+05
 cg2d: Sum(rhs),rhsMax =  -4.95753973547495E+01  2.25895697098081E+00
(PID.TID 0000.0001)  ploadbar=  1.01055992852430E+05
 cg2d: Sum(rhs),rhsMax =  -4.95873182370152E+01  2.25795629637020E+00
(PID.TID 0000.0001)  ploadbar=  1.01055529669601E+05
 cg2d: Sum(rhs),rhsMax =  -4.96035736132547E+01  2.25678891699274E+00
(PID.TID 0000.0001)  ploadbar=  1.01055066486772E+05
 cg2d: Sum(rhs),rhsMax =  -4.96229799784920E+01  2.25547690314868E+00
(PID.TID 0000.0001)  ploadbar=  1.01054246324216E+05
 cg2d: Sum(rhs),rhsMax =  -4.96432084437732E+01  2.25411760650025E+00
(PID.TID 0000.0001)  ploadbar=  1.01053426161659E+05
 cg2d: Sum(rhs),rhsMax =  -4.96608382702807E+01  2.25286129751338E+00
(PID.TID 0000.0001)  ploadbar=  1.01052605999103E+05
 cg2d: Sum(rhs),rhsMax =  -4.96758142367389E+01  2.25170687174863E+00
(PID.TID 0000.0001)  ploadbar=  1.01051785836546E+05
 cg2d: Sum(rhs),rhsMax =  -4.96883488471960E+01  2.25063897514367E+00
(PID.TID 0000.0001)  ploadbar=  1.01050965673990E+05
 cg2d: Sum(rhs),rhsMax =  -4.96987181644966E+01  2.24964000895240E+00
(PID.TID 0000.0001)  ploadbar=  1.01050145511433E+05
 cg2d: Sum(rhs),rhsMax =  -4.97009393835941E+01  2.24903901568187E+00
(PID.TID 0000.0001)  ploadbar=  1.01048355450267E+05
 cg2d: Sum(rhs),rhsMax =  -4.97041705964296E+01  2.24842037929384E+00
(PID.TID 0000.0001)  ploadbar=  1.01046565389101E+05
 cg2d: Sum(rhs),rhsMax =  -4.97072901454386E+01  2.24783227669923E+00
(PID.TID 0000.0001)  ploadbar=  1.01044775327935E+05
 cg2d: Sum(rhs),rhsMax =  -4.97097094540076E+01  2.24729749923925E+00
(PID.TID 0000.0001)  ploadbar=  1.01042985266769E+05
 cg2d: Sum(rhs),rhsMax =  -4.97107345693172E+01  2.24684167724316E+00
(PID.TID 0000.0001)  ploadbar=  1.01041195205604E+05
 cg2d: Sum(rhs),rhsMax =  -4.97149993229748E+01  2.24625132462290E+00
(PID.TID 0000.0001)  ploadbar=  1.01039405144438E+05
 cg2d: Sum(rhs),rhsMax =  -4.97095174446419E+01  2.24607695859883E+00
(PID.TID 0000.0001)  ploadbar=  1.01037768616506E+05
 cg2d: Sum(rhs),rhsMax =  -4.96903517036248E+01  2.24649223023180E+00
(PID.TID 0000.0001)  ploadbar=  1.01036132088575E+05
 cg2d: Sum(rhs),rhsMax =  -4.96635046318130E+01  2.24722153359142E+00
(PID.TID 0000.0001)  ploadbar=  1.01034495560643E+05
 cg2d: Sum(rhs),rhsMax =  -4.96293836781113E+01  2.24824299996598E+00
(PID.TID 0000.0001)  ploadbar=  1.01032859032712E+05
 cg2d: Sum(rhs),rhsMax =  -4.95882455526700E+01  2.24954010372082E+00
(PID.TID 0000.0001)  ploadbar=  1.01031222504780E+05
 cg2d: Sum(rhs),rhsMax =  -4.95410291979857E+01  2.25106387115676E+00
(PID.TID 0000.0001)  ploadbar=  1.01029585976849E+05
 cg2d: Sum(rhs),rhsMax =  -4.94893828208591E+01  2.25283933715724E+00
(PID.TID 0000.0001)  ploadbar=  1.01028903624494E+05
 cg2d: Sum(rhs),rhsMax =  -4.94317758361337E+01  2.25493272345636E+00
(PID.TID 0000.0001)  ploadbar=  1.01028221272140E+05
 cg2d: Sum(rhs),rhsMax =  -4.93736946735603E+01  2.25709672060806E+00
(PID.TID 0000.0001)  ploadbar=  1.01027538919786E+05
 cg2d: Sum(rhs),rhsMax =  -4.93178043890559E+01  2.25920414804998E+00
(PID.TID 0000.0001)  ploadbar=  1.01026856567431E+05
 cg2d: Sum(rhs),rhsMax =  -4.92647401024066E+01  2.26122116036014E+00
(PID.TID 0000.0001)  ploadbar=  1.01026174215077E+05
 cg2d: Sum(rhs),rhsMax =  -4.92150205073477E+01  2.26311857765539E+00
(PID.TID 0000.0001)  ploadbar=  1.01025491862722E+05
 cg2d: Sum(rhs),rhsMax =  -4.91698267905463E+01  2.26478582671290E+00
(PID.TID 0000.0001)  ploadbar=  1.01025047937463E+05
 cg2d: Sum(rhs),rhsMax =  -4.91294963894134E+01  2.26620009099061E+00
(PID.TID 0000.0001)  ploadbar=  1.01024604012204E+05
 cg2d: Sum(rhs),rhsMax =  -4.90982028063477E+01  2.26716254626129E+00
(PID.TID 0000.0001)  ploadbar=  1.01024160086945E+05
 cg2d: Sum(rhs),rhsMax =  -4.90774807052267E+01  2.26759828442273E+00
(PID.TID 0000.0001)  ploadbar=  1.01023716161686E+05
 cg2d: Sum(rhs),rhsMax =  -4.90680515577870E+01  2.26747177822659E+00
(PID.TID 0000.0001)  ploadbar=  1.01023272236427E+05
 cg2d: Sum(rhs),rhsMax =  -4.90708732601580E+01  2.26673133891098E+00
(PID.TID 0000.0001)  ploadbar=  1.01022828311168E+05
 cg2d: Sum(rhs),rhsMax =  -4.90929198843694E+01  2.26512850542815E+00
(PID.TID 0000.0001)  ploadbar=  1.01023412649126E+05
 cg2d: Sum(rhs),rhsMax =  -4.91297758983596E+01  2.26286627381287E+00
(PID.TID 0000.0001)  ploadbar=  1.01023996987084E+05
 cg2d: Sum(rhs),rhsMax =  -4.91789051437116E+01  2.26005977260338E+00
(PID.TID 0000.0001)  ploadbar=  1.01024581325043E+05
 cg2d: Sum(rhs),rhsMax =  -4.92387055320464E+01  2.25677918917626E+00
(PID.TID 0000.0001)  ploadbar=  1.01025165663001E+05
 cg2d: Sum(rhs),rhsMax =  -4.93073993885928E+01  2.25309939047145E+00
(PID.TID 0000.0001)  ploadbar=  1.01025750000959E+05
 cg2d: Sum(rhs),rhsMax =  -4.93829745156638E+01  2.24910768209847E+00
(PID.TID 0000.0001)  ploadbar=  1.01026334338917E+05
 cg2d: Sum(rhs),rhsMax =  -4.94693907828329E+01  2.24462648489524E+00
(PID.TID 0000.0001)  ploadbar=  1.01026465902956E+05
 cg2d: Sum(rhs),rhsMax =  -4.95650952537767E+01  2.23972548918410E+00
(PID.TID 0000.0001)  ploadbar=  1.01026597466995E+05
 cg2d: Sum(rhs),rhsMax =  -4.96683342213978E+01  2.23448267296955E+00
(PID.TID 0000.0001)  ploadbar=  1.01026729031034E+05
 cg2d: Sum(rhs),rhsMax =  -4.97759493495416E+01  2.22903970939711E+00
(PID.TID 0000.0001)  ploadbar=  1.01026860595073E+05
 cg2d: Sum(rhs),rhsMax =  -4.98860385287843E+01  2.22347866238696E+00
(PID.TID 0000.0001)  ploadbar=  1.01026992159112E+05
 cg2d: Sum(rhs),rhsMax =  -4.99961064909081E+01  2.21790729411406E+00
(PID.TID 0000.0001)  ploadbar=  1.01027123723151E+05
 cg2d: Sum(rhs),rhsMax =  -5.01081234701672E+01  2.21228536424579E+00
(PID.TID 0000.0001)  ploadbar=  1.01026758008447E+05
 cg2d: Sum(rhs),rhsMax =  -5.02168360254100E+01  2.20683782743278E+00
(PID.TID 0000.0001)  ploadbar=  1.01026392293742E+05
 cg2d: Sum(rhs),rhsMax =  -5.03205275863473E+01  2.20163172622347E+00
(PID.TID 0000.0001)  ploadbar=  1.01026026579038E+05
 cg2d: Sum(rhs),rhsMax =  -5.04163661316945E+01  2.19678119333969E+00
(PID.TID 0000.0001)  ploadbar=  1.01025660864334E+05
 cg2d: Sum(rhs),rhsMax =  -5.05041191351364E+01  2.19228121068646E+00
(PID.TID 0000.0001)  ploadbar=  1.01025295149629E+05
 cg2d: Sum(rhs),rhsMax =  -5.05842061462408E+01  2.18810352779201E+00
(PID.TID 0000.0001)  ploadbar=  1.01024929434925E+05
 cg2d: Sum(rhs),rhsMax =  -5.06594604364831E+01  2.18417551763860E+00
(PID.TID 0000.0001)  ploadbar=  1.01024534132106E+05
 cg2d: Sum(rhs),rhsMax =  -5.07349914335683E+01  2.18027047159613E+00
(PID.TID 0000.0001)  ploadbar=  1.01024138829286E+05
 cg2d: Sum(rhs),rhsMax =  -5.08070572228123E+01  2.17654350272969E+00
(PID.TID 0000.0001)  ploadbar=  1.01023743526467E+05
 cg2d: Sum(rhs),rhsMax =  -5.08750332567066E+01  2.17300976022070E+00
(PID.TID 0000.0001)  ploadbar=  1.01023348223647E+05
 cg2d: Sum(rhs),rhsMax =  -5.09418966446944E+01  2.16953406705661E+00
(PID.TID 0000.0001)  ploadbar=  1.01022952920828E+05
 cg2d: Sum(rhs),rhsMax =  -5.10144745807706E+01  2.16581872387888E+00
(PID.TID 0000.0001)  ploadbar=  1.01022557618008E+05
 cg2d: Sum(rhs),rhsMax =  -5.11107115761363E+01  2.16116202721970E+00
(PID.TID 0000.0001)  ploadbar=  1.01023299677392E+05
 cg2d: Sum(rhs),rhsMax =  -5.12417488947779E+01  2.15510283051930E+00
(PID.TID 0000.0001)  ploadbar=  1.01024041736776E+05
 cg2d: Sum(rhs),rhsMax =  -5.14086705675272E+01  2.14761376690080E+00
(PID.TID 0000.0001)  ploadbar=  1.01024783796160E+05
 cg2d: Sum(rhs),rhsMax =  -5.16109283854653E+01  2.13874104929333E+00
(PID.TID 0000.0001)  ploadbar=  1.01025525855545E+05
 cg2d: Sum(rhs),rhsMax =  -5.18481556149407E+01  2.12852641634930E+00
(PID.TID 0000.0001)  ploadbar=  1.01026267914929E+05
 cg2d: Sum(rhs),rhsMax =  -5.21219462727899E+01  2.11693588090140E+00
(PID.TID 0000.0001)  ploadbar=  1.01027009974313E+05
 cg2d: Sum(rhs),rhsMax =  -5.24276211380026E+01  2.10422361087223E+00
(PID.TID 0000.0001)  ploadbar=  1.01026606544881E+05
 cg2d: Sum(rhs),rhsMax =  -5.27644691064080E+01  2.09045455304929E+00
(PID.TID 0000.0001)  ploadbar=  1.01026203115448E+05
 cg2d: Sum(rhs),rhsMax =  -5.31144500103162E+01  2.07637296857312E+00
(PID.TID 0000.0001)  ploadbar=  1.01025799686016E+05
 cg2d: Sum(rhs),rhsMax =  -5.34709804772736E+01  2.06224132720534E+00
(PID.TID 0000.0001)  ploadbar=  1.01025396256584E+05
 cg2d: Sum(rhs),rhsMax =  -5.38294582590464E+01  2.04823715151650E+00
(PID.TID 0000.0001)  ploadbar=  1.01024992827152E+05
 cg2d: Sum(rhs),rhsMax =  -5.41821134688415E+01  2.03464518840065E+00
(PID.TID 0000.0001)  ploadbar=  1.01024589397719E+05
 cg2d: Sum(rhs),rhsMax =  -5.44937474005991E+01  2.02274174053288E+00
(PID.TID 0000.0001)  ploadbar=  1.01023975649582E+05
 cg2d: Sum(rhs),rhsMax =  -5.47646372149289E+01  2.01246533677263E+00
(PID.TID 0000.0001)  ploadbar=  1.01023361901445E+05
 cg2d: Sum(rhs),rhsMax =  -5.49796467669507E+01  2.00431654931943E+00
(PID.TID 0000.0001)  ploadbar=  1.01022748153308E+05
 cg2d: Sum(rhs),rhsMax =  -5.51418413253824E+01  1.99813166685845E+00
(PID.TID 0000.0001)  ploadbar=  1.01022134405171E+05
 cg2d: Sum(rhs),rhsMax =  -5.52636598659867E+01  1.99342223784604E+00
(PID.TID 0000.0001)  ploadbar=  1.01021520657034E+05
 cg2d: Sum(rhs),rhsMax =  -5.53599043941983E+01  1.98962969357315E+00
(PID.TID 0000.0001)  ploadbar=  1.01020906908897E+05
 cg2d: Sum(rhs),rhsMax =  -5.54377454316004E+01  1.98654707958422E+00
(PID.TID 0000.0001)  ploadbar=  1.01020955911927E+05
 cg2d: Sum(rhs),rhsMax =  -5.55086389757052E+01  1.98375537954135E+00
(PID.TID 0000.0001)  ploadbar=  1.01021004914957E+05
 cg2d: Sum(rhs),rhsMax =  -5.55688585070792E+01  1.98138021435601E+00
(PID.TID 0000.0001)  ploadbar=  1.01021053917988E+05
 cg2d: Sum(rhs),rhsMax =  -5.56075344158129E+01  1.97979795822825E+00
(PID.TID 0000.0001)  ploadbar=  1.01021102921018E+05
 cg2d: Sum(rhs),rhsMax =  -5.56066211655765E+01  1.97964152115716E+00
(PID.TID 0000.0001)  ploadbar=  1.01021151924048E+05
 cg2d: Sum(rhs),rhsMax =  -5.55458578948095E+01  1.98162480429215E+00
(PID.TID 0000.0001)  ploadbar=  1.01021200927078E+05
 cg2d: Sum(rhs),rhsMax =  -5.53995070187919E+01  1.98670544693147E+00
(PID.TID 0000.0001)  ploadbar=  1.01021240021388E+05
 cg2d: Sum(rhs),rhsMax =  -5.51736840597841E+01  1.99470719297586E+00
(PID.TID 0000.0001)  ploadbar=  1.01021279115698E+05
 cg2d: Sum(rhs),rhsMax =  -5.49083413882192E+01  2.00423696905015E+00
(PID.TID 0000.0001)  ploadbar=  1.01021318210009E+05
 cg2d: Sum(rhs),rhsMax =  -5.46037948652312E+01  2.01532187939353E+00
(PID.TID 0000.0001)  ploadbar=  1.01021357304319E+05
 cg2d: Sum(rhs),rhsMax =  -5.42698786065177E+01  2.02763993442003E+00
(PID.TID 0000.0001)  ploadbar=  1.01021396398629E+05
 cg2d: Sum(rhs),rhsMax =  -5.39202250018741E+01  2.04071190059739E+00
(PID.TID 0000.0001)  ploadbar=  1.01021435492939E+05
 cg2d: Sum(rhs),rhsMax =  -5.36220299632105E+01  2.05200074745788E+00
(PID.TID 0000.0001)  ploadbar=  1.01022319737040E+05
 cg2d: Sum(rhs),rhsMax =  -5.33465997651026E+01  2.06255175604427E+00
(PID.TID 0000.0001)  ploadbar=  1.01023203981140E+05
 cg2d: Sum(rhs),rhsMax =  -5.31103398163562E+01  2.07169033846535E+00
(PID.TID 0000.0001)  ploadbar=  1.01024088225240E+05
 cg2d: Sum(rhs),rhsMax =  -5.29159135460457E+01  2.07926794499238E+00
(PID.TID 0000.0001)  ploadbar=  1.01024972469341E+05
 cg2d: Sum(rhs),rhsMax =  -5.27578436602004E+01  2.08545861550523E+00
(PID.TID 0000.0001)  ploadbar=  1.01025856713441E+05
 cg2d: Sum(rhs),rhsMax =  -5.26343049946385E+01  2.09030605492333E+00
(PID.TID 0000.0001)  ploadbar=  1.01026740957541E+05
 cg2d: Sum(rhs),rhsMax =  -5.25500557616438E+01  2.09361584157132E+00
(PID.TID 0000.0001)  ploadbar=  1.01028171995960E+05
 cg2d: Sum(rhs),rhsMax =  -5.24905703502504E+01  2.09594814606535E+00
(PID.TID 0000.0001)  ploadbar=  1.01029603034379E+05
 cg2d: Sum(rhs),rhsMax =  -5.24436308842981E+01  2.09778077688768E+00
(PID.TID 0000.0001)  ploadbar=  1.01031034072798E+05
 cg2d: Sum(rhs),rhsMax =  -5.24116887077250E+01  2.09900389951145E+00
(PID.TID 0000.0001)  ploadbar=  1.01032465111217E+05
 cg2d: Sum(rhs),rhsMax =  -5.23970410972290E+01  2.09951651824158E+00
(PID.TID 0000.0001)  ploadbar=  1.01033896149636E+05
 cg2d: Sum(rhs),rhsMax =  -5.24008960085945E+01  2.09926247552091E+00
(PID.TID 0000.0001)  ploadbar=  1.01035327188055E+05
 cg2d: Sum(rhs),rhsMax =  -5.24350395548842E+01  2.09780736192078E+00
(PID.TID 0000.0001)  ploadbar=  1.01036201908655E+05
 cg2d: Sum(rhs),rhsMax =  -5.24972126676277E+01  2.09524240485100E+00
(PID.TID 0000.0001)  ploadbar=  1.01037076629255E+05
 cg2d: Sum(rhs),rhsMax =  -5.25779209502116E+01  2.09194727852826E+00
(PID.TID 0000.0001)  ploadbar=  1.01037951349855E+05
 cg2d: Sum(rhs),rhsMax =  -5.26724373152786E+01  2.08810789171844E+00
(PID.TID 0000.0001)  ploadbar=  1.01038826070455E+05
 cg2d: Sum(rhs),rhsMax =  -5.27764323680079E+01  2.08390206794470E+00
(PID.TID 0000.0001)  ploadbar=  1.01039700791055E+05
 cg2d: Sum(rhs),rhsMax =  -5.28886013562051E+01  2.07937743288796E+00
(PID.TID 0000.0001)  ploadbar=  1.01040575511655E+05
 cg2d: Sum(rhs),rhsMax =  -5.29976226221065E+01  2.07502383626457E+00
(PID.TID 0000.0001)  ploadbar=  1.01041320139312E+05
 cg2d: Sum(rhs),rhsMax =  -5.31232530875574E+01  2.07006217694225E+00
(PID.TID 0000.0001)  ploadbar=  1.01042064766970E+05
 cg2d: Sum(rhs),rhsMax =  -5.32668025715925E+01  2.06444505769216E+00
(PID.TID 0000.0001)  ploadbar=  1.01042809394628E+05
 cg2d: Sum(rhs),rhsMax =  -5.34280422008078E+01  2.05819328920093E+00
(PID.TID 0000.0001)  ploadbar=  1.01043554022286E+05
 cg2d: Sum(rhs),rhsMax =  -5.36049424386820E+01  2.05139391596120E+00
(PID.TID 0000.0001)  ploadbar=  1.01044298649944E+05
 cg2d: Sum(rhs),rhsMax =  -5.37998059063462E+01  2.04396859148825E+00
(PID.TID 0000.0001)  ploadbar=  1.01045043277601E+05
 cg2d: Sum(rhs),rhsMax =  -5.39963985905592E+01  2.03656161307382E+00
(PID.TID 0000.0001)  ploadbar=  1.01045631316328E+05
 cg2d: Sum(rhs),rhsMax =  -5.42057310622469E+01  2.02875905354634E+00
(PID.TID 0000.0001)  ploadbar=  1.01046219355054E+05
 cg2d: Sum(rhs),rhsMax =  -5.44228371778068E+01  2.02075161053896E+00
(PID.TID 0000.0001)  ploadbar=  1.01046807393781E+05
 cg2d: Sum(rhs),rhsMax =  -5.46461025042389E+01  2.01260045381432E+00
(PID.TID 0000.0001)  ploadbar=  1.01047395432507E+05
 cg2d: Sum(rhs),rhsMax =  -5.48743019068021E+01  2.00435078110285E+00
(PID.TID 0000.0001)  ploadbar=  1.01047983471233E+05
 cg2d: Sum(rhs),rhsMax =  -5.51064944975433E+01  1.99603828675962E+00
(PID.TID 0000.0001)  ploadbar=  1.01048571509960E+05
 cg2d: Sum(rhs),rhsMax =  -5.53294113400540E+01  1.98812256639935E+00
(PID.TID 0000.0001)  ploadbar=  1.01049954984982E+05
 cg2d: Sum(rhs),rhsMax =  -5.55558044017248E+01  1.98013254997819E+00
(PID.TID 0000.0001)  ploadbar=  1.01051338460005E+05
 cg2d: Sum(rhs),rhsMax =  -5.57829294651357E+01  1.97216218744855E+00
(PID.TID 0000.0001)  ploadbar=  1.01052721935027E+05
 cg2d: Sum(rhs),rhsMax =  -5.60083426835746E+01  1.96429186789020E+00
(PID.TID 0000.0001)  ploadbar=  1.01054105410049E+05
 cg2d: Sum(rhs),rhsMax =  -5.62300258170069E+01  1.95658693600561E+00
(PID.TID 0000.0001)  ploadbar=  1.01055488885072E+05
 cg2d: Sum(rhs),rhsMax =  -5.64452783265577E+01  1.94913560959163E+00
(PID.TID 0000.0001)  ploadbar=  1.01056872360094E+05
 cg2d: Sum(rhs),rhsMax =  -5.66639021169225E+01  1.94163938343270E+00
(PID.TID 0000.0001)  ploadbar=  1.01056330413372E+05
 cg2d: Sum(rhs),rhsMax =  -5.68689818061827E+01  1.93467092896697E+00
(PID.TID 0000.0001)  ploadbar=  1.01055788466649E+05
 cg2d: Sum(rhs),rhsMax =  -5.70597048627709E+01  1.92824425006022E+00
(PID.TID 0000.0001)  ploadbar=  1.01055246519926E+05
 cg2d: Sum(rhs),rhsMax =  -5.72372505914116E+01  1.92230612181985E+00
(PID.TID 0000.0001)  ploadbar=  1.01054704573203E+05
 cg2d: Sum(rhs),rhsMax =  -5.73994102148517E+01  1.91691554244000E+00
(PID.TID 0000.0001)  ploadbar=  1.01054162626481E+05
 cg2d: Sum(rhs),rhsMax =  -5.75460819154360E+01  1.91206039775585E+00
(PID.TID 0000.0001)  ploadbar=  1.01053620679758E+05
 cg2d: Sum(rhs),rhsMax =  -5.76788439122356E+01  1.90771659950293E+00
(PID.TID 0000.0001)  ploadbar=  1.01052442602887E+05
 cg2d: Sum(rhs),rhsMax =  -5.78016128164626E+01  1.90374460359000E+00
(PID.TID 0000.0001)  ploadbar=  1.01051264526016E+05
 cg2d: Sum(rhs),rhsMax =  -5.79237941244797E+01  1.89983018769845E+00
(PID.TID 0000.0001)  ploadbar=  1.01050086449145E+05
 cg2d: Sum(rhs),rhsMax =  -5.80445820976478E+01  1.89599654122604E+00
(PID.TID 0000.0001)  ploadbar=  1.01048908372274E+05
 cg2d: Sum(rhs),rhsMax =  -5.81654268054843E+01  1.89218850882838E+00
(PID.TID 0000.0001)  ploadbar=  1.01047730295403E+05
 cg2d: Sum(rhs),rhsMax =  -5.82867249536297E+01  1.88839232213978E+00
(PID.TID 0000.0001)  ploadbar=  1.01046552218532E+05
 cg2d: Sum(rhs),rhsMax =  -5.83878422286322E+01  1.88524525057584E+00
(PID.TID 0000.0001)  ploadbar=  1.01045263603393E+05
 cg2d: Sum(rhs),rhsMax =  -5.84830565512077E+01  1.88227741634925E+00
(PID.TID 0000.0001)  ploadbar=  1.01043974988254E+05
 cg2d: Sum(rhs),rhsMax =  -5.85771206308929E+01  1.87933059526695E+00
(PID.TID 0000.0001)  ploadbar=  1.01042686373115E+05
 cg2d: Sum(rhs),rhsMax =  -5.86703044587132E+01  1.87638857709507E+00
(PID.TID 0000.0001)  ploadbar=  1.01041397757976E+05
 cg2d: Sum(rhs),rhsMax =  -5.87632969640779E+01  1.87342490417859E+00
(PID.TID 0000.0001)  ploadbar=  1.01040109142838E+05
 cg2d: Sum(rhs),rhsMax =  -5.88563373218568E+01  1.87042814240943E+00
(PID.TID 0000.0001)  ploadbar=  1.01038820527699E+05
 cg2d: Sum(rhs),rhsMax =  -5.89547546981321E+01  1.86727080635482E+00
(PID.TID 0000.0001)  ploadbar=  1.01038816408192E+05
 cg2d: Sum(rhs),rhsMax =  -5.90606426591032E+01  1.86388574013405E+00
(PID.TID 0000.0001)  ploadbar=  1.01038812288685E+05
 cg2d: Sum(rhs),rhsMax =  -5.91662411093439E+01  1.86051486126787E+00
(PID.TID 0000.0001)  ploadbar=  1.01038808169178E+05
 cg2d: Sum(rhs),rhsMax =  -5.92750147340949E+01  1.85704714029252E+00
(PID.TID 0000.0001)  ploadbar=  1.01038804049671E+05
 cg2d: Sum(rhs),rhsMax =  -5.93895769193802E+01  1.85340023477468E+00
(PID.TID 0000.0001)  ploadbar=  1.01038799930164E+05
 cg2d: Sum(rhs),rhsMax =  -5.95135561300978E+01  1.84945898182738E+00
(PID.TID 0000.0001)  ploadbar=  1.01038795810657E+05
 cg2d: Sum(rhs),rhsMax =  -5.96359726558272E+01  1.84555681289130E+00
(PID.TID 0000.0001)  ploadbar=  1.01038351506348E+05
 cg2d: Sum(rhs),rhsMax =  -5.97674016239711E+01  1.84136529266925E+00
(PID.TID 0000.0001)  ploadbar=  1.01037907202038E+05
 cg2d: Sum(rhs),rhsMax =  -5.99257863009230E+01  1.83633518487912E+00
(PID.TID 0000.0001)  ploadbar=  1.01037462897729E+05
 cg2d: Sum(rhs),rhsMax =  -6.01211643380670E+01  1.83016829078771E+00
(PID.TID 0000.0001)  ploadbar=  1.01037018593419E+05
 cg2d: Sum(rhs),rhsMax =  -6.03624492865819E+01  1.82261553783419E+00
(PID.TID 0000.0001)  ploadbar=  1.01036574289110E+05
 cg2d: Sum(rhs),rhsMax =  -6.06459381237370E+01  1.81381829262186E+00
(PID.TID 0000.0001)  ploadbar=  1.01036129984801E+05
 cg2d: Sum(rhs),rhsMax =  -6.09620319635999E+01  1.80417601096553E+00
(PID.TID 0000.0001)  ploadbar=  1.01035254698044E+05
 cg2d: Sum(rhs),rhsMax =  -6.12542188792636E+01  1.79537363264915E+00
(PID.TID 0000.0001)  ploadbar=  1.01034379411288E+05
 cg2d: Sum(rhs),rhsMax =  -6.15478856459535E+01  1.78664923099653E+00
(PID.TID 0000.0001)  ploadbar=  1.01033504124531E+05
 cg2d: Sum(rhs),rhsMax =  -6.17665286065597E+01  1.78020578593316E+00
(PID.TID 0000.0001)  ploadbar=  1.01032628837775E+05
 cg2d: Sum(rhs),rhsMax =  -6.18838536525134E+01  1.77675314250485E+00
(PID.TID 0000.0001)  ploadbar=  1.01031753551018E+05
 cg2d: Sum(rhs),rhsMax =  -6.19480538586319E+01  1.77487764596473E+00
(PID.TID 0000.0001)  ploadbar=  1.01030878264262E+05
 cg2d: Sum(rhs),rhsMax =  -6.19528212902265E+01  1.77470910801993E+00
(PID.TID 0000.0001)  ploadbar=  1.01029722958956E+05
 cg2d: Sum(rhs),rhsMax =  -6.18294742201893E+01  1.77821807564405E+00
(PID.TID 0000.0001)  ploadbar=  1.01028567653649E+05
 cg2d: Sum(rhs),rhsMax =  -6.14978804762855E+01  1.78777281664956E+00
(PID.TID 0000.0001)  ploadbar=  1.01027412348343E+05
 cg2d: Sum(rhs),rhsMax =  -6.11309397893379E+01  1.79846446136317E+00
(PID.TID 0000.0001)  ploadbar=  1.01026257043037E+05
 cg2d: Sum(rhs),rhsMax =  -6.08865778417947E+01  1.80563240648569E+00
(PID.TID 0000.0001)  ploadbar=  1.01025101737730E+05
 cg2d: Sum(rhs),rhsMax =  -6.06829287674670E+01  1.81162806004367E+00
(PID.TID 0000.0001)  ploadbar=  1.01023946432424E+05
 cg2d: Sum(rhs),rhsMax =  -6.04924421554939E+01  1.81725934060785E+00
(PID.TID 0000.0001)  ploadbar=  1.01024357943090E+05
 cg2d: Sum(rhs),rhsMax =  -6.03170078609115E+01  1.82245929395412E+00
(PID.TID 0000.0001)  ploadbar=  1.01024769453755E+05
 cg2d: Sum(rhs),rhsMax =  -6.01477881124379E+01  1.82748765725186E+00
(PID.TID 0000.0001)  ploadbar=  1.01025180964421E+05
 cg2d: Sum(rhs),rhsMax =  -5.99757535021995E+01  1.83261092438982E+00
(PID.TID 0000.0001)  ploadbar=  1.01025592475086E+05
 cg2d: Sum(rhs),rhsMax =  -5.97967924524254E+01  1.83795318435529E+00
(PID.TID 0000.0001)  ploadbar=  1.01026003985752E+05
 cg2d: Sum(rhs),rhsMax =  -5.96090721700784E+01  1.84357282767487E+00
(PID.TID 0000.0001)  ploadbar=  1.01026415496417E+05
 cg2d: Sum(rhs),rhsMax =  -5.94006412269614E+01  1.84985386253727E+00
(PID.TID 0000.0001)  ploadbar=  1.01027313136430E+05
 cg2d: Sum(rhs),rhsMax =  -5.91930387708166E+01  1.85612932489840E+00
(PID.TID 0000.0001)  ploadbar=  1.01028210776443E+05
 cg2d: Sum(rhs),rhsMax =  -5.89945543736817E+01  1.86213180985879E+00
(PID.TID 0000.0001)  ploadbar=  1.01029108416456E+05
 cg2d: Sum(rhs),rhsMax =  -5.88117616780855E+01  1.86764578237081E+00
(PID.TID 0000.0001)  ploadbar=  1.01030006056469E+05
 cg2d: Sum(rhs),rhsMax =  -5.86477519852431E+01  1.87255404708459E+00
(PID.TID 0000.0001)  ploadbar=  1.01030903696482E+05
 cg2d: Sum(rhs),rhsMax =  -5.85028957356387E+01  1.87682914436314E+00
(PID.TID 0000.0001)  ploadbar=  1.01031801336495E+05
 cg2d: Sum(rhs),rhsMax =  -5.83801555043882E+01  1.88043347064382E+00
(PID.TID 0000.0001)  ploadbar=  1.01033433228360E+05
 cg2d: Sum(rhs),rhsMax =  -5.82791193629962E+01  1.88336895898171E+00
(PID.TID 0000.0001)  ploadbar=  1.01035065120224E+05
 cg2d: Sum(rhs),rhsMax =  -5.81923132777146E+01  1.88586944970827E+00
(PID.TID 0000.0001)  ploadbar=  1.01036697012089E+05
 cg2d: Sum(rhs),rhsMax =  -5.81172079423417E+01  1.88801237590311E+00
(PID.TID 0000.0001)  ploadbar=  1.01038328903954E+05
 cg2d: Sum(rhs),rhsMax =  -5.80536184570907E+01  1.88979542551680E+00
(PID.TID 0000.0001)  ploadbar=  1.01039960795819E+05
 cg2d: Sum(rhs),rhsMax =  -5.80003541931620E+01  1.89125093537335E+00
(PID.TID 0000.0001)  ploadbar=  1.01041592687684E+05
 cg2d: Sum(rhs),rhsMax =  -5.79634957399808E+01  1.89217865048043E+00
(PID.TID 0000.0001)  ploadbar=  1.01042804702434E+05
 cg2d: Sum(rhs),rhsMax =  -5.79352733135942E+01  1.89282703524907E+00
(PID.TID 0000.0001)  ploadbar=  1.01044016717184E+05
 cg2d: Sum(rhs),rhsMax =  -5.79153350694820E+01  1.89320434396472E+00
(PID.TID 0000.0001)  ploadbar=  1.01045228731935E+05
 cg2d: Sum(rhs),rhsMax =  -5.79029910363609E+01  1.89332719850194E+00
(PID.TID 0000.0001)  ploadbar=  1.01046440746685E+05
 cg2d: Sum(rhs),rhsMax =  -5.78967772121283E+01  1.89323735249643E+00
(PID.TID 0000.0001)  ploadbar=  1.01047652761435E+05
 cg2d: Sum(rhs),rhsMax =  -5.78960965648709E+01  1.89295011080929E+00
(PID.TID 0000.0001)  ploadbar=  1.01048864776185E+05
 cg2d: Sum(rhs),rhsMax =  -5.79059742029486E+01  1.89234754463287E+00
(PID.TID 0000.0001)  ploadbar=  1.01050299676914E+05
 cg2d: Sum(rhs),rhsMax =  -5.79202590046711E+01  1.89162462072730E+00
(PID.TID 0000.0001)  ploadbar=  1.01051734577642E+05
 cg2d: Sum(rhs),rhsMax =  -5.79367915990623E+01  1.89085047344094E+00
(PID.TID 0000.0001)  ploadbar=  1.01053169478371E+05
 cg2d: Sum(rhs),rhsMax =  -5.79571482178600E+01  1.88996926884706E+00
(PID.TID 0000.0001)  ploadbar=  1.01054604379100E+05
 cg2d: Sum(rhs),rhsMax =  -5.79813283011889E+01  1.88897394225786E+00
(PID.TID 0000.0001)  ploadbar=  1.01056039279828E+05
 cg2d: Sum(rhs),rhsMax =  -5.80099556922915E+01  1.88783912877264E+00
(PID.TID 0000.0001)  ploadbar=  1.01057474180557E+05
 cg2d: Sum(rhs),rhsMax =  -5.80334909360905E+01  1.88686108226743E+00
(PID.TID 0000.0001)  ploadbar=  1.01058147640260E+05
 cg2d: Sum(rhs),rhsMax =  -5.80561535431400E+01  1.88589719241143E+00
(PID.TID 0000.0001)  ploadbar=  1.01058821099964E+05
 cg2d: Sum(rhs),rhsMax =  -5.80779838142798E+01  1.88494043307129E+00
(PID.TID 0000.0001)  ploadbar=  1.01059494559668E+05
 cg2d: Sum(rhs),rhsMax =  -5.80998917431768E+01  1.88395439959604E+00
(PID.TID 0000.0001)  ploadbar=  1.01060168019371E+05
 cg2d: Sum(rhs),rhsMax =  -5.81207916049593E+01  1.88296657224453E+00
(PID.TID 0000.0001)  ploadbar=  1.01060841479075E+05
 cg2d: Sum(rhs),rhsMax =  -5.81402862664362E+01  1.88198525623270E+00
(PID.TID 0000.0001)  ploadbar=  1.01061514938778E+05
 cg2d: Sum(rhs),rhsMax =  -5.81622881796883E+01  1.88094631338765E+00
(PID.TID 0000.0001)  ploadbar=  1.01062298042271E+05
 cg2d: Sum(rhs),rhsMax =  -5.81824273124306E+01  1.87998673017838E+00
(PID.TID 0000.0001)  ploadbar=  1.01063081145763E+05
 cg2d: Sum(rhs),rhsMax =  -5.81975870901711E+01  1.87920197976899E+00
(PID.TID 0000.0001)  ploadbar=  1.01063864249255E+05
 cg2d: Sum(rhs),rhsMax =  -5.82096299568029E+01  1.87852408579748E+00
(PID.TID 0000.0001)  ploadbar=  1.01064647352748E+05
 cg2d: Sum(rhs),rhsMax =  -5.82186821562209E+01  1.87794239493660E+00
(PID.TID 0000.0001)  ploadbar=  1.01065430456240E+05
 cg2d: Sum(rhs),rhsMax =  -5.82236411342598E+01  1.87748759973290E+00
(PID.TID 0000.0001)  ploadbar=  1.01066213559732E+05
 cg2d: Sum(rhs),rhsMax =  -5.82315461030943E+01  1.87693352346445E+00
(PID.TID 0000.0001)  ploadbar=  1.01067074828687E+05
 cg2d: Sum(rhs),rhsMax =  -5.82355400141845E+01  1.87649822704859E+00
(PID.TID 0000.0001)  ploadbar=  1.01067936097642E+05
 cg2d: Sum(rhs),rhsMax =  -5.82419241421502E+01  1.87597393259849E+00
(PID.TID 0000.0001)  ploadbar=  1.01068797366596E+05
 cg2d: Sum(rhs),rhsMax =  -5.82516425902657E+01  1.87532433387708E+00
(PID.TID 0000.0001)  ploadbar=  1.01069658635551E+05
 cg2d: Sum(rhs),rhsMax =  -5.82644718389657E+01  1.87454982806269E+00
(PID.TID 0000.0001)  ploadbar=  1.01070519904506E+05
 cg2d: Sum(rhs),rhsMax =  -5.82814303271290E+01  1.87361501010281E+00
(PID.TID 0000.0001)  ploadbar=  1.01071381173461E+05
 cg2d: Sum(rhs),rhsMax =  -5.82933499916046E+01  1.87284814370170E+00
(PID.TID 0000.0001)  ploadbar=  1.01071611254124E+05
 cg2d: Sum(rhs),rhsMax =  -5.83129642996489E+01  1.87183643280286E+00
(PID.TID 0000.0001)  ploadbar=  1.01071841334787E+05
 cg2d: Sum(rhs),rhsMax =  -5.83440175560620E+01  1.87045733782958E+00
(PID.TID 0000.0001)  ploadbar=  1.01072071415450E+05
 cg2d: Sum(rhs),rhsMax =  -5.83855623491586E+01  1.86873605253342E+00
(PID.TID 0000.0001)  ploadbar=  1.01072301496113E+05
 cg2d: Sum(rhs),rhsMax =  -5.84401466170508E+01  1.86658602941595E+00
(PID.TID 0000.0001)  ploadbar=  1.01072531576776E+05
 cg2d: Sum(rhs),rhsMax =  -5.85081071469348E+01  1.86399131714161E+00
(PID.TID 0000.0001)  ploadbar=  1.01072761657439E+05
 cg2d: Sum(rhs),rhsMax =  -5.85864028470759E+01  1.86109037091636E+00
(PID.TID 0000.0001)  ploadbar=  1.01074111242271E+05
 cg2d: Sum(rhs),rhsMax =  -5.86783198579854E+01  1.85777745442225E+00
(PID.TID 0000.0001)  ploadbar=  1.01075460827103E+05
 cg2d: Sum(rhs),rhsMax =  -5.87876572687930E+01  1.85393125572038E+00
(PID.TID 0000.0001)  ploadbar=  1.01076810411936E+05
 cg2d: Sum(rhs),rhsMax =  -5.89107844450553E+01  1.84966506070360E+00
(PID.TID 0000.0001)  ploadbar=  1.01078159996768E+05
 cg2d: Sum(rhs),rhsMax =  -5.90475603003834E+01  1.84498505839016E+00
(PID.TID 0000.0001)  ploadbar=  1.01079509581600E+05
 cg2d: Sum(rhs),rhsMax =  -5.91980440817925E+01  1.83989228532514E+00
(PID.TID 0000.0001)  ploadbar=  1.01080859166432E+05
 cg2d: Sum(rhs),rhsMax =  -5.93637842233820E+01  1.83437052532593E+00
(PID.TID 0000.0001)  ploadbar=  1.01082920753139E+05
 cg2d: Sum(rhs),rhsMax =  -5.95471785480910E+01  1.82835316711828E+00
(PID.TID 0000.0001)  ploadbar=  1.01084982339845E+05
 cg2d: Sum(rhs),rhsMax =  -5.97522078856359E+01  1.82172600829774E+00
(PID.TID 0000.0001)  ploadbar=  1.01087043926552E+05
 cg2d: Sum(rhs),rhsMax =  -5.99853071049461E+01  1.81430370281438E+00
(PID.TID 0000.0001)  ploadbar=  1.01089105513259E+05
 cg2d: Sum(rhs),rhsMax =  -6.02533154509080E+01  1.80589852264988E+00
(PID.TID 0000.0001)  ploadbar=  1.01091167099965E+05
 cg2d: Sum(rhs),rhsMax =  -6.05536870089036E+01  1.79661144047814E+00
(PID.TID 0000.0001)  ploadbar=  1.01093228686672E+05
 cg2d: Sum(rhs),rhsMax =  -6.08807121239039E+01  1.78664157389394E+00
(PID.TID 0000.0001)  ploadbar=  1.01094313657841E+05
 cg2d: Sum(rhs),rhsMax =  -6.12289392027384E+01  1.77616851407661E+00
(PID.TID 0000.0001)  ploadbar=  1.01095398629011E+05
 cg2d: Sum(rhs),rhsMax =  -6.15877140533050E+01  1.76551288121664E+00
(PID.TID 0000.0001)  ploadbar=  1.01096483600180E+05
 cg2d: Sum(rhs),rhsMax =  -6.19492092511307E+01  1.75489681474152E+00
(PID.TID 0000.0001)  ploadbar=  1.01097568571349E+05
 cg2d: Sum(rhs),rhsMax =  -6.22674209766020E+01  1.74560465227096E+00
(PID.TID 0000.0001)  ploadbar=  1.01098653542519E+05
 cg2d: Sum(rhs),rhsMax =  -6.25434084509820E+01  1.73756590609441E+00
(PID.TID 0000.0001)  ploadbar=  1.01099738513688E+05
 cg2d: Sum(rhs),rhsMax =  -6.28120140885377E+01  1.72979198179915E+00
(PID.TID 0000.0001)  ploadbar=  1.01099399417284E+05
 cg2d: Sum(rhs),rhsMax =  -6.30763949702215E+01  1.72218982994611E+00
(PID.TID 0000.0001)  ploadbar=  1.01099060320881E+05
 cg2d: Sum(rhs),rhsMax =  -6.33286243548429E+01  1.71496612999546E+00
(PID.TID 0000.0001)  ploadbar=  1.01098721224477E+05
 cg2d: Sum(rhs),rhsMax =  -6.35720960194696E+01  1.70801509514459E+00
(PID.TID 0000.0001)  ploadbar=  1.01098382128073E+05
 cg2d: Sum(rhs),rhsMax =  -6.38091200001800E+01  1.70126136295661E+00
(PID.TID 0000.0001)  ploadbar=  1.01098043031670E+05
 cg2d: Sum(rhs),rhsMax =  -6.40402809586088E+01  1.69468180255296E+00
(PID.TID 0000.0001)  ploadbar=  1.01097703935266E+05
 cg2d: Sum(rhs),rhsMax =  -6.42655253868122E+01  1.68832769708272E+00
(PID.TID 0000.0001)  ploadbar=  1.01097084696040E+05
 cg2d: Sum(rhs),rhsMax =  -6.44898275343066E+01  1.68206182616248E+00
(PID.TID 0000.0001)  ploadbar=  1.01096465456815E+05
 cg2d: Sum(rhs),rhsMax =  -6.36151262147476E+01  1.70480783244954E+00
(PID.TID 0000.0001)  ploadbar=  1.01095846217589E+05
 cg2d: Sum(rhs),rhsMax =  -6.23406876918023E+01  1.73928344982272E+00
(PID.TID 0000.0001)  ploadbar=  1.01095226978363E+05
 cg2d: Sum(rhs),rhsMax =  -6.11567207461015E+01  1.77258409704602E+00
(PID.TID 0000.0001)  ploadbar=  1.01094607739137E+05
 cg2d: Sum(rhs),rhsMax =  -6.00556622901349E+01  1.80471573734121E+00
(PID.TID 0000.0001)  ploadbar=  1.01093988499912E+05
 cg2d: Sum(rhs),rhsMax =  -5.90227323604141E+01  1.83595734449597E+00
(PID.TID 0000.0001)  ploadbar=  1.01092887726821E+05
 cg2d: Sum(rhs),rhsMax =  -5.80567878807009E+01  1.86618889627685E+00
(PID.TID 0000.0001)  ploadbar=  1.01091786953730E+05
 cg2d: Sum(rhs),rhsMax =  -5.71476023816516E+01  1.89558754044378E+00
(PID.TID 0000.0001)  ploadbar=  1.01090686180639E+05
 cg2d: Sum(rhs),rhsMax =  -5.62903861839395E+01  1.92418330542386E+00
(PID.TID 0000.0001)  ploadbar=  1.01089585407548E+05
 cg2d: Sum(rhs),rhsMax =  -5.54812140774598E+01  1.95199128101007E+00
(PID.TID 0000.0001)  ploadbar=  1.01088484634457E+05
 cg2d: Sum(rhs),rhsMax =  -5.47201704135894E+01  1.97889476652171E+00
(PID.TID 0000.0001)  ploadbar=  1.01087383861366E+05
 cg2d: Sum(rhs),rhsMax =  -5.40148717774847E+01  2.00448674963263E+00
(PID.TID 0000.0001)  ploadbar=  1.01085991733769E+05
 cg2d: Sum(rhs),rhsMax =  -5.33977672817068E+01  2.02739839276151E+00
(PID.TID 0000.0001)  ploadbar=  1.01084599606173E+05
 cg2d: Sum(rhs),rhsMax =  -5.28947783649895E+01  2.04641326291813E+00
(PID.TID 0000.0001)  ploadbar=  1.01083207478576E+05
 cg2d: Sum(rhs),rhsMax =  -5.25248171910964E+01  2.06055083288095E+00
(PID.TID 0000.0001)  ploadbar=  1.01081815350980E+05
 cg2d: Sum(rhs),rhsMax =  -5.22796228356214E+01  2.06992215872382E+00
(PID.TID 0000.0001)  ploadbar=  1.01080423223384E+05
 cg2d: Sum(rhs),rhsMax =  -5.21530824831618E+01  2.07463197202683E+00
(PID.TID 0000.0001)  ploadbar=  1.01079031095787E+05
 cg2d: Sum(rhs),rhsMax =  -5.21325633848198E+01  2.07518839965650E+00
(PID.TID 0000.0001)  ploadbar=  1.01078273852598E+05
 cg2d: Sum(rhs),rhsMax =  -5.21686008231631E+01  2.07354272929845E+00
(PID.TID 0000.0001)  ploadbar=  1.01077516609409E+05
 cg2d: Sum(rhs),rhsMax =  -5.22345595443739E+01  2.07075165875715E+00
(PID.TID 0000.0001)  ploadbar=  1.01076759366220E+05
 cg2d: Sum(rhs),rhsMax =  -5.23330819911380E+01  2.06671210076022E+00
(PID.TID 0000.0001)  ploadbar=  1.01076002123031E+05
 cg2d: Sum(rhs),rhsMax =  -5.24614416835148E+01  2.06154103320610E+00
(PID.TID 0000.0001)  ploadbar=  1.01075244879842E+05
 cg2d: Sum(rhs),rhsMax =  -5.26204438355918E+01  2.05521827877474E+00
(PID.TID 0000.0001)  ploadbar=  1.01074487636653E+05
 cg2d: Sum(rhs),rhsMax =  -5.28106614183029E+01  2.04772204142203E+00
(PID.TID 0000.0001)  ploadbar=  1.01075159813561E+05
 cg2d: Sum(rhs),rhsMax =  -5.30151072937282E+01  2.03972980118078E+00
(PID.TID 0000.0001)  ploadbar=  1.01075831990468E+05
 cg2d: Sum(rhs),rhsMax =  -5.32192577448058E+01  2.03180391933120E+00
(PID.TID 0000.0001)  ploadbar=  1.01076504167376E+05
 cg2d: Sum(rhs),rhsMax =  -5.34113245242356E+01  2.02438636237883E+00
(PID.TID 0000.0001)  ploadbar=  1.01077176344284E+05
 cg2d: Sum(rhs),rhsMax =  -5.35857717382408E+01  2.01766901877061E+00
(PID.TID 0000.0001)  ploadbar=  1.01077848521192E+05
 cg2d: Sum(rhs),rhsMax =  -5.37390329733868E+01  2.01176525646927E+00
(PID.TID 0000.0001)  ploadbar=  1.01078520698099E+05
 cg2d: Sum(rhs),rhsMax =  -5.38884676977596E+01  2.00604895152298E+00
(PID.TID 0000.0001)  ploadbar=  1.01079360005563E+05
 cg2d: Sum(rhs),rhsMax =  -5.40233659383634E+01  2.00091052754246E+00
(PID.TID 0000.0001)  ploadbar=  1.01080199313028E+05
 cg2d: Sum(rhs),rhsMax =  -5.41415051488268E+01  1.99641735812756E+00
(PID.TID 0000.0001)  ploadbar=  1.01081038620492E+05
 cg2d: Sum(rhs),rhsMax =  -5.42469529795044E+01  1.99240610496268E+00
(PID.TID 0000.0001)  ploadbar=  1.01081877927956E+05
 cg2d: Sum(rhs),rhsMax =  -5.43394337121370E+01  1.98887413413921E+00
(PID.TID 0000.0001)  ploadbar=  1.01082717235421E+05
 cg2d: Sum(rhs),rhsMax =  -5.44287390110584E+01  1.98545520317513E+00
(PID.TID 0000.0001)  ploadbar=  1.01083556542885E+05
 cg2d: Sum(rhs),rhsMax =  -5.45323884652315E+01  1.98150501469321E+00
(PID.TID 0000.0001)  ploadbar=  1.01084300986885E+05
 cg2d: Sum(rhs),rhsMax =  -5.46688399721703E+01  1.97635954129216E+00
(PID.TID 0000.0001)  ploadbar=  1.01085045430886E+05
 cg2d: Sum(rhs),rhsMax =  -5.48536189985608E+01  1.96947356402672E+00
(PID.TID 0000.0001)  ploadbar=  1.01085789874886E+05
 cg2d: Sum(rhs),rhsMax =  -5.50899311719777E+01  1.96076523145531E+00
(PID.TID 0000.0001)  ploadbar=  1.01086534318887E+05
 cg2d: Sum(rhs),rhsMax =  -5.53755338253558E+01  1.95035665487465E+00
(PID.TID 0000.0001)  ploadbar=  1.01087278762887E+05
 cg2d: Sum(rhs),rhsMax =  -5.57114832735383E+01  1.93826132939029E+00
(PID.TID 0000.0001)  ploadbar=  1.01088023206888E+05
 cg2d: Sum(rhs),rhsMax =  -5.60969580790928E+01  1.92460067527439E+00
(PID.TID 0000.0001)  ploadbar=  1.01087853708233E+05
 cg2d: Sum(rhs),rhsMax =  -5.65159783303264E+01  1.90997695927422E+00
(PID.TID 0000.0001)  ploadbar=  1.01087684209579E+05
 cg2d: Sum(rhs),rhsMax =  -5.69670216162741E+01  1.89448297713663E+00
(PID.TID 0000.0001)  ploadbar=  1.01087514710925E+05
 cg2d: Sum(rhs),rhsMax =  -5.74536071987426E+01  1.87804277468586E+00
(PID.TID 0000.0001)  ploadbar=  1.01087345212270E+05
 cg2d: Sum(rhs),rhsMax =  -5.79844859474565E+01  1.86042538119740E+00
(PID.TID 0000.0001)  ploadbar=  1.01087175713616E+05
 cg2d: Sum(rhs),rhsMax =  -5.85713237235487E+01  1.84133289835218E+00
(PID.TID 0000.0001)  ploadbar=  1.01087006214962E+05
 cg2d: Sum(rhs),rhsMax =  -5.92145911650120E+01  1.82085276395118E+00
(PID.TID 0000.0001)  ploadbar=  1.01086807730523E+05
 cg2d: Sum(rhs),rhsMax =  -5.99362631478510E+01  1.79842667105042E+00
(PID.TID 0000.0001)  ploadbar=  1.01086609246083E+05
 cg2d: Sum(rhs),rhsMax =  -6.07544582757046E+01  1.77367801589563E+00
(PID.TID 0000.0001)  ploadbar=  1.01086410761644E+05
 cg2d: Sum(rhs),rhsMax =  -6.16574496268351E+01  1.74714246986222E+00
(PID.TID 0000.0001)  ploadbar=  1.01086212277205E+05
 cg2d: Sum(rhs),rhsMax =  -6.26231494395871E+01  1.71960444338932E+00
(PID.TID 0000.0001)  ploadbar=  1.01086013792765E+05
 cg2d: Sum(rhs),rhsMax =  -6.36137802682938E+01  1.69218995539159E+00
(PID.TID 0000.0001)  ploadbar=  1.01085815308326E+05
 cg2d: Sum(rhs),rhsMax =  -6.45532597807090E+01  1.66697144953187E+00
(PID.TID 0000.0001)  ploadbar=  1.01085495996547E+05
 cg2d: Sum(rhs),rhsMax =  -6.54467221139769E+01  1.64366000485256E+00
(PID.TID 0000.0001)  ploadbar=  1.01085176684769E+05
 cg2d: Sum(rhs),rhsMax =  -6.62957870443579E+01  1.62208794923407E+00
(PID.TID 0000.0001)  ploadbar=  1.01084857372990E+05
 cg2d: Sum(rhs),rhsMax =  -6.71166991862746E+01  1.60175290447097E+00
(PID.TID 0000.0001)  ploadbar=  1.01084538061212E+05
 cg2d: Sum(rhs),rhsMax =  -6.73287624952544E+01  1.59622913061385E+00
(PID.TID 0000.0001)  ploadbar=  1.01084218749433E+05
 cg2d: Sum(rhs),rhsMax =  -6.73784261921342E+01  1.59458326522476E+00
(PID.TID 0000.0001)  ploadbar=  1.01083899437655E+05
 cg2d: Sum(rhs),rhsMax =  -6.74338229618418E+01  1.59279258337487E+00
(PID.TID 0000.0001)  ploadbar=  1.01083693476190E+05
 cg2d: Sum(rhs),rhsMax =  -6.74829332780440E+01  1.59113766231622E+00
(PID.TID 0000.0001)  ploadbar=  1.01083487514725E+05
 cg2d: Sum(rhs),rhsMax =  -6.75249419574722E+01  1.58963044158700E+00
(PID.TID 0000.0001)  ploadbar=  1.01083281553260E+05
 cg2d: Sum(rhs),rhsMax =  -6.75659397561948E+01  1.58812098618194E+00
(PID.TID 0000.0001)  ploadbar=  1.01083075591795E+05
 cg2d: Sum(rhs),rhsMax =  -6.76084625848107E+01  1.58654509314113E+00
(PID.TID 0000.0001)  ploadbar=  1.01082869630330E+05
 cg2d: Sum(rhs),rhsMax =  -6.76536291718216E+01  1.58486941347075E+00
(PID.TID 0000.0001)  ploadbar=  1.01082663668866E+05
 cg2d: Sum(rhs),rhsMax =  -6.77105324708085E+01  1.58294694694894E+00
(PID.TID 0000.0001)  ploadbar=  1.01082534177788E+05
 cg2d: Sum(rhs),rhsMax =  -6.77831386376396E+01  1.58068785629192E+00
(PID.TID 0000.0001)  ploadbar=  1.01082404686711E+05
 cg2d: Sum(rhs),rhsMax =  -6.78706140324249E+01  1.57810830127426E+00
(PID.TID 0000.0001)  ploadbar=  1.01082275195634E+05
 cg2d: Sum(rhs),rhsMax =  -6.79618550075870E+01  1.57546424273079E+00
(PID.TID 0000.0001)  ploadbar=  1.01082145704557E+05
 cg2d: Sum(rhs),rhsMax =  -6.80675320924161E+01  1.57250455939521E+00
(PID.TID 0000.0001)  ploadbar=  1.01082016213480E+05
 cg2d: Sum(rhs),rhsMax =  -6.82191287071186E+01  1.56850133879738E+00
(PID.TID 0000.0001)  ploadbar=  1.01081886722403E+05
 cg2d: Sum(rhs),rhsMax =  -6.83472440076329E+01  1.56504863559178E+00
(PID.TID 0000.0001)  ploadbar=  1.01083244598754E+05
 cg2d: Sum(rhs),rhsMax =  -6.83870560925303E+01  1.56361969556769E+00
(PID.TID 0000.0001)  ploadbar=  1.01084602475106E+05
 cg2d: Sum(rhs),rhsMax =  -6.83137645349964E+01  1.56476598210198E+00
(PID.TID 0000.0001)  ploadbar=  1.01085960351457E+05
 cg2d: Sum(rhs),rhsMax =  -6.81362789814680E+01  1.56829002628894E+00
(PID.TID 0000.0001)  ploadbar=  1.01087318227809E+05
 cg2d: Sum(rhs),rhsMax =  -6.78921971844892E+01  1.57334819615963E+00
(PID.TID 0000.0001)  ploadbar=  1.01088676104160E+05
 cg2d: Sum(rhs),rhsMax =  -6.76102807667397E+01  1.57929371122284E+00
(PID.TID 0000.0001)  ploadbar=  1.01090033980512E+05
 cg2d: Sum(rhs),rhsMax =  -6.73332442404922E+01  1.58523168326625E+00
(PID.TID 0000.0001)  ploadbar=  1.01091270570684E+05
 cg2d: Sum(rhs),rhsMax =  -6.70297427184139E+01  1.59189876437742E+00
(PID.TID 0000.0001)  ploadbar=  1.01092507160856E+05
 cg2d: Sum(rhs),rhsMax =  -6.67050272281276E+01  1.59918118998728E+00
(PID.TID 0000.0001)  ploadbar=  1.01093743751029E+05
 cg2d: Sum(rhs),rhsMax =  -6.63590540236691E+01  1.60708942845602E+00
(PID.TID 0000.0001)  ploadbar=  1.01094980341201E+05
 cg2d: Sum(rhs),rhsMax =  -6.59879519499661E+01  1.61573059331023E+00
(PID.TID 0000.0001)  ploadbar=  1.01096216931373E+05
 cg2d: Sum(rhs),rhsMax =  -6.55905214227489E+01  1.62514915290297E+00
(PID.TID 0000.0001)  ploadbar=  1.01097453521545E+05
 cg2d: Sum(rhs),rhsMax =  -6.51637625175826E+01  1.63543022958875E+00
(PID.TID 0000.0001)  ploadbar=  1.01097182380302E+05
 cg2d: Sum(rhs),rhsMax =  -6.47386681368371E+01  1.64581456807234E+00
(PID.TID 0000.0001)  ploadbar=  1.01096911239060E+05
 cg2d: Sum(rhs),rhsMax =  -6.43289857460121E+01  1.65594314060571E+00
(PID.TID 0000.0001)  ploadbar=  1.01096640097817E+05
 cg2d: Sum(rhs),rhsMax =  -6.39469235843984E+01  1.66548212520845E+00
(PID.TID 0000.0001)  ploadbar=  1.01096368956574E+05
 cg2d: Sum(rhs),rhsMax =  -6.36006740446508E+01  1.67418629256615E+00
(PID.TID 0000.0001)  ploadbar=  1.01096097815331E+05
 cg2d: Sum(rhs),rhsMax =  -6.32964246055595E+01  1.68185558994846E+00
(PID.TID 0000.0001)  ploadbar=  1.01095826674088E+05
 cg2d: Sum(rhs),rhsMax =  -6.30593184600133E+01  1.68784039715299E+00
(PID.TID 0000.0001)  ploadbar=  1.01093779344615E+05
 cg2d: Sum(rhs),rhsMax =  -6.28753152419316E+01  1.69247253058875E+00
(PID.TID 0000.0001)  ploadbar=  1.01091732015141E+05
 cg2d: Sum(rhs),rhsMax =  -6.27497420974362E+01  1.69558174946856E+00
(PID.TID 0000.0001)  ploadbar=  1.01089684685667E+05
 cg2d: Sum(rhs),rhsMax =  -6.26807853235402E+01  1.69719266100015E+00
(PID.TID 0000.0001)  ploadbar=  1.01087637356194E+05
 cg2d: Sum(rhs),rhsMax =  -6.26666260953039E+01  1.69733649641445E+00
(PID.TID 0000.0001)  ploadbar=  1.01085590026720E+05
 cg2d: Sum(rhs),rhsMax =  -6.27078040091793E+01  1.69599243855819E+00
(PID.TID 0000.0001)  ploadbar=  1.01083542697247E+05
 cg2d: Sum(rhs),rhsMax =  -6.28128693461088E+01  1.69291577097429E+00
(PID.TID 0000.0001)  ploadbar=  1.01082221798952E+05
 cg2d: Sum(rhs),rhsMax =  -6.29702116225102E+01  1.68843002262395E+00
(PID.TID 0000.0001)  ploadbar=  1.01080900900658E+05
 cg2d: Sum(rhs),rhsMax =  -6.31650905590900E+01  1.68294209267094E+00
(PID.TID 0000.0001)  ploadbar=  1.01079580002363E+05
 cg2d: Sum(rhs),rhsMax =  -6.33851483004760E+01  1.67679542219812E+00
(PID.TID 0000.0001)  ploadbar=  1.01078259104068E+05
 cg2d: Sum(rhs),rhsMax =  -6.36181542696707E+01  1.67031827091333E+00
(PID.TID 0000.0001)  ploadbar=  1.01076938205774E+05
 cg2d: Sum(rhs),rhsMax =  -6.38531686889845E+01  1.66379995533148E+00
(PID.TID 0000.0001)  ploadbar=  1.01075617307479E+05
 cg2d: Sum(rhs),rhsMax =  -6.40772223526987E+01  1.65763758862753E+00
(PID.TID 0000.0001)  ploadbar=  1.01074143934982E+05
 cg2d: Sum(rhs),rhsMax =  -6.43078760712977E+01  1.65136713083432E+00
(PID.TID 0000.0001)  ploadbar=  1.01072670562484E+05
 cg2d: Sum(rhs),rhsMax =  -6.45699060980066E+01  1.64435362278827E+00
(PID.TID 0000.0001)  ploadbar=  1.01071197189986E+05
 cg2d: Sum(rhs),rhsMax =  -6.48677492058420E+01  1.63650093658327E+00
(PID.TID 0000.0001)  ploadbar=  1.01069723817489E+05
 cg2d: Sum(rhs),rhsMax =  -6.52027724058567E+01  1.62779333053457E+00
(PID.TID 0000.0001)  ploadbar=  1.01068250444991E+05
 cg2d: Sum(rhs),rhsMax =  -6.55811051948948E+01  1.61810249737413E+00
(PID.TID 0000.0001)  ploadbar=  1.01066777072494E+05
 cg2d: Sum(rhs),rhsMax =  -6.59859211733559E+01  1.60789170091511E+00
(PID.TID 0000.0001)  ploadbar=  1.01065735262939E+05
 cg2d: Sum(rhs),rhsMax =  -6.64398220458036E+01  1.59663445277033E+00
(PID.TID 0000.0001)  ploadbar=  1.01064693453383E+05
 cg2d: Sum(rhs),rhsMax =  -6.69113557500490E+01  1.58511713705034E+00
(PID.TID 0000.0001)  ploadbar=  1.01063651643828E+05
 cg2d: Sum(rhs),rhsMax =  -6.74050028035977E+01  1.57324527677745E+00
(PID.TID 0000.0001)  ploadbar=  1.01062609834273E+05
 cg2d: Sum(rhs),rhsMax =  -6.79207941527439E+01  1.56103395307116E+00
(PID.TID 0000.0001)  ploadbar=  1.01061568024718E+05
 cg2d: Sum(rhs),rhsMax =  -6.84553471261160E+01  1.54857519840630E+00
(PID.TID 0000.0001)  ploadbar=  1.01060526215162E+05
 cg2d: Sum(rhs),rhsMax =  -6.89640737847500E+01  1.53688059044286E+00
(PID.TID 0000.0001)  ploadbar=  1.01058557142878E+05
 cg2d: Sum(rhs),rhsMax =  -6.94827235112560E+01  1.52513263869054E+00
(PID.TID 0000.0001)  ploadbar=  1.01056588070593E+05
 cg2d: Sum(rhs),rhsMax =  -7.00411801745961E+01  1.51268940410594E+00
(PID.TID 0000.0001)  ploadbar=  1.01054618998309E+05
 cg2d: Sum(rhs),rhsMax =  -7.06531433763792E+01  1.49928953884029E+00
(PID.TID 0000.0001)  ploadbar=  1.01052649926024E+05
 cg2d: Sum(rhs),rhsMax =  -7.13125829719101E+01  1.48510689872124E+00
(PID.TID 0000.0001)  ploadbar=  1.01050680853739E+05
 cg2d: Sum(rhs),rhsMax =  -7.19865959883519E+01  1.47085895301080E+00
(PID.TID 0000.0001)  ploadbar=  1.01048711781455E+05
 cg2d: Sum(rhs),rhsMax =  -7.26901370223700E+01  1.45625401686042E+00
(PID.TID 0000.0001)  ploadbar=  1.01046485147899E+05
 cg2d: Sum(rhs),rhsMax =  -7.35161368670519E+01  1.43949794516794E+00
(PID.TID 0000.0001)  ploadbar=  1.01044258514342E+05
 cg2d: Sum(rhs),rhsMax =  -7.45303952819995E+01  1.41948837481982E+00
(PID.TID 0000.0001)  ploadbar=  1.01042031880786E+05
 cg2d: Sum(rhs),rhsMax =  -7.57762583314060E+01  1.39570233516431E+00
(PID.TID 0000.0001)  ploadbar=  1.01039805247230E+05
 cg2d: Sum(rhs),rhsMax =  -7.72176798861545E+01  1.36917257703222E+00
(PID.TID 0000.0001)  ploadbar=  1.01037578613673E+05
 cg2d: Sum(rhs),rhsMax =  -7.86313747575111E+01  1.34404933016921E+00
(PID.TID 0000.0001)  ploadbar=  1.01035351980117E+05
 cg2d: Sum(rhs),rhsMax =  -7.99141656323590E+01  1.32201060971866E+00
(PID.TID 0000.0001)  ploadbar=  1.01034186179004E+05
 cg2d: Sum(rhs),rhsMax =  -8.12377032673843E+01  1.30004769541781E+00
(PID.TID 0000.0001)  ploadbar=  1.01033020377891E+05
 cg2d: Sum(rhs),rhsMax =  -8.25792610769692E+01  1.27853937363291E+00
(PID.TID 0000.0001)  ploadbar=  1.01031854576778E+05
 cg2d: Sum(rhs),rhsMax =  -8.24268491626063E+01  1.28053985065753E+00
(PID.TID 0000.0001)  ploadbar=  1.01030688775665E+05
 cg2d: Sum(rhs),rhsMax =  -8.22690222368638E+01  1.28265392795412E+00
(PID.TID 0000.0001)  ploadbar=  1.01029522974552E+05
 cg2d: Sum(rhs),rhsMax =  -8.20327423742825E+01  1.28602489770289E+00
(PID.TID 0000.0001)  ploadbar=  1.01028357173439E+05
 cg2d: Sum(rhs),rhsMax =  -8.22686338186756E+01  1.28202804427235E+00
(PID.TID 0000.0001)  ploadbar=  1.01027275732797E+05
 cg2d: Sum(rhs),rhsMax =  -8.19720892227336E+01  1.28636480967659E+00
(PID.TID 0000.0001)  ploadbar=  1.01026194292156E+05
 cg2d: Sum(rhs),rhsMax =  -8.15677823006227E+01  1.29244266622923E+00
(PID.TID 0000.0001)  ploadbar=  1.01025112851514E+05
 cg2d: Sum(rhs),rhsMax =  -8.10861913005275E+01  1.29982019498164E+00
(PID.TID 0000.0001)  ploadbar=  1.01024031410873E+05
 cg2d: Sum(rhs),rhsMax =  -8.05323854765230E+01  1.30845807018568E+00
(PID.TID 0000.0001)  ploadbar=  1.01022949970231E+05
 cg2d: Sum(rhs),rhsMax =  -7.99523759632151E+01  1.31764500243646E+00
(PID.TID 0000.0001)  ploadbar=  1.01021868529590E+05
 cg2d: Sum(rhs),rhsMax =  -7.95447324438802E+01  1.32410078023225E+00
(PID.TID 0000.0001)  ploadbar=  1.01019493177638E+05
 cg2d: Sum(rhs),rhsMax =  -7.91558688103320E+01  1.33031467032505E+00
(PID.TID 0000.0001)  ploadbar=  1.01017117825685E+05
 cg2d: Sum(rhs),rhsMax =  -7.88071643543325E+01  1.33591195248172E+00
(PID.TID 0000.0001)  ploadbar=  1.01014742473733E+05
 cg2d: Sum(rhs),rhsMax =  -7.85082895730716E+01  1.34070497273396E+00
(PID.TID 0000.0001)  ploadbar=  1.01012367121780E+05
 cg2d: Sum(rhs),rhsMax =  -7.82584284469751E+01  1.34468465707692E+00
(PID.TID 0000.0001)  ploadbar=  1.01009991769828E+05
 cg2d: Sum(rhs),rhsMax =  -7.80577341457943E+01  1.34783017677949E+00
(PID.TID 0000.0001)  ploadbar=  1.01007616417876E+05
 cg2d: Sum(rhs),rhsMax =  -7.79353699201212E+01  1.34960053576536E+00
(PID.TID 0000.0001)  ploadbar=  1.01006686297017E+05
 cg2d: Sum(rhs),rhsMax =  -7.77811048808037E+01  1.35189687034791E+00
(PID.TID 0000.0001)  ploadbar=  1.01005756176158E+05
 cg2d: Sum(rhs),rhsMax =  -7.75482093390060E+01  1.35553922207378E+00
(PID.TID 0000.0001)  ploadbar=  1.01004826055300E+05
 cg2d: Sum(rhs),rhsMax =  -7.72769274886721E+01  1.35983682381544E+00
(PID.TID 0000.0001)  ploadbar=  1.01003895934441E+05
 cg2d: Sum(rhs),rhsMax =  -7.69925874930556E+01  1.36435004167787E+00
(PID.TID 0000.0001)  ploadbar=  1.01002965813582E+05
 cg2d: Sum(rhs),rhsMax =  -7.67052724752086E+01  1.36890099890636E+00
(PID.TID 0000.0001)  ploadbar=  1.01002035692724E+05
 cg2d: Sum(rhs),rhsMax =  -7.64680416147918E+01  1.37264217832884E+00
(PID.TID 0000.0001)  ploadbar=  1.01002088671689E+05
 cg2d: Sum(rhs),rhsMax =  -7.62746281092204E+01  1.37567188199247E+00
(PID.TID 0000.0001)  ploadbar=  1.01002141650654E+05
 cg2d: Sum(rhs),rhsMax =  -7.60711966707870E+01  1.37895097277357E+00
(PID.TID 0000.0001)  ploadbar=  1.01002194629619E+05
 cg2d: Sum(rhs),rhsMax =  -7.58742172430273E+01  1.38217537283043E+00
(PID.TID 0000.0001)  ploadbar=  1.01002247608584E+05
 cg2d: Sum(rhs),rhsMax =  -7.56819560114158E+01  1.38537053203444E+00
(PID.TID 0000.0001)  ploadbar=  1.01002300587549E+05
 cg2d: Sum(rhs),rhsMax =  -7.54686327899523E+01  1.38900841846171E+00
(PID.TID 0000.0001)  ploadbar=  1.01002353566513E+05
 cg2d: Sum(rhs),rhsMax =  -7.52551938078584E+01  1.39268066246353E+00
(PID.TID 0000.0001)  ploadbar=  1.01002084293769E+05
 cg2d: Sum(rhs),rhsMax =  -7.50567105094576E+01  1.39610659554099E+00
(PID.TID 0000.0001)  ploadbar=  1.01001815021024E+05
 cg2d: Sum(rhs),rhsMax =  -7.48223286047321E+01  1.40023044370233E+00
(PID.TID 0000.0001)  ploadbar=  1.01001545748279E+05
 cg2d: Sum(rhs),rhsMax =  -7.49492168445785E+01  1.39761683219266E+00
(PID.TID 0000.0001)  ploadbar=  1.01001276475534E+05
 cg2d: Sum(rhs),rhsMax =  -6.98709864679628E+01  1.49893803956304E+00
(PID.TID 0000.0001)  ploadbar=  1.01001007202789E+05
 cg2d: Sum(rhs),rhsMax =  -6.18781230769437E+01  1.69226668864709E+00
(PID.TID 0000.0001)  ploadbar=  1.01000737930044E+05
 cg2d: Sum(rhs),rhsMax =  -5.45385270736539E+01  1.91968178448388E+00
(PID.TID 0000.0001)  ploadbar=  1.01000696353111E+05
 cg2d: Sum(rhs),rhsMax =  -4.94894150775813E+01  2.11518118648995E+00
(PID.TID 0000.0001)  ploadbar=  1.01000654776179E+05
 cg2d: Sum(rhs),rhsMax =  -4.57224471900798E+01  2.28905883273579E+00
(PID.TID 0000.0001)  ploadbar=  1.01000613199246E+05
 cg2d: Sum(rhs),rhsMax =  -4.26135072015429E+01  2.45563199657695E+00
(PID.TID 0000.0001)  ploadbar=  1.01000571622314E+05
 cg2d: Sum(rhs),rhsMax =  -3.97337279584274E+01  2.63312559454485E+00
(PID.TID 0000.0001)  ploadbar=  1.01000530045381E+05
 cg2d: Sum(rhs),rhsMax =  -3.76330609198876E+01  2.77956455492677E+00
(PID.TID 0000.0001)  ploadbar=  1.01000488468449E+05
 cg2d: Sum(rhs),rhsMax =  -3.62595826205496E+01  2.88425228416135E+00
(PID.TID 0000.0001)  ploadbar=  1.01000887906104E+05
 cg2d: Sum(rhs),rhsMax =  -3.52658716253729E+01  2.96486708596142E+00
(PID.TID 0000.0001)  ploadbar=  1.01001287343759E+05
 cg2d: Sum(rhs),rhsMax =  -3.47025876834770E+01  3.01227972532493E+00
(PID.TID 0000.0001)  ploadbar=  1.01001686781415E+05
 cg2d: Sum(rhs),rhsMax =  -3.45225653332772E+01  3.02722087527242E+00
(PID.TID 0000.0001)  ploadbar=  1.01002086219070E+05
 cg2d: Sum(rhs),rhsMax =  -3.46637683983154E+01  3.01407266284368E+00
(PID.TID 0000.0001)  ploadbar=  1.01002485656725E+05
 cg2d: Sum(rhs),rhsMax =  -3.51331728863600E+01  2.97293843219500E+00
(PID.TID 0000.0001)  ploadbar=  1.01002885094381E+05
 cg2d: Sum(rhs),rhsMax =  -3.58997528392778E+01  2.90869243363710E+00
(PID.TID 0000.0001)  ploadbar=  1.01002356310882E+05
 cg2d: Sum(rhs),rhsMax =  -3.69284329145217E+01  2.82699705698019E+00
(PID.TID 0000.0001)  ploadbar=  1.01001827527384E+05
 cg2d: Sum(rhs),rhsMax =  -3.81476146324184E+01  2.73606343275714E+00
(PID.TID 0000.0001)  ploadbar=  1.01001298743885E+05
 cg2d: Sum(rhs),rhsMax =  -3.96854357881426E+01  2.62953472075288E+00
(PID.TID 0000.0001)  ploadbar=  1.01000769960387E+05
 cg2d: Sum(rhs),rhsMax =  -4.14755898069991E+01  2.51559939941830E+00
(PID.TID 0000.0001)  ploadbar=  1.01000241176888E+05
 cg2d: Sum(rhs),rhsMax =  -4.33898201428478E+01  2.40423117198307E+00
(PID.TID 0000.0001)  ploadbar=  1.00999712393390E+05
 cg2d: Sum(rhs),rhsMax =  -4.53371810426728E+01  2.30061139297866E+00
(PID.TID 0000.0001)  ploadbar=  1.01000629195126E+05
 cg2d: Sum(rhs),rhsMax =  -4.72806970782940E+01  2.20571987934419E+00
(PID.TID 0000.0001)  ploadbar=  1.01001545996862E+05
 cg2d: Sum(rhs),rhsMax =  -4.91981917433024E+01  2.11945190765036E+00
(PID.TID 0000.0001)  ploadbar=  1.01002462798598E+05
 cg2d: Sum(rhs),rhsMax =  -5.11818462157868E+01  2.03702452287500E+00
(PID.TID 0000.0001)  ploadbar=  1.01003379600334E+05
 cg2d: Sum(rhs),rhsMax =  -4.86335871047981E+01  2.14345950968838E+00
(PID.TID 0000.0001)  ploadbar=  1.01004296402071E+05
 cg2d: Sum(rhs),rhsMax =  -4.57793863532502E+01  2.27677213445473E+00
(PID.TID 0000.0001)  ploadbar=  1.01005213203807E+05
 cg2d: Sum(rhs),rhsMax =  -4.35638169835834E+01  2.39221363977178E+00
(PID.TID 0000.0001)  ploadbar=  1.01005952425574E+05
 cg2d: Sum(rhs),rhsMax =  -4.18100107165501E+01  2.49217432298898E+00
(PID.TID 0000.0001)  ploadbar=  1.01006691647341E+05
 cg2d: Sum(rhs),rhsMax =  -4.03838780370065E+01  2.57975608287900E+00
(PID.TID 0000.0001)  ploadbar=  1.01007430869108E+05
 cg2d: Sum(rhs),rhsMax =  -3.92041104890673E+01  2.65690901040583E+00
(PID.TID 0000.0001)  ploadbar=  1.01008170090876E+05
 cg2d: Sum(rhs),rhsMax =  -3.82170284762536E+01  2.72498971647145E+00
(PID.TID 0000.0001)  ploadbar=  1.01008909312643E+05
 cg2d: Sum(rhs),rhsMax =  -3.73859484574615E+01  2.78494494228536E+00
(PID.TID 0000.0001)  ploadbar=  1.01009648534410E+05
 cg2d: Sum(rhs),rhsMax =  -3.66384045921505E+01  2.84108718775171E+00
(PID.TID 0000.0001)  ploadbar=  1.01010365342816E+05
 cg2d: Sum(rhs),rhsMax =  -3.59712507165119E+01  2.89303530025649E+00
(PID.TID 0000.0001)  ploadbar=  1.01011082151222E+05
 cg2d: Sum(rhs),rhsMax =  -3.55512646125567E+01  2.92639939920069E+00
(PID.TID 0000.0001)  ploadbar=  1.01011798959628E+05
 cg2d: Sum(rhs),rhsMax =  -3.53375366888659E+01  2.94321333683424E+00
(PID.TID 0000.0001)  ploadbar=  1.01012515768034E+05
 cg2d: Sum(rhs),rhsMax =  -3.52655566228731E+01  2.94826431682589E+00
(PID.TID 0000.0001)  ploadbar=  1.01013232576441E+05
 cg2d: Sum(rhs),rhsMax =  -3.52232150267575E+01  2.95077301152887E+00
(PID.TID 0000.0001)  ploadbar=  1.01013949384847E+05
 cg2d: Sum(rhs),rhsMax =  -3.52078427942318E+01  2.95113542630230E+00
(PID.TID 0000.0001)  ploadbar=  1.01014010139742E+05
 cg2d: Sum(rhs),rhsMax =  -3.52195674707173E+01  2.94932984848764E+00
(PID.TID 0000.0001)  ploadbar=  1.01014070894638E+05
 cg2d: Sum(rhs),rhsMax =  -3.52538780163191E+01  2.94573168174809E+00
(PID.TID 0000.0001)  ploadbar=  1.01014131649533E+05
 cg2d: Sum(rhs),rhsMax =  -3.53160122513539E+01  2.93990892118030E+00
(PID.TID 0000.0001)  ploadbar=  1.01014192404428E+05
 cg2d: Sum(rhs),rhsMax =  -3.54103974405346E+01  2.93151084918463E+00
(PID.TID 0000.0001)  ploadbar=  1.01014253159324E+05
 cg2d: Sum(rhs),rhsMax =  -3.55319119213051E+01  2.92099349334518E+00
(PID.TID 0000.0001)  ploadbar=  1.01014313914219E+05
 cg2d: Sum(rhs),rhsMax =  -3.57091860224511E+01  2.90598949494901E+00
(PID.TID 0000.0001)  ploadbar=  1.01016147119366E+05
 cg2d: Sum(rhs),rhsMax =  -3.59112387309441E+01  2.88911720714307E+00
(PID.TID 0000.0001)  ploadbar=  1.01017980324513E+05
 cg2d: Sum(rhs),rhsMax =  -3.61331204785022E+01  2.87082833164897E+00
(PID.TID 0000.0001)  ploadbar=  1.01019813529660E+05
 cg2d: Sum(rhs),rhsMax =  -3.63699774403943E+01  2.85155045979123E+00
(PID.TID 0000.0001)  ploadbar=  1.01021646734807E+05
 cg2d: Sum(rhs),rhsMax =  -3.66178057590163E+01  2.83163358819989E+00
(PID.TID 0000.0001)  ploadbar=  1.01023479939954E+05
 cg2d: Sum(rhs),rhsMax =  -3.68735844444719E+01  2.81133323137677E+00
(PID.TID 0000.0001)  ploadbar=  1.01025313145101E+05
 cg2d: Sum(rhs),rhsMax =  -3.71284713828738E+01  2.79141789552071E+00
(PID.TID 0000.0001)  ploadbar=  1.01027691607735E+05
 cg2d: Sum(rhs),rhsMax =  -3.73911363591351E+01  2.77121873668919E+00
(PID.TID 0000.0001)  ploadbar=  1.01030070070369E+05
 cg2d: Sum(rhs),rhsMax =  -3.76605050447564E+01  2.75082472635696E+00
(PID.TID 0000.0001)  ploadbar=  1.01032448533003E+05
 cg2d: Sum(rhs),rhsMax =  -3.79365860945207E+01  2.73024661122738E+00
(PID.TID 0000.0001)  ploadbar=  1.01034826995637E+05
 cg2d: Sum(rhs),rhsMax =  -3.82197189534070E+01  2.70946712636317E+00
(PID.TID 0000.0001)  ploadbar=  1.01037205458271E+05
 cg2d: Sum(rhs),rhsMax =  -3.85093426173270E+01  2.68853111642793E+00
(PID.TID 0000.0001)  ploadbar=  1.01039583920905E+05
 cg2d: Sum(rhs),rhsMax =  -3.88121496239778E+01  2.66698331287798E+00
(PID.TID 0000.0001)  ploadbar=  1.01041229190506E+05
 cg2d: Sum(rhs),rhsMax =  -3.91245781149175E+01  2.64509608845277E+00
(PID.TID 0000.0001)  ploadbar=  1.01042874460107E+05
 cg2d: Sum(rhs),rhsMax =  -3.94473048768276E+01  2.62284284883390E+00
(PID.TID 0000.0001)  ploadbar=  1.01044519729709E+05
 cg2d: Sum(rhs),rhsMax =  -3.97802142448380E+01  2.60025082191843E+00
(PID.TID 0000.0001)  ploadbar=  1.01046164999310E+05
 cg2d: Sum(rhs),rhsMax =  -4.01230688362975E+01  2.57735141829107E+00
(PID.TID 0000.0001)  ploadbar=  1.01047810268911E+05
 cg2d: Sum(rhs),rhsMax =  -4.04754920065548E+01  2.55418559659586E+00
(PID.TID 0000.0001)  ploadbar=  1.01049455538512E+05
 cg2d: Sum(rhs),rhsMax =  -4.08277175998730E+01  2.53148396611471E+00
(PID.TID 0000.0001)  ploadbar=  1.01051461323973E+05
 cg2d: Sum(rhs),rhsMax =  -4.11880583467182E+01  2.50872043380432E+00
(PID.TID 0000.0001)  ploadbar=  1.01053467109433E+05
 cg2d: Sum(rhs),rhsMax =  -4.15536136126181E+01  2.48607526078437E+00
(PID.TID 0000.0001)  ploadbar=  1.01055472894893E+05
 cg2d: Sum(rhs),rhsMax =  -4.19257515819597E+01  2.46346610835005E+00
(PID.TID 0000.0001)  ploadbar=  1.01057478680354E+05
 cg2d: Sum(rhs),rhsMax =  -4.23048634969338E+01  2.44086838463860E+00
(PID.TID 0000.0001)  ploadbar=  1.01059484465814E+05
 cg2d: Sum(rhs),rhsMax =  -4.26917335319412E+01  2.41823860883917E+00
(PID.TID 0000.0001)  ploadbar=  1.01061490251274E+05
 cg2d: Sum(rhs),rhsMax =  -4.30906065304915E+01  2.39530946074777E+00
(PID.TID 0000.0001)  ploadbar=  1.01063246779660E+05
 cg2d: Sum(rhs),rhsMax =  -4.34906598755656E+01  2.37269377239518E+00
(PID.TID 0000.0001)  ploadbar=  1.01065003308045E+05
 cg2d: Sum(rhs),rhsMax =  -4.38974508122645E+01  2.35008084156671E+00
(PID.TID 0000.0001)  ploadbar=  1.01066759836430E+05
 cg2d: Sum(rhs),rhsMax =  -4.43095464804184E+01  2.32755127296209E+00
(PID.TID 0000.0001)  ploadbar=  1.01068516364815E+05
 cg2d: Sum(rhs),rhsMax =  -4.47289359274278E+01  2.30500247662694E+00
(PID.TID 0000.0001)  ploadbar=  1.01070272893200E+05
 cg2d: Sum(rhs),rhsMax =  -4.51558107329417E+01  2.28243170670195E+00
(PID.TID 0000.0001)  ploadbar=  1.01072029421586E+05
 cg2d: Sum(rhs),rhsMax =  -4.55890043208351E+01  2.26001262830138E+00
(PID.TID 0000.0001)  ploadbar=  1.01073260296643E+05
 cg2d: Sum(rhs),rhsMax =  -4.60240944519478E+01  2.23795322446698E+00
(PID.TID 0000.0001)  ploadbar=  1.01074491171700E+05
 cg2d: Sum(rhs),rhsMax =  -4.64600012528682E+01  2.21629139553192E+00
(PID.TID 0000.0001)  ploadbar=  1.01075722046757E+05
 cg2d: Sum(rhs),rhsMax =  -4.68926118124927E+01  2.19520195664450E+00
(PID.TID 0000.0001)  ploadbar=  1.01076952921814E+05
 cg2d: Sum(rhs),rhsMax =  -4.73163422140210E+01  2.17491516218126E+00
(PID.TID 0000.0001)  ploadbar=  1.01078183796871E+05
 cg2d: Sum(rhs),rhsMax =  -4.77233069422155E+01  2.15574577426523E+00
(PID.TID 0000.0001)  ploadbar=  1.01079414671928E+05
 cg2d: Sum(rhs),rhsMax =  -4.81256987091671E+01  2.13708199711286E+00
(PID.TID 0000.0001)  ploadbar=  1.01080233914893E+05
 cg2d: Sum(rhs),rhsMax =  -4.85102745607672E+01  2.11948013218438E+00
(PID.TID 0000.0001)  ploadbar=  1.01081053157858E+05
 cg2d: Sum(rhs),rhsMax =  -4.88751432916452E+01  2.10296771104085E+00
(PID.TID 0000.0001)  ploadbar=  1.01081872400823E+05
 cg2d: Sum(rhs),rhsMax =  -4.92160842456861E+01  2.08766831850026E+00
(PID.TID 0000.0001)  ploadbar=  1.01082691643788E+05
 cg2d: Sum(rhs),rhsMax =  -4.95332752687773E+01  2.07352228656400E+00
(PID.TID 0000.0001)  ploadbar=  1.01083510886753E+05
 cg2d: Sum(rhs),rhsMax =  -4.98286424682403E+01  2.06040198991269E+00
(PID.TID 0000.0001)  ploadbar=  1.01084330129718E+05
 cg2d: Sum(rhs),rhsMax =  -5.01118361556197E+01  2.04801225885044E+00
(PID.TID 0000.0001)  ploadbar=  1.01084636131699E+05
 cg2d: Sum(rhs),rhsMax =  -5.04004558411321E+01  2.03561853549615E+00
(PID.TID 0000.0001)  ploadbar=  1.01084942133680E+05
 cg2d: Sum(rhs),rhsMax =  -5.06650415664422E+01  2.02439408578326E+00
(PID.TID 0000.0001)  ploadbar=  1.01085248135661E+05
 cg2d: Sum(rhs),rhsMax =  -5.09164058273466E+01  2.01387003452025E+00
(PID.TID 0000.0001)  ploadbar=  1.01085554137641E+05
 cg2d: Sum(rhs),rhsMax =  -5.11657901424953E+01  2.00358001216842E+00
(PID.TID 0000.0001)  ploadbar=  1.01085860139622E+05
 cg2d: Sum(rhs),rhsMax =  -5.14033377504860E+01  1.99389975785564E+00
(PID.TID 0000.0001)  ploadbar=  1.01086166141603E+05
 cg2d: Sum(rhs),rhsMax =  -5.16291029809395E+01  1.98476025238057E+00
(PID.TID 0000.0001)  ploadbar=  1.01085337284306E+05
 cg2d: Sum(rhs),rhsMax =  -5.18150327726048E+01  1.97721318428125E+00
(PID.TID 0000.0001)  ploadbar=  1.01084508427009E+05
 cg2d: Sum(rhs),rhsMax =  -5.19344463542895E+01  1.97223111597344E+00
(PID.TID 0000.0001)  ploadbar=  1.01083679569712E+05
 cg2d: Sum(rhs),rhsMax =  -5.20058560796122E+01  1.96907217221801E+00
(PID.TID 0000.0001)  ploadbar=  1.01082850712415E+05
 cg2d: Sum(rhs),rhsMax =  -5.20558871896616E+01  1.96670357972919E+00
(PID.TID 0000.0001)  ploadbar=  1.01082021855118E+05
 cg2d: Sum(rhs),rhsMax =  -5.20956973403881E+01  1.96469271566565E+00
(PID.TID 0000.0001)  ploadbar=  1.01081192997821E+05
 cg2d: Sum(rhs),rhsMax =  -5.21074623035335E+01  1.96378872300730E+00
(PID.TID 0000.0001)  ploadbar=  1.01079912296023E+05
 cg2d: Sum(rhs),rhsMax =  -5.21293391136923E+01  1.96254755808942E+00
(PID.TID 0000.0001)  ploadbar=  1.01078631594224E+05
 cg2d: Sum(rhs),rhsMax =  -5.21199101390492E+01  1.96252221102072E+00
(PID.TID 0000.0001)  ploadbar=  1.01077350892426E+05
 cg2d: Sum(rhs),rhsMax =  -5.20940917222099E+01  1.96314249417597E+00
(PID.TID 0000.0001)  ploadbar=  1.01076070190628E+05
 cg2d: Sum(rhs),rhsMax =  -5.20325239373958E+01  1.96513361026089E+00
(PID.TID 0000.0001)  ploadbar=  1.01074789488829E+05
 cg2d: Sum(rhs),rhsMax =  -5.19257785055578E+01  1.96885830122640E+00
(PID.TID 0000.0001)  ploadbar=  1.01073508787031E+05
 cg2d: Sum(rhs),rhsMax =  -5.17392158236981E+01  1.97562879163410E+00
(PID.TID 0000.0001)  ploadbar=  1.01073027512709E+05
 cg2d: Sum(rhs),rhsMax =  -5.15480539540228E+01  1.98261209581917E+00
(PID.TID 0000.0001)  ploadbar=  1.01072546238388E+05
 cg2d: Sum(rhs),rhsMax =  -5.13794414370263E+01  1.98875597989459E+00
(PID.TID 0000.0001)  ploadbar=  1.01072064964066E+05
 cg2d: Sum(rhs),rhsMax =  -5.12730188308165E+01  1.99249594857959E+00
(PID.TID 0000.0001)  ploadbar=  1.01071583689745E+05
 cg2d: Sum(rhs),rhsMax =  -5.12654526044255E+01  1.99237024784944E+00
(PID.TID 0000.0001)  ploadbar=  1.01071102415423E+05
 cg2d: Sum(rhs),rhsMax =  -5.13757913178504E+01  1.98763723740410E+00
(PID.TID 0000.0001)  ploadbar=  1.01070621141102E+05
 cg2d: Sum(rhs),rhsMax =  -5.16685472625160E+01  1.97598756278037E+00
(PID.TID 0000.0001)  ploadbar=  1.01070750223783E+05
 cg2d: Sum(rhs),rhsMax =  -5.22093818490896E+01  1.95519597818476E+00
(PID.TID 0000.0001)  ploadbar=  1.01070879306465E+05
 cg2d: Sum(rhs),rhsMax =  -5.22512662368028E+01  1.95336194437290E+00
(PID.TID 0000.0001)  ploadbar=  1.01071008389146E+05
 cg2d: Sum(rhs),rhsMax =  -5.20326430168503E+01  1.96135180741641E+00
(PID.TID 0000.0001)  ploadbar=  1.01071137471827E+05
 cg2d: Sum(rhs),rhsMax =  -5.17769785666455E+01  1.97086279077035E+00
(PID.TID 0000.0001)  ploadbar=  1.01071266554509E+05
 cg2d: Sum(rhs),rhsMax =  -5.14785105621285E+01  1.98215218501504E+00
(PID.TID 0000.0001)  ploadbar=  1.01071395637190E+05
 cg2d: Sum(rhs),rhsMax =  -5.11755077176777E+01  1.99373510726821E+00
(PID.TID 0000.0001)  ploadbar=  1.01072734981630E+05
 cg2d: Sum(rhs),rhsMax =  -5.08633656172954E+01  2.00579753035011E+00
(PID.TID 0000.0001)  ploadbar=  1.01074074326070E+05
 cg2d: Sum(rhs),rhsMax =  -5.05619685907802E+01  2.01755553244595E+00
(PID.TID 0000.0001)  ploadbar=  1.01075413670510E+05
 cg2d: Sum(rhs),rhsMax =  -5.02798361604801E+01  2.02864627941272E+00
(PID.TID 0000.0001)  ploadbar=  1.01076753014951E+05
 cg2d: Sum(rhs),rhsMax =  -5.00209501621322E+01  2.03887862867454E+00
(PID.TID 0000.0001)  ploadbar=  1.01078092359391E+05
 cg2d: Sum(rhs),rhsMax =  -4.97862865698362E+01  2.04818035311151E+00
(PID.TID 0000.0001)  ploadbar=  1.01079431703831E+05
 cg2d: Sum(rhs),rhsMax =  -4.95771150692287E+01  2.05654277537338E+00
(PID.TID 0000.0001)  ploadbar=  1.01079398214477E+05
 cg2d: Sum(rhs),rhsMax =  -4.93855753782958E+01  2.06426370107921E+00
(PID.TID 0000.0001)  ploadbar=  1.01079364725124E+05
 cg2d: Sum(rhs),rhsMax =  -4.92014474003971E+01  2.07175262564305E+00
(PID.TID 0000.0001)  ploadbar=  1.01079331235770E+05
 cg2d: Sum(rhs),rhsMax =  -4.90295535394590E+01  2.07879204286340E+00
(PID.TID 0000.0001)  ploadbar=  1.01079297746417E+05
 cg2d: Sum(rhs),rhsMax =  -4.88933552924687E+01  2.08436837240254E+00
(PID.TID 0000.0001)  ploadbar=  1.01079264257063E+05
 cg2d: Sum(rhs),rhsMax =  -4.87777224633994E+01  2.08910261375068E+00
(PID.TID 0000.0001)  ploadbar=  1.01079230767710E+05
 cg2d: Sum(rhs),rhsMax =  -4.86677107917319E+01  2.09361593077358E+00
(PID.TID 0000.0001)  ploadbar=  1.01079499770181E+05
 cg2d: Sum(rhs),rhsMax =  -4.85860775752729E+01  2.09692097389293E+00
(PID.TID 0000.0001)  ploadbar=  1.01079768772651E+05
 cg2d: Sum(rhs),rhsMax =  -4.85375482068863E+01  2.09879628701765E+00
(PID.TID 0000.0001)  ploadbar=  1.01080037775122E+05
 cg2d: Sum(rhs),rhsMax =  -4.85412092484869E+01  2.09840489723566E+00
(PID.TID 0000.0001)  ploadbar=  1.01080306777593E+05
 cg2d: Sum(rhs),rhsMax =  -4.86259817463112E+01  2.09449595663694E+00
(PID.TID 0000.0001)  ploadbar=  1.01080575780064E+05
 cg2d: Sum(rhs),rhsMax =  -4.88157934431323E+01  2.08608169028073E+00
(PID.TID 0000.0001)  ploadbar=  1.01080844782535E+05
 cg2d: Sum(rhs),rhsMax =  -4.90498567529907E+01  2.07591017519800E+00
(PID.TID 0000.0001)  ploadbar=  1.01079508708155E+05
 cg2d: Sum(rhs),rhsMax =  -4.93380443588828E+01  2.06361942833472E+00
(PID.TID 0000.0001)  ploadbar=  1.01078172633775E+05
 cg2d: Sum(rhs),rhsMax =  -4.97111571089980E+01  2.04801640875371E+00
(PID.TID 0000.0001)  ploadbar=  1.01076836559395E+05
 cg2d: Sum(rhs),rhsMax =  -5.04517090126605E+01  2.01788892629866E+00
(PID.TID 0000.0001)  ploadbar=  1.01075500485015E+05
 cg2d: Sum(rhs),rhsMax =  -5.14469768924258E+01  1.97882924344626E+00
(PID.TID 0000.0001)  ploadbar=  1.01074164410636E+05
 cg2d: Sum(rhs),rhsMax =  -5.24771503029652E+01  1.93999931251212E+00
(PID.TID 0000.0001)  ploadbar=  1.01072828336256E+05
 cg2d: Sum(rhs),rhsMax =  -5.30919000340533E+01  1.91751544378323E+00
(PID.TID 0000.0001)  ploadbar=  1.01072570594464E+05
 cg2d: Sum(rhs),rhsMax =  -5.25855224413704E+01  1.93591954413337E+00
(PID.TID 0000.0001)  ploadbar=  1.01072312852672E+05
 cg2d: Sum(rhs),rhsMax =  -5.19813564887122E+01  1.95831516703934E+00
(PID.TID 0000.0001)  ploadbar=  1.01072055110879E+05
 cg2d: Sum(rhs),rhsMax =  -5.21238927900026E+01  1.95280810818089E+00
(PID.TID 0000.0001)  ploadbar=  1.01071797369087E+05
 cg2d: Sum(rhs),rhsMax =  -5.19376319352092E+01  1.95960943775048E+00
(PID.TID 0000.0001)  ploadbar=  1.01071539627295E+05
 cg2d: Sum(rhs),rhsMax =  -5.11536859215880E+01  1.98938712678265E+00
(PID.TID 0000.0001)  ploadbar=  1.01071281885503E+05
 cg2d: Sum(rhs),rhsMax =  -5.03846603914908E+01  2.01950166308203E+00
(PID.TID 0000.0001)  ploadbar=  1.01070540366926E+05
 cg2d: Sum(rhs),rhsMax =  -4.96472798160603E+01  2.04924443954106E+00
(PID.TID 0000.0001)  ploadbar=  1.01069798848349E+05
 cg2d: Sum(rhs),rhsMax =  -4.89319407175631E+01  2.07894499939685E+00
(PID.TID 0000.0001)  ploadbar=  1.01069057329773E+05
 cg2d: Sum(rhs),rhsMax =  -4.82352352336678E+01  2.10870451640821E+00
(PID.TID 0000.0001)  ploadbar=  1.01068315811196E+05
 cg2d: Sum(rhs),rhsMax =  -4.70564990880983E+01  2.16123545739049E+00
(PID.TID 0000.0001)  ploadbar=  1.01067574292619E+05
 cg2d: Sum(rhs),rhsMax =  -4.48573162836879E+01  2.26686608517505E+00
(PID.TID 0000.0001)  ploadbar=  1.01066832774042E+05
 cg2d: Sum(rhs),rhsMax =  -4.30397564436128E+01  2.36221333131158E+00
(PID.TID 0000.0001)  ploadbar=  1.01066141915548E+05
 cg2d: Sum(rhs),rhsMax =  -4.15031013108674E+01  2.44923390993860E+00
(PID.TID 0000.0001)  ploadbar=  1.01065451057054E+05
 cg2d: Sum(rhs),rhsMax =  -4.03069225272124E+01  2.52141423161306E+00
(PID.TID 0000.0001)  ploadbar=  1.01064760198559E+05
 cg2d: Sum(rhs),rhsMax =  -3.93923266869049E+01  2.57937563019905E+00
(PID.TID 0000.0001)  ploadbar=  1.01064069340065E+05
 cg2d: Sum(rhs),rhsMax =  -3.87360241603860E+01  2.62241801741750E+00
(PID.TID 0000.0001)  ploadbar=  1.01063378481571E+05
 cg2d: Sum(rhs),rhsMax =  -3.80696495091712E+01  2.66757040148010E+00
(PID.TID 0000.0001)  ploadbar=  1.01062687623076E+05
 cg2d: Sum(rhs),rhsMax =  -3.76548312721386E+01  2.69629330466164E+00
(PID.TID 0000.0001)  ploadbar=  1.01062871133530E+05
 cg2d: Sum(rhs),rhsMax =  -3.75872423153620E+01  2.70056728446131E+00
(PID.TID 0000.0001)  ploadbar=  1.01063054643983E+05
 cg2d: Sum(rhs),rhsMax =  -3.79201682701873E+01  2.67637605999947E+00
(PID.TID 0000.0001)  ploadbar=  1.01063238154437E+05
 cg2d: Sum(rhs),rhsMax =  -3.83941732631602E+01  2.64293732969114E+00
(PID.TID 0000.0001)  ploadbar=  1.01063421664890E+05
 cg2d: Sum(rhs),rhsMax =  -3.88275895547139E+01  2.61311454843058E+00
(PID.TID 0000.0001)  ploadbar=  1.01063605175344E+05
 cg2d: Sum(rhs),rhsMax =  -3.91099514913145E+01  2.59399777319739E+00
(PID.TID 0000.0001)  ploadbar=  1.01063788685797E+05
 cg2d: Sum(rhs),rhsMax =  -3.90632066992892E+01  2.59684825516901E+00
(PID.TID 0000.0001)  ploadbar=  1.01063904249148E+05
 cg2d: Sum(rhs),rhsMax =  -3.87801538197932E+01  2.61554076071579E+00
(PID.TID 0000.0001)  ploadbar=  1.01064019812499E+05
 cg2d: Sum(rhs),rhsMax =  -3.83555822759247E+01  2.64421535327718E+00
(PID.TID 0000.0001)  ploadbar=  1.01064135375851E+05
 cg2d: Sum(rhs),rhsMax =  -3.78364267089872E+01  2.68020075303728E+00
(PID.TID 0000.0001)  ploadbar=  1.01064250939202E+05
 cg2d: Sum(rhs),rhsMax =  -3.72866623486304E+01  2.71939949823205E+00
(PID.TID 0000.0001)  ploadbar=  1.01064366502553E+05
 cg2d: Sum(rhs),rhsMax =  -3.67156283344338E+01  2.76135019017313E+00
(PID.TID 0000.0001)  ploadbar=  1.01064482065904E+05
 cg2d: Sum(rhs),rhsMax =  -3.61151072267532E+01  2.80685197762536E+00
(PID.TID 0000.0001)  ploadbar=  1.01065025376384E+05
 cg2d: Sum(rhs),rhsMax =  -3.54673378578730E+01  2.85762201888679E+00
(PID.TID 0000.0001)  ploadbar=  1.01065568686864E+05
 cg2d: Sum(rhs),rhsMax =  -3.48203853207420E+01  2.91013783853201E+00
(PID.TID 0000.0001)  ploadbar=  1.01066111997344E+05
 cg2d: Sum(rhs),rhsMax =  -3.42135908810740E+01  2.96107887578197E+00
(PID.TID 0000.0001)  ploadbar=  1.01066655307824E+05
 cg2d: Sum(rhs),rhsMax =  -3.36704725559095E+01  3.00806974849910E+00
(PID.TID 0000.0001)  ploadbar=  1.01067198618304E+05
 cg2d: Sum(rhs),rhsMax =  -3.32115715278024E+01  3.04875240225239E+00
(PID.TID 0000.0001)  ploadbar=  1.01067741928785E+05
 cg2d: Sum(rhs),rhsMax =  -3.31111163847358E+01  3.05706268434610E+00
(PID.TID 0000.0001)  ploadbar=  1.01068187669685E+05
 cg2d: Sum(rhs),rhsMax =  -3.33054991284489E+01  3.03822709291749E+00
(PID.TID 0000.0001)  ploadbar=  1.01068633410586E+05
 cg2d: Sum(rhs),rhsMax =  -3.34104958367431E+01  3.02762206085282E+00
(PID.TID 0000.0001)  ploadbar=  1.01069079151486E+05
 cg2d: Sum(rhs),rhsMax =  -3.35397173570098E+01  3.01482868242588E+00
(PID.TID 0000.0001)  ploadbar=  1.01069524892387E+05
 cg2d: Sum(rhs),rhsMax =  -3.36855069543557E+01  3.00057280771170E+00
(PID.TID 0000.0001)  ploadbar=  1.01069970633288E+05
 cg2d: Sum(rhs),rhsMax =  -3.38536511537883E+01  2.98437301378358E+00
(PID.TID 0000.0001)  ploadbar=  1.01070416374188E+05
 cg2d: Sum(rhs),rhsMax =  -3.40562496773524E+01  2.96537428164914E+00
(PID.TID 0000.0001)  ploadbar=  1.01071685352178E+05
 cg2d: Sum(rhs),rhsMax =  -3.42916338970402E+01  2.94382117809382E+00
(PID.TID 0000.0001)  ploadbar=  1.01072954330167E+05
 cg2d: Sum(rhs),rhsMax =  -3.45473175982621E+01  2.92087767735535E+00
(PID.TID 0000.0001)  ploadbar=  1.01074223308156E+05
 cg2d: Sum(rhs),rhsMax =  -3.48175879159024E+01  2.89708020113538E+00
(PID.TID 0000.0001)  ploadbar=  1.01075492286146E+05
 cg2d: Sum(rhs),rhsMax =  -3.50948019448840E+01  2.87309290354598E+00
(PID.TID 0000.0001)  ploadbar=  1.01076761264135E+05
 cg2d: Sum(rhs),rhsMax =  -3.53683929767128E+01  2.84977519924156E+00
(PID.TID 0000.0001)  ploadbar=  1.01078030242125E+05
 cg2d: Sum(rhs),rhsMax =  -3.56405713301062E+01  2.82689992052356E+00
(PID.TID 0000.0001)  ploadbar=  1.01079447088565E+05
 cg2d: Sum(rhs),rhsMax =  -3.59038343650493E+01  2.80503393845769E+00
(PID.TID 0000.0001)  ploadbar=  1.01080863935005E+05
 cg2d: Sum(rhs),rhsMax =  -3.61557709066512E+01  2.78431846322212E+00
(PID.TID 0000.0001)  ploadbar=  1.01082280781446E+05
 cg2d: Sum(rhs),rhsMax =  -3.64001477651267E+01  2.76441793548186E+00
(PID.TID 0000.0001)  ploadbar=  1.01083697627886E+05
 cg2d: Sum(rhs),rhsMax =  -3.66234382591747E+01  2.74631194110274E+00
(PID.TID 0000.0001)  ploadbar=  1.01085114474326E+05
 cg2d: Sum(rhs),rhsMax =  -3.68229684027329E+01  2.73013019807913E+00
(PID.TID 0000.0001)  ploadbar=  1.01086531320767E+05
 cg2d: Sum(rhs),rhsMax =  -3.69774684282976E+01  2.71744445903190E+00
(PID.TID 0000.0001)  ploadbar=  1.01087920924903E+05
 cg2d: Sum(rhs),rhsMax =  -3.71002675593387E+01  2.70718552600847E+00
(PID.TID 0000.0001)  ploadbar=  1.01089310529039E+05
 cg2d: Sum(rhs),rhsMax =  -3.71894106886775E+01  2.69943963892236E+00
(PID.TID 0000.0001)  ploadbar=  1.01090700133175E+05
 cg2d: Sum(rhs),rhsMax =  -3.72526674991386E+01  2.69359601197830E+00
(PID.TID 0000.0001)  ploadbar=  1.01092089737311E+05
 cg2d: Sum(rhs),rhsMax =  -3.73028083372680E+01  2.68870621589980E+00
(PID.TID 0000.0001)  ploadbar=  1.01093479341447E+05
 cg2d: Sum(rhs),rhsMax =  -3.73466671755545E+01  2.68426239113003E+00
(PID.TID 0000.0001)  ploadbar=  1.01094868945583E+05
 cg2d: Sum(rhs),rhsMax =  -3.73694696602507E+01  2.68133065872073E+00
(PID.TID 0000.0001)  ploadbar=  1.01095455152549E+05
 cg2d: Sum(rhs),rhsMax =  -3.73948261993892E+01  2.67820682920310E+00
(PID.TID 0000.0001)  ploadbar=  1.01096041359516E+05
 cg2d: Sum(rhs),rhsMax =  -3.74175453762546E+01  2.67525972931612E+00
(PID.TID 0000.0001)  ploadbar=  1.01096627566483E+05
 cg2d: Sum(rhs),rhsMax =  -3.74380339488336E+01  2.67245240201851E+00
(PID.TID 0000.0001)  ploadbar=  1.01097213773449E+05
 cg2d: Sum(rhs),rhsMax =  -3.74560641295583E+01  2.66979441435950E+00
(PID.TID 0000.0001)  ploadbar=  1.01097799980416E+05
 cg2d: Sum(rhs),rhsMax =  -3.74705389735976E+01  2.66735795415037E+00
(PID.TID 0000.0001)  ploadbar=  1.01098386187383E+05
 cg2d: Sum(rhs),rhsMax =  -3.74516525555286E+01  2.66734653834473E+00
(PID.TID 0000.0001)  ploadbar=  1.01098762334951E+05
 cg2d: Sum(rhs),rhsMax =  -3.74225540183649E+01  2.66810987453201E+00
(PID.TID 0000.0001)  ploadbar=  1.01099138482520E+05
 cg2d: Sum(rhs),rhsMax =  -3.73896638827199E+01  2.66918997928841E+00
(PID.TID 0000.0001)  ploadbar=  1.01099514630088E+05
 cg2d: Sum(rhs),rhsMax =  -3.73561479677630E+01  2.67035058859062E+00
(PID.TID 0000.0001)  ploadbar=  1.01099890777657E+05
 cg2d: Sum(rhs),rhsMax =  -3.73248032503053E+01  2.67138211198329E+00
(PID.TID 0000.0001)  ploadbar=  1.01100266925225E+05
 cg2d: Sum(rhs),rhsMax =  -3.72995475552601E+01  2.67199073163065E+00
(PID.TID 0000.0001)  ploadbar=  1.01100643072794E+05
 cg2d: Sum(rhs),rhsMax =  -3.72956729920816E+01  2.67114679602139E+00
(PID.TID 0000.0001)  ploadbar=  1.01100940399897E+05
 cg2d: Sum(rhs),rhsMax =  -3.72793291628634E+01  2.67126902566909E+00
(PID.TID 0000.0001)  ploadbar=  1.01101237727001E+05
 cg2d: Sum(rhs),rhsMax =  -3.72503264663643E+01  2.67236362770381E+00
(PID.TID 0000.0001)  ploadbar=  1.01101535054104E+05
 cg2d: Sum(rhs),rhsMax =  -3.72008690088790E+01  2.67498590142493E+00
(PID.TID 0000.0001)  ploadbar=  1.01101832381208E+05
 cg2d: Sum(rhs),rhsMax =  -3.71282927508376E+01  2.67933359310157E+00
(PID.TID 0000.0001)  ploadbar=  1.01102129708311E+05
 cg2d: Sum(rhs),rhsMax =  -3.70305812665442E+01  2.68556630022020E+00
(PID.TID 0000.0001)  ploadbar=  1.01102427035415E+05
 cg2d: Sum(rhs),rhsMax =  -3.69125511032687E+01  2.69337625380700E+00
(PID.TID 0000.0001)  ploadbar=  1.01103557619709E+05
 cg2d: Sum(rhs),rhsMax =  -3.67693490702097E+01  2.70314061513870E+00
(PID.TID 0000.0001)  ploadbar=  1.01104688204003E+05
 cg2d: Sum(rhs),rhsMax =  -3.65956980919292E+01  2.71528368238941E+00
(PID.TID 0000.0001)  ploadbar=  1.01105818788297E+05
 cg2d: Sum(rhs),rhsMax =  -3.63815063279512E+01  2.73061625648011E+00
(PID.TID 0000.0001)  ploadbar=  1.01106949372591E+05
 cg2d: Sum(rhs),rhsMax =  -3.61294743723429E+01  2.74903331691390E+00
(PID.TID 0000.0001)  ploadbar=  1.01108079956885E+05
 cg2d: Sum(rhs),rhsMax =  -3.58420223683083E+01  2.77046004750141E+00
(PID.TID 0000.0001)  ploadbar=  1.01109210541180E+05
 cg2d: Sum(rhs),rhsMax =  -3.55143356471787E+01  2.79531798313265E+00
(PID.TID 0000.0001)  ploadbar=  1.01108598721862E+05
 cg2d: Sum(rhs),rhsMax =  -3.51567949749862E+01  2.82294964864770E+00
(PID.TID 0000.0001)  ploadbar=  1.01107986902545E+05
 cg2d: Sum(rhs),rhsMax =  -3.47741845519430E+01  2.85311404760994E+00
(PID.TID 0000.0001)  ploadbar=  1.01107375083227E+05
 cg2d: Sum(rhs),rhsMax =  -3.43862708517080E+01  2.88428206893827E+00
(PID.TID 0000.0001)  ploadbar=  1.01106763263910E+05
 cg2d: Sum(rhs),rhsMax =  -3.39912412186797E+01  2.91665789979478E+00
(PID.TID 0000.0001)  ploadbar=  1.01106151444593E+05
 cg2d: Sum(rhs),rhsMax =  -3.35984996635435E+01  2.94947697046911E+00
(PID.TID 0000.0001)  ploadbar=  1.01105539625275E+05
 cg2d: Sum(rhs),rhsMax =  -3.32351650813712E+01  2.98052504311630E+00
(PID.TID 0000.0001)  ploadbar=  1.01105070464296E+05
 cg2d: Sum(rhs),rhsMax =  -3.29128592761651E+01  3.00859302497279E+00
(PID.TID 0000.0001)  ploadbar=  1.01104601303317E+05
 cg2d: Sum(rhs),rhsMax =  -3.26304554052300E+01  3.03358664340945E+00
(PID.TID 0000.0001)  ploadbar=  1.01104132142338E+05
 cg2d: Sum(rhs),rhsMax =  -3.23879606259031E+01  3.05532210174287E+00
(PID.TID 0000.0001)  ploadbar=  1.01103662981359E+05
 cg2d: Sum(rhs),rhsMax =  -3.21824518706294E+01  3.07391270526586E+00
(PID.TID 0000.0001)  ploadbar=  1.01103193820380E+05
 cg2d: Sum(rhs),rhsMax =  -3.20090458331476E+01  3.08969979101570E+00
(PID.TID 0000.0001)  ploadbar=  1.01102724659401E+05
 cg2d: Sum(rhs),rhsMax =  -3.18555118398218E+01  3.10377980864980E+00
(PID.TID 0000.0001)  ploadbar=  1.01102248446998E+05
 cg2d: Sum(rhs),rhsMax =  -3.19614991704426E+01  3.09272836357308E+00
(PID.TID 0000.0001)  ploadbar=  1.01101772234595E+05
 cg2d: Sum(rhs),rhsMax =  -3.21663463908553E+01  3.07231292238933E+00
(PID.TID 0000.0001)  ploadbar=  1.01101296022192E+05
 cg2d: Sum(rhs),rhsMax =  -3.23734817892612E+01  3.05196481638716E+00
(PID.TID 0000.0001)  ploadbar=  1.01100819809789E+05
 cg2d: Sum(rhs),rhsMax =  -3.25819112905838E+01  3.03176593549103E+00
(PID.TID 0000.0001)  ploadbar=  1.01100343597386E+05
 cg2d: Sum(rhs),rhsMax =  -3.27914617371495E+01  3.01172908447843E+00
(PID.TID 0000.0001)  ploadbar=  1.01099867384982E+05
 cg2d: Sum(rhs),rhsMax =  -3.30118261046266E+01  2.99098571108246E+00
(PID.TID 0000.0001)  ploadbar=  1.01099539901682E+05
 cg2d: Sum(rhs),rhsMax =  -3.32364852380944E+01  2.97014929913304E+00
(PID.TID 0000.0001)  ploadbar=  1.01099212418382E+05
 cg2d: Sum(rhs),rhsMax =  -3.34654187088008E+01  2.94922732226778E+00
(PID.TID 0000.0001)  ploadbar=  1.01098884935082E+05
 cg2d: Sum(rhs),rhsMax =  -3.37004834141104E+01  2.92805976297909E+00
(PID.TID 0000.0001)  ploadbar=  1.01098557451782E+05
 cg2d: Sum(rhs),rhsMax =  -3.39420593568848E+01  2.90662018142465E+00
(PID.TID 0000.0001)  ploadbar=  1.01098229968482E+05
 cg2d: Sum(rhs),rhsMax =  -3.41895716439987E+01  2.88496826017323E+00
(PID.TID 0000.0001)  ploadbar=  1.01097902485181E+05
 cg2d: Sum(rhs),rhsMax =  -3.44414340578000E+01  2.86320362730863E+00
(PID.TID 0000.0001)  ploadbar=  1.01096837892639E+05
 cg2d: Sum(rhs),rhsMax =  -3.46982028191603E+01  2.84128637313415E+00
(PID.TID 0000.0001)  ploadbar=  1.01095773300097E+05
 cg2d: Sum(rhs),rhsMax =  -3.49626263527823E+01  2.81899942933349E+00
(PID.TID 0000.0001)  ploadbar=  1.01094708707555E+05
 cg2d: Sum(rhs),rhsMax =  -3.52363913215472E+01  2.79622076192106E+00
(PID.TID 0000.0001)  ploadbar=  1.01093644115013E+05
 cg2d: Sum(rhs),rhsMax =  -3.55215102045558E+01  2.77281807958500E+00
(PID.TID 0000.0001)  ploadbar=  1.01092579522471E+05
 cg2d: Sum(rhs),rhsMax =  -3.58170479834916E+01  2.74890063650841E+00
(PID.TID 0000.0001)  ploadbar=  1.01091514929929E+05
 cg2d: Sum(rhs),rhsMax =  -3.61210124696573E+01  2.72481363141755E+00
(PID.TID 0000.0001)  ploadbar=  1.01091819617786E+05
 cg2d: Sum(rhs),rhsMax =  -3.64357293696662E+01  2.70040219748341E+00
(PID.TID 0000.0001)  ploadbar=  1.01092124305644E+05
 cg2d: Sum(rhs),rhsMax =  -3.67587054522061E+01  2.67587072784136E+00
(PID.TID 0000.0001)  ploadbar=  1.01092428993501E+05
 cg2d: Sum(rhs),rhsMax =  -3.70882255747711E+01  2.65134964760216E+00
(PID.TID 0000.0001)  ploadbar=  1.01092733681359E+05
 cg2d: Sum(rhs),rhsMax =  -3.74221227208791E+01  2.62700074854968E+00
(PID.TID 0000.0001)  ploadbar=  1.01093038369217E+05
 cg2d: Sum(rhs),rhsMax =  -3.77584759680939E+01  2.60295183219956E+00
(PID.TID 0000.0001)  ploadbar=  1.01093343057075E+05
 cg2d: Sum(rhs),rhsMax =  -3.80965662227680E+01  2.57925001720989E+00
(PID.TID 0000.0001)  ploadbar=  1.01092413705705E+05
 cg2d: Sum(rhs),rhsMax =  -3.84383992269971E+01  2.55575113019517E+00
(PID.TID 0000.0001)  ploadbar=  1.01091484354335E+05
 cg2d: Sum(rhs),rhsMax =  -3.87881903523305E+01  2.53217246646310E+00
(PID.TID 0000.0001)  ploadbar=  1.01090555002965E+05
 cg2d: Sum(rhs),rhsMax =  -3.91527902052392E+01  2.50808183939060E+00
(PID.TID 0000.0001)  ploadbar=  1.01089625651595E+05
 cg2d: Sum(rhs),rhsMax =  -3.95322728527916E+01  2.48351031017518E+00
(PID.TID 0000.0001)  ploadbar=  1.01088696300225E+05
 cg2d: Sum(rhs),rhsMax =  -3.99233952049234E+01  2.45868953933482E+00
(PID.TID 0000.0001)  ploadbar=  1.01087766948855E+05
 cg2d: Sum(rhs),rhsMax =  -4.02924588407740E+01  2.43569715772217E+00
(PID.TID 0000.0001)  ploadbar=  1.01085888696090E+05
 cg2d: Sum(rhs),rhsMax =  -4.05697972343266E+01  2.41858659027008E+00
(PID.TID 0000.0001)  ploadbar=  1.01084010443325E+05
 cg2d: Sum(rhs),rhsMax =  -4.08331504228083E+01  2.40253294213748E+00
(PID.TID 0000.0001)  ploadbar=  1.01082132190560E+05
 cg2d: Sum(rhs),rhsMax =  -4.10982579963822E+01  2.38657348476495E+00
(PID.TID 0000.0001)  ploadbar=  1.01080253937795E+05
 cg2d: Sum(rhs),rhsMax =  -4.13687371842991E+01  2.37048838183593E+00
(PID.TID 0000.0001)  ploadbar=  1.01078375685030E+05
 cg2d: Sum(rhs),rhsMax =  -4.16448208040472E+01  2.35426782899393E+00
(PID.TID 0000.0001)  ploadbar=  1.01076497432265E+05
 cg2d: Sum(rhs),rhsMax =  -4.19154297438374E+01  2.33851766570061E+00
(PID.TID 0000.0001)  ploadbar=  1.01075491137783E+05
 cg2d: Sum(rhs),rhsMax =  -4.21847434114031E+01  2.32298891604490E+00
(PID.TID 0000.0001)  ploadbar=  1.01074484843301E+05
 cg2d: Sum(rhs),rhsMax =  -4.24503277454644E+01  2.30779983990411E+00
(PID.TID 0000.0001)  ploadbar=  1.01073478548819E+05
 cg2d: Sum(rhs),rhsMax =  -4.27071575147468E+01  2.29319417162200E+00
(PID.TID 0000.0001)  ploadbar=  1.01072472254337E+05
 cg2d: Sum(rhs),rhsMax =  -4.29479791924509E+01  2.27952672615405E+00
(PID.TID 0000.0001)  ploadbar=  1.01071465959855E+05
 cg2d: Sum(rhs),rhsMax =  -4.31636818271450E+01  2.26724152257103E+00
(PID.TID 0000.0001)  ploadbar=  1.01070459665373E+05
 cg2d: Sum(rhs),rhsMax =  -4.33433867528256E+01  2.25704346429261E+00
(PID.TID 0000.0001)  ploadbar=  1.01070341059394E+05
 cg2d: Sum(rhs),rhsMax =  -4.34928911625236E+01  2.24857847228122E+00
(PID.TID 0000.0001)  ploadbar=  1.01070222453415E+05
 cg2d: Sum(rhs),rhsMax =  -4.36168551382836E+01  2.24156342370846E+00
(PID.TID 0000.0001)  ploadbar=  1.01070103847437E+05
 cg2d: Sum(rhs),rhsMax =  -4.37199431974798E+01  2.23572717786528E+00
(PID.TID 0000.0001)  ploadbar=  1.01069985241458E+05
 cg2d: Sum(rhs),rhsMax =  -4.38101703525446E+01  2.23063642416924E+00
(PID.TID 0000.0001)  ploadbar=  1.01069866635479E+05
 cg2d: Sum(rhs),rhsMax =  -4.38934642877007E+01  2.22597349374014E+00
(PID.TID 0000.0001)  ploadbar=  1.01069748029501E+05
 cg2d: Sum(rhs),rhsMax =  -4.39775254750389E+01  2.22133570930542E+00
(PID.TID 0000.0001)  ploadbar=  1.01068796806073E+05
 cg2d: Sum(rhs),rhsMax =  -4.40700205046707E+01  2.21633011158800E+00
(PID.TID 0000.0001)  ploadbar=  1.01067845582644E+05
 cg2d: Sum(rhs),rhsMax =  -4.41957556218593E+01  2.20971287948316E+00
(PID.TID 0000.0001)  ploadbar=  1.01066894359216E+05
 cg2d: Sum(rhs),rhsMax =  -4.43549489040850E+01  2.20149653773527E+00
(PID.TID 0000.0001)  ploadbar=  1.01065943135788E+05
 cg2d: Sum(rhs),rhsMax =  -4.45500524148570E+01  2.19159106704290E+00
(PID.TID 0000.0001)  ploadbar=  1.01064991912360E+05
 cg2d: Sum(rhs),rhsMax =  -4.47850031902128E+01  2.17984586091031E+00
(PID.TID 0000.0001)  ploadbar=  1.01064040688932E+05
 cg2d: Sum(rhs),rhsMax =  -4.50560661102781E+01  2.16649121841899E+00
(PID.TID 0000.0001)  ploadbar=  1.01063322732117E+05
 cg2d: Sum(rhs),rhsMax =  -4.53345117370299E+01  2.15294427521080E+00
(PID.TID 0000.0001)  ploadbar=  1.01062604775302E+05
 cg2d: Sum(rhs),rhsMax =  -4.56254544711722E+01  2.13897110422936E+00
(PID.TID 0000.0001)  ploadbar=  1.01061886818488E+05
 cg2d: Sum(rhs),rhsMax =  -4.59324128590697E+01  2.12441552306814E+00
(PID.TID 0000.0001)  ploadbar=  1.01061168861673E+05
 cg2d: Sum(rhs),rhsMax =  -4.62602079052824E+01  2.10907671744742E+00
(PID.TID 0000.0001)  ploadbar=  1.01060450904858E+05
 cg2d: Sum(rhs),rhsMax =  -4.66169039555792E+01  2.09261855911997E+00
(PID.TID 0000.0001)  ploadbar=  1.01059732948043E+05
 cg2d: Sum(rhs),rhsMax =  -4.70023959078151E+01  2.07510571422265E+00
(PID.TID 0000.0001)  ploadbar=  1.01058900309908E+05
 cg2d: Sum(rhs),rhsMax =  -4.74070321796808E+01  2.05701201632535E+00
(PID.TID 0000.0001)  ploadbar=  1.01058067671773E+05
 cg2d: Sum(rhs),rhsMax =  -4.78506839463471E+01  2.03751621231378E+00
(PID.TID 0000.0001)  ploadbar=  1.01057235033638E+05
 cg2d: Sum(rhs),rhsMax =  -4.78232216732752E+01  2.03820328894982E+00
(PID.TID 0000.0001)  ploadbar=  1.01056402395502E+05
 cg2d: Sum(rhs),rhsMax =  -4.76870184224665E+01  2.04347252926380E+00
(PID.TID 0000.0001)  ploadbar=  1.01055569757367E+05
 cg2d: Sum(rhs),rhsMax =  -4.75482667647530E+01  2.04880870682950E+00
(PID.TID 0000.0001)  ploadbar=  1.01054737119232E+05
 cg2d: Sum(rhs),rhsMax =  -4.74131870191001E+01  2.05406734877958E+00
(PID.TID 0000.0001)  ploadbar=  1.01054914790028E+05
 cg2d: Sum(rhs),rhsMax =  -4.72810612187792E+01  2.05927310684987E+00
(PID.TID 0000.0001)  ploadbar=  1.01055092460824E+05
 cg2d: Sum(rhs),rhsMax =  -4.71501062503999E+01  2.06449597980354E+00
(PID.TID 0000.0001)  ploadbar=  1.01055270131619E+05
 cg2d: Sum(rhs),rhsMax =  -4.70218143564836E+01  2.06966678583443E+00
(PID.TID 0000.0001)  ploadbar=  1.01055447802415E+05
 cg2d: Sum(rhs),rhsMax =  -4.68971552234602E+01  2.07473331927155E+00
(PID.TID 0000.0001)  ploadbar=  1.01055625473211E+05
 cg2d: Sum(rhs),rhsMax =  -4.67772310768351E+01  2.07963818782800E+00
(PID.TID 0000.0001)  ploadbar=  1.01055803144006E+05
 cg2d: Sum(rhs),rhsMax =  -4.66705674868570E+01  2.08397963317658E+00
(PID.TID 0000.0001)  ploadbar=  1.01056500444550E+05
 cg2d: Sum(rhs),rhsMax =  -4.65690605173818E+01  2.08810694810539E+00
(PID.TID 0000.0001)  ploadbar=  1.01057197745093E+05
 cg2d: Sum(rhs),rhsMax =  -4.64762574191919E+01  2.09185245164903E+00
(PID.TID 0000.0001)  ploadbar=  1.01057895045636E+05
 cg2d: Sum(rhs),rhsMax =  -4.63933712506648E+01  2.09515106841442E+00
(PID.TID 0000.0001)  ploadbar=  1.01058592346180E+05
 cg2d: Sum(rhs),rhsMax =  -4.63201502864898E+01  2.09800396833117E+00
(PID.TID 0000.0001)  ploadbar=  1.01059289646723E+05
 cg2d: Sum(rhs),rhsMax =  -4.62572859126205E+01  2.10036974390086E+00
(PID.TID 0000.0001)  ploadbar=  1.01059986947266E+05
 cg2d: Sum(rhs),rhsMax =  -4.62135948773680E+01  2.10189167217373E+00
(PID.TID 0000.0001)  ploadbar=  1.01061471055024E+05
 cg2d: Sum(rhs),rhsMax =  -4.61858328137766E+01  2.10270727536346E+00
(PID.TID 0000.0001)  ploadbar=  1.01062955162781E+05
 cg2d: Sum(rhs),rhsMax =  -4.61708230816888E+01  2.10295090001241E+00
(PID.TID 0000.0001)  ploadbar=  1.01064439270539E+05
 cg2d: Sum(rhs),rhsMax =  -4.61692044546023E+01  2.10258174117043E+00
(PID.TID 0000.0001)  ploadbar=  1.01065923378296E+05
 cg2d: Sum(rhs),rhsMax =  -4.61810906407879E+01  2.10158456103284E+00
(PID.TID 0000.0001)  ploadbar=  1.01067407486054E+05
 cg2d: Sum(rhs),rhsMax =  -4.62054480218079E+01  2.09999910091965E+00
(PID.TID 0000.0001)  ploadbar=  1.01068891593811E+05
 cg2d: Sum(rhs),rhsMax =  -4.62436971545921E+01  2.09776185556111E+00
(PID.TID 0000.0001)  ploadbar=  1.01068692750907E+05
 cg2d: Sum(rhs),rhsMax =  -4.62931279948099E+01  2.09498701248298E+00
(PID.TID 0000.0001)  ploadbar=  1.01068493908002E+05
 cg2d: Sum(rhs),rhsMax =  -4.63482203365277E+01  2.09192342431261E+00
(PID.TID 0000.0001)  ploadbar=  1.01068295065098E+05
 cg2d: Sum(rhs),rhsMax =  -4.64080566579087E+01  2.08860847356397E+00
(PID.TID 0000.0001)  ploadbar=  1.01068096222193E+05
 cg2d: Sum(rhs),rhsMax =  -4.64726096215479E+01  2.08503866050758E+00
(PID.TID 0000.0001)  ploadbar=  1.01067897379289E+05
 cg2d: Sum(rhs),rhsMax =  -4.65411401978470E+01  2.08124535163394E+00
(PID.TID 0000.0001)  ploadbar=  1.01067698536384E+05
 cg2d: Sum(rhs),rhsMax =  -4.66132016044552E+01  2.07739042406829E+00
(PID.TID 0000.0001)  ploadbar=  1.01068368803043E+05
 cg2d: Sum(rhs),rhsMax =  -4.66948813065567E+01  2.07320179026790E+00
(PID.TID 0000.0001)  ploadbar=  1.01069039069702E+05
 cg2d: Sum(rhs),rhsMax =  -4.67820158770720E+01  2.06886385046050E+00
(PID.TID 0000.0001)  ploadbar=  1.01069709336361E+05
 cg2d: Sum(rhs),rhsMax =  -4.68737046138645E+01  2.06441574752386E+00
(PID.TID 0000.0001)  ploadbar=  1.01070379603020E+05
 cg2d: Sum(rhs),rhsMax =  -4.69702189348247E+01  2.05983709516840E+00
(PID.TID 0000.0001)  ploadbar=  1.01071049869679E+05
 cg2d: Sum(rhs),rhsMax =  -4.70715284153408E+01  2.05512559102814E+00
(PID.TID 0000.0001)  ploadbar=  1.01071720136338E+05
 cg2d: Sum(rhs),rhsMax =  -4.71639036877082E+01  2.05086807913321E+00
(PID.TID 0000.0001)  ploadbar=  1.01072942513307E+05
 cg2d: Sum(rhs),rhsMax =  -4.72611432106902E+01  2.04645971706602E+00
(PID.TID 0000.0001)  ploadbar=  1.01074164890276E+05
 cg2d: Sum(rhs),rhsMax =  -4.73646749751709E+01  2.04183567086478E+00
(PID.TID 0000.0001)  ploadbar=  1.01075387267245E+05
 cg2d: Sum(rhs),rhsMax =  -4.74723288793962E+01  2.03708570136608E+00
(PID.TID 0000.0001)  ploadbar=  1.01076609644214E+05
 cg2d: Sum(rhs),rhsMax =  -4.75835891553732E+01  2.03222547631663E+00
(PID.TID 0000.0001)  ploadbar=  1.01077832021183E+05
 cg2d: Sum(rhs),rhsMax =  -4.76981128753979E+01  2.02725995326309E+00
(PID.TID 0000.0001)  ploadbar=  1.01079054398152E+05
 cg2d: Sum(rhs),rhsMax =  -4.78171624193928E+01  2.02210538916546E+00
(PID.TID 0000.0001)  ploadbar=  1.01078975715657E+05
 cg2d: Sum(rhs),rhsMax =  -4.79393075565999E+01  2.01682006621658E+00
(PID.TID 0000.0001)  ploadbar=  1.01078897033161E+05
 cg2d: Sum(rhs),rhsMax =  -4.80653318114235E+01  2.01136767103262E+00
(PID.TID 0000.0001)  ploadbar=  1.01078818350665E+05
 cg2d: Sum(rhs),rhsMax =  -4.81931826275745E+01  2.00583198305716E+00
(PID.TID 0000.0001)  ploadbar=  1.01078739668169E+05
 cg2d: Sum(rhs),rhsMax =  -4.83204863587937E+01  2.00030621535844E+00
(PID.TID 0000.0001)  ploadbar=  1.01078660985673E+05
 cg2d: Sum(rhs),rhsMax =  -4.84460338098949E+01  1.99483386449201E+00
(PID.TID 0000.0001)  ploadbar=  1.01078582303177E+05
 cg2d: Sum(rhs),rhsMax =  -4.85687765286165E+01  1.98946254385640E+00
(PID.TID 0000.0001)  ploadbar=  1.01078540943981E+05
 cg2d: Sum(rhs),rhsMax =  -4.86897163177174E+01  1.98414341907417E+00
(PID.TID 0000.0001)  ploadbar=  1.01078499584785E+05
 cg2d: Sum(rhs),rhsMax =  -4.88097734024794E+01  1.97883383393559E+00
(PID.TID 0000.0001)  ploadbar=  1.01078458225589E+05
 cg2d: Sum(rhs),rhsMax =  -4.89284000616430E+01  1.97355311277050E+00
(PID.TID 0000.0001)  ploadbar=  1.01078416866393E+05
 cg2d: Sum(rhs),rhsMax =  -4.90448191177356E+01  1.96832964765362E+00
(PID.TID 0000.0001)  ploadbar=  1.01078375507197E+05
 cg2d: Sum(rhs),rhsMax =  -4.91583515971384E+01  1.96318642810671E+00
(PID.TID 0000.0001)  ploadbar=  1.01078334148001E+05
 cg2d: Sum(rhs),rhsMax =  -4.92803357385476E+01  1.95782458656733E+00
(PID.TID 0000.0001)  ploadbar=  1.01079350392767E+05
 cg2d: Sum(rhs),rhsMax =  -4.94010302757712E+01  1.95262982056039E+00
(PID.TID 0000.0001)  ploadbar=  1.01080366637532E+05
 cg2d: Sum(rhs),rhsMax =  -4.95200573931560E+01  1.94761148744463E+00
(PID.TID 0000.0001)  ploadbar=  1.01081382882298E+05
 cg2d: Sum(rhs),rhsMax =  -4.96385779709087E+01  1.94271917999883E+00
(PID.TID 0000.0001)  ploadbar=  1.01082399127064E+05
 cg2d: Sum(rhs),rhsMax =  -4.97572304985554E+01  1.93792149224231E+00
(PID.TID 0000.0001)  ploadbar=  1.01083415371829E+05
 cg2d: Sum(rhs),rhsMax =  -4.98752048551644E+01  1.93324261695322E+00
(PID.TID 0000.0001)  ploadbar=  1.01084431616595E+05
 cg2d: Sum(rhs),rhsMax =  -4.99953953865217E+01  1.92852171970616E+00
(PID.TID 0000.0001)  ploadbar=  1.01084421160623E+05
 cg2d: Sum(rhs),rhsMax =  -5.01148080865929E+01  1.92387150535478E+00
(PID.TID 0000.0001)  ploadbar=  1.01084410704651E+05
 cg2d: Sum(rhs),rhsMax =  -5.02297167542426E+01  1.91943052756722E+00
(PID.TID 0000.0001)  ploadbar=  1.01084400248679E+05
 cg2d: Sum(rhs),rhsMax =  -5.03426463602444E+01  1.91509250773367E+00
(PID.TID 0000.0001)  ploadbar=  1.01084389792707E+05
 cg2d: Sum(rhs),rhsMax =  -5.04556081164713E+01  1.91077689950009E+00
(PID.TID 0000.0001)  ploadbar=  1.01084379336735E+05
 cg2d: Sum(rhs),rhsMax =  -5.05689003656820E+01  1.90646757515524E+00
(PID.TID 0000.0001)  ploadbar=  1.01084368880763E+05
 cg2d: Sum(rhs),rhsMax =  -5.06794331875351E+01  1.90226632286847E+00
(PID.TID 0000.0001)  ploadbar=  1.01084777539960E+05
 cg2d: Sum(rhs),rhsMax =  -5.07901090504762E+01  1.89805962349478E+00
(PID.TID 0000.0001)  ploadbar=  1.01085186199157E+05
 cg2d: Sum(rhs),rhsMax =  -5.08982171486127E+01  1.89394541368099E+00
(PID.TID 0000.0001)  ploadbar=  1.01085594858354E+05
 cg2d: Sum(rhs),rhsMax =  -5.10034797993178E+01  1.88993027648350E+00
(PID.TID 0000.0001)  ploadbar=  1.01086003517551E+05
 cg2d: Sum(rhs),rhsMax =  -5.11055316704763E+01  1.88602107196068E+00
(PID.TID 0000.0001)  ploadbar=  1.01086412176748E+05
 cg2d: Sum(rhs),rhsMax =  -5.12040283836898E+01  1.88222550927781E+00
(PID.TID 0000.0001)  ploadbar=  1.01086820835946E+05
 cg2d: Sum(rhs),rhsMax =  -5.12983064837680E+01  1.87854491410511E+00
(PID.TID 0000.0001)  ploadbar=  1.01086353845880E+05
 cg2d: Sum(rhs),rhsMax =  -5.13903264843960E+01  1.87490401327094E+00
(PID.TID 0000.0001)  ploadbar=  1.01085886855814E+05
 cg2d: Sum(rhs),rhsMax =  -5.14794590096665E+01  1.87132291850072E+00
(PID.TID 0000.0001)  ploadbar=  1.01085419865748E+05
 cg2d: Sum(rhs),rhsMax =  -5.15653972201851E+01  1.86780669534577E+00
(PID.TID 0000.0001)  ploadbar=  1.01084952875683E+05
 cg2d: Sum(rhs),rhsMax =  -5.16436148996592E+01  1.86451241520436E+00
(PID.TID 0000.0001)  ploadbar=  1.01084485885617E+05
 cg2d: Sum(rhs),rhsMax =  -5.17102465826041E+01  1.86157540166682E+00
(PID.TID 0000.0001)  ploadbar=  1.01084018895551E+05
 cg2d: Sum(rhs),rhsMax =  -5.17724920533179E+01  1.85888600242304E+00
(PID.TID 0000.0001)  ploadbar=  1.01082179717137E+05
 cg2d: Sum(rhs),rhsMax =  -5.18256287244285E+01  1.85660587775108E+00
(PID.TID 0000.0001)  ploadbar=  1.01080340538722E+05
 cg2d: Sum(rhs),rhsMax =  -5.18733874275301E+01  1.85459247672243E+00
(PID.TID 0000.0001)  ploadbar=  1.01078501360308E+05
 cg2d: Sum(rhs),rhsMax =  -5.19175794131028E+01  1.85277508813001E+00
(PID.TID 0000.0001)  ploadbar=  1.01076662181893E+05
 cg2d: Sum(rhs),rhsMax =  -5.19583428924286E+01  1.85114497880666E+00
(PID.TID 0000.0001)  ploadbar=  1.01074823003479E+05
 cg2d: Sum(rhs),rhsMax =  -5.19960763233339E+01  1.84968452600305E+00
(PID.TID 0000.0001)  ploadbar=  1.01072983825064E+05
 cg2d: Sum(rhs),rhsMax =  -5.20260752824588E+01  1.84852258301749E+00
(PID.TID 0000.0001)  ploadbar=  1.01071853264084E+05
 cg2d: Sum(rhs),rhsMax =  -5.20484301083269E+01  1.84765110914491E+00
(PID.TID 0000.0001)  ploadbar=  1.01070722703104E+05
 cg2d: Sum(rhs),rhsMax =  -5.20618638862447E+01  1.84711079637254E+00
(PID.TID 0000.0001)  ploadbar=  1.01069592142123E+05
 cg2d: Sum(rhs),rhsMax =  -5.20669342304677E+01  1.84687781163704E+00
(PID.TID 0000.0001)  ploadbar=  1.01068461581143E+05
 cg2d: Sum(rhs),rhsMax =  -5.20640421968647E+01  1.84693224725896E+00
(PID.TID 0000.0001)  ploadbar=  1.01067331020163E+05
 cg2d: Sum(rhs),rhsMax =  -5.20532118293381E+01  1.84727067764236E+00
(PID.TID 0000.0001)  ploadbar=  1.01066200459182E+05
 cg2d: Sum(rhs),rhsMax =  -5.20291318680139E+01  1.84808102290362E+00
(PID.TID 0000.0001)  ploadbar=  1.01066924826054E+05
 cg2d: Sum(rhs),rhsMax =  -5.19953199125041E+01  1.84923604047833E+00
(PID.TID 0000.0001)  ploadbar=  1.01067649192925E+05
 cg2d: Sum(rhs),rhsMax =  -5.19502843277315E+01  1.85078452091003E+00
(PID.TID 0000.0001)  ploadbar=  1.01068373559797E+05
 cg2d: Sum(rhs),rhsMax =  -5.18927302389891E+01  1.85276898821635E+00
(PID.TID 0000.0001)  ploadbar=  1.01069097926669E+05
 cg2d: Sum(rhs),rhsMax =  -5.18222775392366E+01  1.85519986057839E+00
(PID.TID 0000.0001)  ploadbar=  1.01069822293540E+05
 cg2d: Sum(rhs),rhsMax =  -5.17389449087195E+01  1.85807473734499E+00
(PID.TID 0000.0001)  ploadbar=  1.01070546660412E+05
 cg2d: Sum(rhs),rhsMax =  -5.16498046993210E+01  1.86112573298750E+00
(PID.TID 0000.0001)  ploadbar=  1.01069638644633E+05
 cg2d: Sum(rhs),rhsMax =  -5.15535535459435E+01  1.86439861411621E+00
(PID.TID 0000.0001)  ploadbar=  1.01068730628854E+05
 cg2d: Sum(rhs),rhsMax =  -5.14505058802294E+01  1.86787768026968E+00
(PID.TID 0000.0001)  ploadbar=  1.01067822613075E+05
 cg2d: Sum(rhs),rhsMax =  -5.13472591892871E+01  1.87131920165100E+00
(PID.TID 0000.0001)  ploadbar=  1.01066914597296E+05
 cg2d: Sum(rhs),rhsMax =  -5.12505449690486E+01  1.87447448243928E+00
(PID.TID 0000.0001)  ploadbar=  1.01066006581517E+05
 cg2d: Sum(rhs),rhsMax =  -5.11595383369202E+01  1.87736434835786E+00
(PID.TID 0000.0001)  ploadbar=  1.01065098565738E+05
 cg2d: Sum(rhs),rhsMax =  -5.10585426092811E+01  1.88068221014538E+00
(PID.TID 0000.0001)  ploadbar=  1.01064009867662E+05
 cg2d: Sum(rhs),rhsMax =  -5.09577913440431E+01  1.88404706831222E+00
(PID.TID 0000.0001)  ploadbar=  1.01062921169586E+05
 cg2d: Sum(rhs),rhsMax =  -5.08578738568441E+01  1.88743220491644E+00
(PID.TID 0000.0001)  ploadbar=  1.01061832471510E+05
 cg2d: Sum(rhs),rhsMax =  -5.07524774197375E+01  1.89106728403516E+00
(PID.TID 0000.0001)  ploadbar=  1.01060743773435E+05
 cg2d: Sum(rhs),rhsMax =  -5.06377373167077E+01  1.89509323939669E+00
(PID.TID 0000.0001)  ploadbar=  1.01059655075359E+05
 cg2d: Sum(rhs),rhsMax =  -5.05131238463081E+01  1.89952766872429E+00
(PID.TID 0000.0001)  ploadbar=  1.01058566377283E+05
 cg2d: Sum(rhs),rhsMax =  -5.03684051483630E+01  1.90471377271944E+00
(PID.TID 0000.0001)  ploadbar=  1.01059428007307E+05
 cg2d: Sum(rhs),rhsMax =  -5.02126714515697E+01  1.91031256004800E+00
(PID.TID 0000.0001)  ploadbar=  1.01060289637331E+05
 cg2d: Sum(rhs),rhsMax =  -5.00446999535918E+01  1.91637521063168E+00
(PID.TID 0000.0001)  ploadbar=  1.01061151267355E+05
 cg2d: Sum(rhs),rhsMax =  -4.98621623553476E+01  1.92299449389428E+00
(PID.TID 0000.0001)  ploadbar=  1.01062012897379E+05
 cg2d: Sum(rhs),rhsMax =  -4.96668899171127E+01  1.93010732331388E+00
(PID.TID 0000.0001)  ploadbar=  1.01062874527403E+05
 cg2d: Sum(rhs),rhsMax =  -4.94620972023365E+01  1.93759418683178E+00
(PID.TID 0000.0001)  ploadbar=  1.01063736157427E+05
 cg2d: Sum(rhs),rhsMax =  -4.92212821072053E+01  1.94658002774067E+00
(PID.TID 0000.0001)  ploadbar=  1.01065331110463E+05
 cg2d: Sum(rhs),rhsMax =  -4.89747626147226E+01  1.95589291618212E+00
(PID.TID 0000.0001)  ploadbar=  1.01066926063499E+05
 cg2d: Sum(rhs),rhsMax =  -4.87416448666967E+01  1.96476676056677E+00
(PID.TID 0000.0001)  ploadbar=  1.01068521016535E+05
 cg2d: Sum(rhs),rhsMax =  -4.85308709770674E+01  1.97281772898873E+00
(PID.TID 0000.0001)  ploadbar=  1.01070115969571E+05
 cg2d: Sum(rhs),rhsMax =  -4.83594548073234E+01  1.97931987267019E+00
(PID.TID 0000.0001)  ploadbar=  1.01071710922607E+05
 cg2d: Sum(rhs),rhsMax =  -4.82454331236636E+01  1.98349153880786E+00
(PID.TID 0000.0001)  ploadbar=  1.01073305875642E+05
 cg2d: Sum(rhs),rhsMax =  -4.82627551303903E+01  1.98221249587570E+00
(PID.TID 0000.0001)  ploadbar=  1.01073857102402E+05
 cg2d: Sum(rhs),rhsMax =  -4.83362389859132E+01  1.97857313748670E+00
(PID.TID 0000.0001)  ploadbar=  1.01074408329161E+05
 cg2d: Sum(rhs),rhsMax =  -4.84629820736581E+01  1.97271315904272E+00
(PID.TID 0000.0001)  ploadbar=  1.01074959555920E+05
 cg2d: Sum(rhs),rhsMax =  -4.86327125783150E+01  1.96508182010564E+00
(PID.TID 0000.0001)  ploadbar=  1.01075510782679E+05
 cg2d: Sum(rhs),rhsMax =  -4.88454362391285E+01  1.95571505289911E+00
(PID.TID 0000.0001)  ploadbar=  1.01076062009439E+05
 cg2d: Sum(rhs),rhsMax =  -4.91037861472023E+01  1.94455252381656E+00
(PID.TID 0000.0001)  ploadbar=  1.01076613236198E+05
 cg2d: Sum(rhs),rhsMax =  -4.94259592170328E+01  1.93109552726663E+00
(PID.TID 0000.0001)  ploadbar=  1.01077637433040E+05
 cg2d: Sum(rhs),rhsMax =  -4.97568370785930E+01  1.91755632830653E+00
(PID.TID 0000.0001)  ploadbar=  1.01078661629883E+05
 cg2d: Sum(rhs),rhsMax =  -5.00785852318406E+01  1.90461924790030E+00
(PID.TID 0000.0001)  ploadbar=  1.01079685826725E+05
 cg2d: Sum(rhs),rhsMax =  -5.03856095008544E+01  1.89247265892986E+00
(PID.TID 0000.0001)  ploadbar=  1.01080710023567E+05
 cg2d: Sum(rhs),rhsMax =  -5.06693340167314E+01  1.88140402853936E+00
(PID.TID 0000.0001)  ploadbar=  1.01081734220409E+05
 cg2d: Sum(rhs),rhsMax =  -5.09281277388019E+01  1.87143720367206E+00
(PID.TID 0000.0001)  ploadbar=  1.01082758417252E+05
 cg2d: Sum(rhs),rhsMax =  -5.11684267792035E+01  1.86224838277679E+00
(PID.TID 0000.0001)  ploadbar=  1.01083109795349E+05
 cg2d: Sum(rhs),rhsMax =  -5.13656344515822E+01  1.85470362543408E+00
(PID.TID 0000.0001)      cg2d_init_res =   1.80476229948564E-01
(PID.TID 0000.0001)      cg2d_iters(min,last) =      -1     132
(PID.TID 0000.0001)      cg2d_last_res =   9.48589791108704E-08
(PID.TID 0000.0001) // =======================================================
(PID.TID 0000.0001) // Begin MONITOR dynamic field statistics
(PID.TID 0000.0001) // =======================================================
(PID.TID 0000.0001) %MON time_tsnumber                =                 10512
(PID.TID 0000.0001) %MON time_secondsf                =   3.7843200000000E+07
(PID.TID 0000.0001) %MON dynstat_eta_max              =   1.0910152939936E+00
(PID.TID 0000.0001) %MON dynstat_eta_min              =  -6.6559704702024E+00
(PID.TID 0000.0001) %MON dynstat_eta_mean             =   4.8218112087263E-02
(PID.TID 0000.0001) %MON dynstat_eta_sd               =   7.4796255837765E-01
(PID.TID 0000.0001) %MON dynstat_eta_del2             =   2.1274078897233E-04
(PID.TID 0000.0001) %MON dynstat_uvel_max             =   1.3065252772075E+00
(PID.TID 0000.0001) %MON dynstat_uvel_min             =  -7.9641360296638E-01
(PID.TID 0000.0001) %MON dynstat_uvel_mean            =   1.4379526739313E-03
(PID.TID 0000.0001) %MON dynstat_uvel_sd              =   2.0985569791326E-02
(PID.TID 0000.0001) %MON dynstat_uvel_del2            =   9.0616400964477E-06
(PID.TID 0000.0001) %MON dynstat_vvel_max             =   1.1682911504317E+00
(PID.TID 0000.0001) %MON dynstat_vvel_min             =  -9.3635200013871E-01
(PID.TID 0000.0001) %MON dynstat_vvel_mean            =   1.1496009543950E-03
(PID.TID 0000.0001) %MON dynstat_vvel_sd              =   2.2056646458961E-02
(PID.TID 0000.0001) %MON dynstat_vvel_del2            =   9.3117723774479E-06
(PID.TID 0000.0001) %MON dynstat_wvel_max             =   4.8205644904302E-04
(PID.TID 0000.0001) %MON dynstat_wvel_min             =  -1.0082776803912E-03
(PID.TID 0000.0001) %MON dynstat_wvel_mean            =   1.4273632598723E-08
(PID.TID 0000.0001) %MON dynstat_wvel_sd              =   2.3208305083903E-05
(PID.TID 0000.0001) %MON dynstat_wvel_del2            =   1.7523120378565E-08
(PID.TID 0000.0001) %MON dynstat_theta_max            =   3.0908787496084E+01
(PID.TID 0000.0001) %MON dynstat_theta_min            =  -1.9726693901165E+00
(PID.TID 0000.0001) %MON dynstat_theta_mean           =   3.5858229756611E+00
(PID.TID 0000.0001) %MON dynstat_theta_sd             =   4.4348682618219E+00
(PID.TID 0000.0001) %MON dynstat_theta_del2           =   8.9374622565779E-05
(PID.TID 0000.0001) %MON dynstat_salt_max             =   4.0645378631347E+01
(PID.TID 0000.0001) %MON dynstat_salt_min             =   2.4774052961363E+01
(PID.TID 0000.0001) %MON dynstat_salt_mean            =   3.4727188847334E+01
(PID.TID 0000.0001) %MON dynstat_salt_sd              =   3.7614304010277E-01
(PID.TID 0000.0001) %MON dynstat_salt_del2            =   1.9865366253841E-05
(PID.TID 0000.0001) %MON dynstat_sst_max              =   3.0908787496084E+01
(PID.TID 0000.0001) %MON dynstat_sst_min              =  -1.9606601293354E+00
(PID.TID 0000.0001) %MON dynstat_sst_mean             =   1.8427479714805E+01
(PID.TID 0000.0001) %MON dynstat_sst_sd               =   1.0180467214649E+01
(PID.TID 0000.0001) %MON dynstat_sst_del2             =   6.7578226162706E-04
(PID.TID 0000.0001) %MON dynstat_sss_max              =   3.9933681460185E+01
(PID.TID 0000.0001) %MON dynstat_sss_min              =   2.4774052961363E+01
(PID.TID 0000.0001) %MON dynstat_sss_mean             =   3.4754619650897E+01
(PID.TID 0000.0001) %MON dynstat_sss_sd               =   1.1591380692517E+00
(PID.TID 0000.0001) %MON dynstat_sss_del2             =   3.1161152259262E-04
(PID.TID 0000.0001) %MON forcing_qnet_max             =   1.6187766430667E+03
(PID.TID 0000.0001) %MON forcing_qnet_min             =  -5.7977024857379E+02
(PID.TID 0000.0001) %MON forcing_qnet_mean            =   1.6963824021923E+01
(PID.TID 0000.0001) %MON forcing_qnet_sd              =   2.0025791758731E+02
(PID.TID 0000.0001) %MON forcing_qnet_del2            =   1.0524251275484E-01
(PID.TID 0000.0001) %MON forcing_qsw_max              =   6.0419119946347E+01
(PID.TID 0000.0001) %MON forcing_qsw_min              =  -6.3871023562478E+02
(PID.TID 0000.0001) %MON forcing_qsw_mean             =  -1.4833971024463E+02
(PID.TID 0000.0001) %MON forcing_qsw_sd               =   1.6475180482282E+02
(PID.TID 0000.0001) %MON forcing_qsw_del2             =   5.1738877906042E-02
(PID.TID 0000.0001) %MON forcing_empmr_max            =   1.4167309422072E-03
(PID.TID 0000.0001) %MON forcing_empmr_min            =  -4.2998305373866E-03
(PID.TID 0000.0001) %MON forcing_empmr_mean           =   2.9355652362569E-06
(PID.TID 0000.0001) %MON forcing_empmr_sd             =   1.0395121616918E-04
(PID.TID 0000.0001) %MON forcing_empmr_del2           =   2.8154466889095E-07
(PID.TID 0000.0001) %MON forcing_fu_max               =   1.2855952598996E+00
(PID.TID 0000.0001) %MON forcing_fu_min               =  -1.4368111093839E+00
(PID.TID 0000.0001) %MON forcing_fu_mean              =   1.1803408790331E-02
(PID.TID 0000.0001) %MON forcing_fu_sd                =   1.3840719544318E-01
(PID.TID 0000.0001) %MON forcing_fu_del2              =   7.4664960037530E-05
(PID.TID 0000.0001) %MON forcing_fv_max               =   1.7922726074855E+00
(PID.TID 0000.0001) %MON forcing_fv_min               =  -1.3469048765510E+00
(PID.TID 0000.0001) %MON forcing_fv_mean              =   4.2620991691466E-03
(PID.TID 0000.0001) %MON forcing_fv_sd                =   1.4370702871545E-01
(PID.TID 0000.0001) %MON forcing_fv_del2              =   7.9995726335790E-05
(PID.TID 0000.0001) %MON trAdv_CFL_u_max              =   5.3325696203906E-02
(PID.TID 0000.0001) %MON trAdv_CFL_v_max              =   6.0465589074420E-02
(PID.TID 0000.0001) %MON trAdv_CFL_w_max              =   1.6704503863629E-01
(PID.TID 0000.0001) %MON advcfl_uvel_max              =   5.6973975012431E-02
(PID.TID 0000.0001) %MON advcfl_vvel_max              =   5.4933320881481E-02
(PID.TID 0000.0001) %MON advcfl_wvel_max              =   1.6853271481408E-01
(PID.TID 0000.0001) %MON advcfl_W_hf_max              =   1.7031069213188E-01
(PID.TID 0000.0001) %MON pe_b_mean                    =   1.6061128240289E-03
(PID.TID 0000.0001) %MON ke_max                       =   8.4064635040898E-01
(PID.TID 0000.0001) %MON ke_mean                      =   4.4857610969738E-04
(PID.TID 0000.0001) %MON ke_vol                       =   1.3350151433687E+18
(PID.TID 0000.0001) %MON vort_r_min                   =  -2.9412059014811E-05
(PID.TID 0000.0001) %MON vort_r_max                   =   1.6968050280632E-05
(PID.TID 0000.0001) %MON vort_a_mean                  =  -1.9727864647440E-05
(PID.TID 0000.0001) %MON vort_a_sd                    =   7.4543128330966E-05
(PID.TID 0000.0001) %MON vort_p_mean                  =  -2.1760229267271E-05
(PID.TID 0000.0001) %MON vort_p_sd                    =   9.7244807248621E-05
(PID.TID 0000.0001) %MON surfExpan_theta_mean         =   2.1806556767919E-07
(PID.TID 0000.0001) %MON surfExpan_salt_mean          =   1.4201754283258E-08
(PID.TID 0000.0001) // =======================================================
(PID.TID 0000.0001) // End MONITOR dynamic field statistics
(PID.TID 0000.0001) // =======================================================
(PID.TID 0000.0001)  ploadbar=  1.01083461173447E+05
(PID.TID 0000.0001) %SBO sbo_mass                     =   1.3737567999683E+21
(PID.TID 0000.0001) %SBO sbo_mass_fw                  =   4.3984597771201E+16
(PID.TID 0000.0001) %SBO sbo_zoamc                    =   1.2770897580911E+25
(PID.TID 0000.0001) %SBO sbo_zoamp                    =   2.9276642953395E+30
(PID.TID 0000.0001) // =======================================================
(PID.TID 0000.0001) // Begin MONITOR SEAICE statistics
(PID.TID 0000.0001) // =======================================================
(PID.TID 0000.0001) %MON seaice_tsnumber              =                 10512
(PID.TID 0000.0001) %MON seaice_time_sec              =   3.7843200000000E+07
(PID.TID 0000.0001) %MON seaice_uice_max              =   4.0000000000000E-01
(PID.TID 0000.0001) %MON seaice_uice_min              =  -4.0000000000000E-01
(PID.TID 0000.0001) %MON seaice_uice_mean             =   1.2972150077932E-02
(PID.TID 0000.0001) %MON seaice_uice_sd               =   1.7487343367902E-01
(PID.TID 0000.0001) %MON seaice_uice_del2             =   1.4296605335659E-04
(PID.TID 0000.0001) %MON seaice_vice_max              =   4.0000000000000E-01
(PID.TID 0000.0001) %MON seaice_vice_min              =  -4.0000000000000E-01
(PID.TID 0000.0001) %MON seaice_vice_mean             =  -7.6427834732078E-03
(PID.TID 0000.0001) %MON seaice_vice_sd               =   1.7644963766099E-01
(PID.TID 0000.0001) %MON seaice_vice_del2             =   1.4538391382237E-04
(PID.TID 0000.0001) %MON seaice_area_max              =   9.7000000000000E-01
(PID.TID 0000.0001) %MON seaice_area_min              =   0.0000000000000E+00
(PID.TID 0000.0001) %MON seaice_area_mean             =   5.1873842897721E-02
(PID.TID 0000.0001) %MON seaice_area_sd               =   2.1119646394098E-01
(PID.TID 0000.0001) %MON seaice_area_del2             =   2.2671687425586E-04
(PID.TID 0000.0001) %MON seaice_heff_max              =   6.7975817098320E+00
(PID.TID 0000.0001) %MON seaice_heff_min              =   0.0000000000000E+00
(PID.TID 0000.0001) %MON seaice_heff_mean             =   7.6959370446982E-02
(PID.TID 0000.0001) %MON seaice_heff_sd               =   3.8821371821786E-01
(PID.TID 0000.0001) %MON seaice_heff_del2             =   2.1481516544069E-04
(PID.TID 0000.0001) %MON seaice_hsnow_max             =   1.0938773490513E+00
(PID.TID 0000.0001) %MON seaice_hsnow_min             =  -7.1311088459224E-05
(PID.TID 0000.0001) %MON seaice_hsnow_mean            =   9.7205566055254E-03
(PID.TID 0000.0001) %MON seaice_hsnow_sd              =   5.0299263168307E-02
(PID.TID 0000.0001) %MON seaice_hsnow_del2            =   4.7936295388934E-05
(PID.TID 0000.0001) // =======================================================
(PID.TID 0000.0001) // End MONITOR SEAICE statistics
(PID.TID 0000.0001) // =======================================================
(PID.TID 0000.0001) // =======================================================
(PID.TID 0000.0001) // Begin MONITOR EXF statistics
(PID.TID 0000.0001) // =======================================================
(PID.TID 0000.0001) %MON exf_tsnumber                 =                 10512
(PID.TID 0000.0001) %MON exf_time_sec                 =   3.7843200000000E+07
(PID.TID 0000.0001) %MON exf_ustress_max              =   1.3173592090607E+00
(PID.TID 0000.0001) %MON exf_ustress_min              =  -1.6459183692932E+00
(PID.TID 0000.0001) %MON exf_ustress_mean             =   1.1364943364971E-02
(PID.TID 0000.0001) %MON exf_ustress_sd               =   1.3680485316432E-01
(PID.TID 0000.0001) %MON exf_ustress_del2             =   9.6399659763053E-05
(PID.TID 0000.0001) %MON exf_vstress_max              =   1.7689213156700E+00
(PID.TID 0000.0001) %MON exf_vstress_min              =  -2.7178792953491E+00
(PID.TID 0000.0001) %MON exf_vstress_mean             =   5.1167831079845E-03
(PID.TID 0000.0001) %MON exf_vstress_sd               =   1.4428809823895E-01
(PID.TID 0000.0001) %MON exf_vstress_del2             =   1.0633712081367E-04
(PID.TID 0000.0001) %MON exf_hflux_max                =   1.4818190938455E+03
(PID.TID 0000.0001) %MON exf_hflux_min                =  -5.6683665187522E+02
(PID.TID 0000.0001) %MON exf_hflux_mean               =   3.4938496454497E+01
(PID.TID 0000.0001) %MON exf_hflux_sd                 =   2.1978849261085E+02
(PID.TID 0000.0001) %MON exf_hflux_del2               =   3.7374459619974E-01
(PID.TID 0000.0001) %MON exf_sflux_max                =   4.0250205949331E-07
(PID.TID 0000.0001) %MON exf_sflux_min                =  -4.2679292513678E-06
(PID.TID 0000.0001) %MON exf_sflux_mean               =   1.0343607962874E-09
(PID.TID 0000.0001) %MON exf_sflux_sd                 =   9.7211709784297E-08
(PID.TID 0000.0001) %MON exf_sflux_del2               =   1.9160350201527E-10
(PID.TID 0000.0001) %MON exf_wspeed_max               =   2.3972170829773E+01
(PID.TID 0000.0001) %MON exf_wspeed_min               =   4.0680915117264E-01
(PID.TID 0000.0001) %MON exf_wspeed_mean              =   7.0009154098237E+00
(PID.TID 0000.0001) %MON exf_wspeed_sd                =   3.5892124374914E+00
(PID.TID 0000.0001) %MON exf_wspeed_del2              =   1.2637766016936E-02
(PID.TID 0000.0001) %MON exf_atemp_max                =   3.0672969284058E+02
(PID.TID 0000.0001) %MON exf_atemp_min                =   2.2567059745789E+02
(PID.TID 0000.0001) %MON exf_atemp_mean               =   2.8920474784090E+02
(PID.TID 0000.0001) %MON exf_atemp_sd                 =   1.2892238005608E+01
(PID.TID 0000.0001) %MON exf_atemp_del2               =   2.7077265837827E-02
(PID.TID 0000.0001) %MON exf_aqh_max                  =   2.1373907104135E-02
(PID.TID 0000.0001) %MON exf_aqh_min                  =  -1.1093865032308E-04
(PID.TID 0000.0001) %MON exf_aqh_mean                 =   1.1012636537463E-02
(PID.TID 0000.0001) %MON exf_aqh_sd                   =   5.7680898893743E-03
(PID.TID 0000.0001) %MON exf_aqh_del2                 =   1.4884550699720E-05
(PID.TID 0000.0001) %MON exf_lwflux_max               =   2.2857470646603E+02
(PID.TID 0000.0001) %MON exf_lwflux_min               =  -3.0544908161941E+01
(PID.TID 0000.0001) %MON exf_lwflux_mean              =   4.8456618521602E+01
(PID.TID 0000.0001) %MON exf_lwflux_sd                =   2.8794349248153E+01
(PID.TID 0000.0001) %MON exf_lwflux_del2              =   9.4522032799603E-02
(PID.TID 0000.0001) %MON exf_evap_max                 =   4.1780431706433E-07
(PID.TID 0000.0001) %MON exf_evap_min                 =  -1.2033141786872E-07
(PID.TID 0000.0001) %MON exf_evap_mean                =   4.4134745168541E-08
(PID.TID 0000.0001) %MON exf_evap_sd                  =   3.5033101697838E-08
(PID.TID 0000.0001) %MON exf_evap_del2                =   7.4572519640567E-11
(PID.TID 0000.0001) %MON exf_precip_max               =   2.4043725375122E-06
(PID.TID 0000.0001) %MON exf_precip_min               =  -2.4749696514448E-08
(PID.TID 0000.0001) %MON exf_precip_mean              =   3.9473109763900E-08
(PID.TID 0000.0001) %MON exf_precip_sd                =   7.3878504505014E-08
(PID.TID 0000.0001) %MON exf_precip_del2              =   1.8512900278316E-10
(PID.TID 0000.0001) %MON exf_swflux_max               =   1.1805767162377E+02
(PID.TID 0000.0001) %MON exf_swflux_min               =  -5.7702978812058E+02
(PID.TID 0000.0001) %MON exf_swflux_mean              =  -1.5432302804070E+02
(PID.TID 0000.0001) %MON exf_swflux_sd                =   1.5938996466642E+02
(PID.TID 0000.0001) %MON exf_swflux_del2              =   2.7256273617074E-01
(PID.TID 0000.0001) %MON exf_swdown_max               =   6.2191586303711E+02
(PID.TID 0000.0001) %MON exf_swdown_min               =  -1.4900189971924E+02
(PID.TID 0000.0001) %MON exf_swdown_mean              =   1.6735082014819E+02
(PID.TID 0000.0001) %MON exf_swdown_sd                =   1.7230504665608E+02
(PID.TID 0000.0001) %MON exf_swdown_del2              =   2.9610935649341E-01
(PID.TID 0000.0001) %MON exf_lwdown_max               =   4.5584849548340E+02
(PID.TID 0000.0001) %MON exf_lwdown_min               =   7.1088562011719E+01
(PID.TID 0000.0001) %MON exf_lwdown_mean              =   3.6281893782123E+02
(PID.TID 0000.0001) %MON exf_lwdown_sd                =   6.5108446153490E+01
(PID.TID 0000.0001) %MON exf_lwdown_del2              =   4.8768144356379E-01
(PID.TID 0000.0001) %MON exf_apressure_max            =   1.0461806250000E+05
(PID.TID 0000.0001) %MON exf_apressure_min            =   9.6137640625000E+04
(PID.TID 0000.0001) %MON exf_apressure_mean           =   1.0108381255154E+05
(PID.TID 0000.0001) %MON exf_apressure_sd             =   1.0319047012006E+03
(PID.TID 0000.0001) %MON exf_apressure_del2           =   1.4503666419474E+02
(PID.TID 0000.0001) %MON exf_runoff_max               =   4.1616140845428E-06
(PID.TID 0000.0001) %MON exf_runoff_min               =   0.0000000000000E+00
(PID.TID 0000.0001) %MON exf_runoff_mean              =   3.6272746083540E-09
(PID.TID 0000.0001) %MON exf_runoff_sd                =   4.6684030161543E-08
(PID.TID 0000.0001) %MON exf_runoff_del2              =   3.2286004305861E-11
(PID.TID 0000.0001) // =======================================================
(PID.TID 0000.0001) // End MONITOR EXF statistics
(PID.TID 0000.0001) // =======================================================
 cg2d: Sum(rhs),rhsMax =  -5.15519444411757E+01  1.84760097539512E+00
(PID.TID 0000.0001)  ploadbar=  1.01083812551545E+05
 cg2d: Sum(rhs),rhsMax =  -5.17387360761781E+01  1.84052622568691E+00
(PID.TID 0000.0001)  ploadbar=  1.01084163929642E+05
 cg2d: Sum(rhs),rhsMax =  -5.19276204597249E+01  1.83341922086483E+00
(PID.TID 0000.0001)  ploadbar=  1.01084515307740E+05
 cg2d: Sum(rhs),rhsMax =  -5.21191072381150E+01  1.82626008383665E+00
(PID.TID 0000.0001)  ploadbar=  1.01084866685838E+05
 cg2d: Sum(rhs),rhsMax =  -5.23102132911965E+01  1.81915956529603E+00
(PID.TID 0000.0001)  ploadbar=  1.01084229772564E+05
 cg2d: Sum(rhs),rhsMax =  -5.25047550372035E+01  1.81198106210800E+00
(PID.TID 0000.0001)  ploadbar=  1.01083592859290E+05
 cg2d: Sum(rhs),rhsMax =  -5.27041585600287E+01  1.80467332218311E+00
(PID.TID 0000.0001)  ploadbar=  1.01082955946016E+05
 cg2d: Sum(rhs),rhsMax =  -5.29060477231799E+01  1.79731947791898E+00
(PID.TID 0000.0001)  ploadbar=  1.01082319032742E+05
 cg2d: Sum(rhs),rhsMax =  -5.31072150140026E+01  1.79002408306718E+00
(PID.TID 0000.0001)  ploadbar=  1.01081682119469E+05
 cg2d: Sum(rhs),rhsMax =  -5.33042490215370E+01  1.78289635802422E+00
(PID.TID 0000.0001)  ploadbar=  1.01081045206195E+05
 cg2d: Sum(rhs),rhsMax =  -5.34834365174468E+01  1.77637293226402E+00
(PID.TID 0000.0001)  ploadbar=  1.01080019786361E+05
 cg2d: Sum(rhs),rhsMax =  -5.36516827118570E+01  1.77021456196684E+00
(PID.TID 0000.0001)  ploadbar=  1.01078994366527E+05
 cg2d: Sum(rhs),rhsMax =  -5.38055720669607E+01  1.76452392336434E+00
(PID.TID 0000.0001)  ploadbar=  1.01077968946693E+05
 cg2d: Sum(rhs),rhsMax =  -5.39471163800179E+01  1.75922534935993E+00
(PID.TID 0000.0001)  ploadbar=  1.01076943526858E+05
 cg2d: Sum(rhs),rhsMax =  -5.40792702775858E+01  1.75421360541826E+00
(PID.TID 0000.0001)  ploadbar=  1.01075918107024E+05
 cg2d: Sum(rhs),rhsMax =  -5.42020434271307E+01  1.74947759430199E+00
(PID.TID 0000.0001)  ploadbar=  1.01074892687190E+05
 cg2d: Sum(rhs),rhsMax =  -5.43154632473043E+01  1.74512511630026E+00
(PID.TID 0000.0001)  ploadbar=  1.01074258354558E+05
 cg2d: Sum(rhs),rhsMax =  -5.44172058785068E+01  1.74122549169533E+00
(PID.TID 0000.0001)  ploadbar=  1.01073624021925E+05
 cg2d: Sum(rhs),rhsMax =  -5.45009284164175E+01  1.73797175571134E+00
(PID.TID 0000.0001)  ploadbar=  1.01072989689293E+05
 cg2d: Sum(rhs),rhsMax =  -5.45603457600479E+01  1.73555582178224E+00
(PID.TID 0000.0001)  ploadbar=  1.01072355356661E+05
 cg2d: Sum(rhs),rhsMax =  -5.45933646335664E+01  1.73403405347056E+00
(PID.TID 0000.0001)  ploadbar=  1.01071721024028E+05
 cg2d: Sum(rhs),rhsMax =  -5.45992248983786E+01  1.73342290199417E+00
(PID.TID 0000.0001)  ploadbar=  1.01071086691396E+05
 cg2d: Sum(rhs),rhsMax =  -5.45884868612257E+01  1.73332885548649E+00
(PID.TID 0000.0001)  ploadbar=  1.01069989446600E+05
 cg2d: Sum(rhs),rhsMax =  -5.45585782700595E+01  1.73383119850868E+00
(PID.TID 0000.0001)  ploadbar=  1.01068892201804E+05
 cg2d: Sum(rhs),rhsMax =  -5.45060656165873E+01  1.73503647747593E+00
(PID.TID 0000.0001)  ploadbar=  1.01067794957009E+05
 cg2d: Sum(rhs),rhsMax =  -5.44384576232193E+01  1.73670548013887E+00
(PID.TID 0000.0001)  ploadbar=  1.01066697712213E+05
 cg2d: Sum(rhs),rhsMax =  -5.43583285149518E+01  1.73875647184796E+00
(PID.TID 0000.0001)  ploadbar=  1.01065600467417E+05
 cg2d: Sum(rhs),rhsMax =  -5.42666065166166E+01  1.74116252864849E+00
(PID.TID 0000.0001)  ploadbar=  1.01064503222621E+05
 cg2d: Sum(rhs),rhsMax =  -5.41668436778341E+01  1.74386520748236E+00
(PID.TID 0000.0001)  ploadbar=  1.01062752309824E+05
 cg2d: Sum(rhs),rhsMax =  -5.40803775156412E+01  1.74617351226123E+00
(PID.TID 0000.0001)  ploadbar=  1.01061001397027E+05
 cg2d: Sum(rhs),rhsMax =  -5.39893927207919E+01  1.74865441016409E+00
(PID.TID 0000.0001)  ploadbar=  1.01059250484230E+05
 cg2d: Sum(rhs),rhsMax =  -5.38928928866690E+01  1.75133792604190E+00
(PID.TID 0000.0001)  ploadbar=  1.01057499571433E+05
 cg2d: Sum(rhs),rhsMax =  -5.37912918824184E+01  1.75420642447071E+00
(PID.TID 0000.0001)  ploadbar=  1.01055748658636E+05
 cg2d: Sum(rhs),rhsMax =  -5.36853419981397E+01  1.75722874840041E+00
(PID.TID 0000.0001)  ploadbar=  1.01053997745839E+05
 cg2d: Sum(rhs),rhsMax =  -5.35725105835198E+01  1.76045565724089E+00
(PID.TID 0000.0001)  ploadbar=  1.01053254086146E+05
 cg2d: Sum(rhs),rhsMax =  -5.34601973405157E+01  1.76364369780395E+00
(PID.TID 0000.0001)  ploadbar=  1.01052510426452E+05
 cg2d: Sum(rhs),rhsMax =  -5.33472168892221E+01  1.76682881087037E+00
(PID.TID 0000.0001)  ploadbar=  1.01051766766758E+05
 cg2d: Sum(rhs),rhsMax =  -5.32333415636840E+01  1.77001403128897E+00
(PID.TID 0000.0001)  ploadbar=  1.01051023107065E+05
 cg2d: Sum(rhs),rhsMax =  -5.31206716515764E+01  1.77312621912717E+00
(PID.TID 0000.0001)  ploadbar=  1.01050279447371E+05
 cg2d: Sum(rhs),rhsMax =  -5.30094075739644E+01  1.77615456611303E+00
(PID.TID 0000.0001)  ploadbar=  1.01049535787677E+05
 cg2d: Sum(rhs),rhsMax =  -5.28892317446902E+01  1.77953579170418E+00
(PID.TID 0000.0001)  ploadbar=  1.01048306720933E+05
 cg2d: Sum(rhs),rhsMax =  -5.27684088667219E+01  1.78298963308750E+00
(PID.TID 0000.0001)  ploadbar=  1.01047077654189E+05
 cg2d: Sum(rhs),rhsMax =  -5.26475978403945E+01  1.78648856789539E+00
(PID.TID 0000.0001)  ploadbar=  1.01045848587444E+05
 cg2d: Sum(rhs),rhsMax =  -5.25247645011520E+01  1.79009956559171E+00
(PID.TID 0000.0001)  ploadbar=  1.01044619520700E+05
 cg2d: Sum(rhs),rhsMax =  -5.24013482984210E+01  1.79376803810318E+00
(PID.TID 0000.0001)  ploadbar=  1.01043390453956E+05
 cg2d: Sum(rhs),rhsMax =  -5.22798814877949E+01  1.79740012309779E+00
(PID.TID 0000.0001)  ploadbar=  1.01042161387211E+05
 cg2d: Sum(rhs),rhsMax =  -5.21585081872118E+01  1.80104392779647E+00
(PID.TID 0000.0001)  ploadbar=  1.01042040022617E+05
 cg2d: Sum(rhs),rhsMax =  -5.20376365789410E+01  1.80468034764359E+00
(PID.TID 0000.0001)  ploadbar=  1.01041918658023E+05
 cg2d: Sum(rhs),rhsMax =  -5.19205377958379E+01  1.80819089854562E+00
(PID.TID 0000.0001)  ploadbar=  1.01041797293429E+05
 cg2d: Sum(rhs),rhsMax =  -5.18059757059895E+01  1.81160968239611E+00
(PID.TID 0000.0001)  ploadbar=  1.01041675928835E+05
 cg2d: Sum(rhs),rhsMax =  -5.16942624688863E+01  1.81492063600596E+00
(PID.TID 0000.0001)  ploadbar=  1.01041554564241E+05
 cg2d: Sum(rhs),rhsMax =  -5.15863386062624E+01  1.81808446404876E+00
(PID.TID 0000.0001)  ploadbar=  1.01041433199647E+05
 cg2d: Sum(rhs),rhsMax =  -5.14781339394013E+01  1.82125816108901E+00
(PID.TID 0000.0001)  ploadbar=  1.01040904024638E+05
 cg2d: Sum(rhs),rhsMax =  -5.13726951983655E+01  1.82432923731945E+00
(PID.TID 0000.0001)  ploadbar=  1.01040374849628E+05
 cg2d: Sum(rhs),rhsMax =  -5.12716317884677E+01  1.82723429843153E+00
(PID.TID 0000.0001)  ploadbar=  1.01039845674618E+05
 cg2d: Sum(rhs),rhsMax =  -5.11734758133274E+01  1.83001766726301E+00
(PID.TID 0000.0001)  ploadbar=  1.01039316499609E+05
 cg2d: Sum(rhs),rhsMax =  -5.10779329539673E+01  1.83268114124229E+00
(PID.TID 0000.0001)  ploadbar=  1.01038787324599E+05
 cg2d: Sum(rhs),rhsMax =  -5.09852901300556E+01  1.83520664840213E+00
(PID.TID 0000.0001)  ploadbar=  1.01038258149590E+05
 cg2d: Sum(rhs),rhsMax =  -5.08968634051450E+01  1.83755104491541E+00
(PID.TID 0000.0001)  ploadbar=  1.01039232673391E+05
 cg2d: Sum(rhs),rhsMax =  -5.08068114163285E+01  1.83992127456048E+00
(PID.TID 0000.0001)  ploadbar=  1.01040207197192E+05
 cg2d: Sum(rhs),rhsMax =  -5.07128236973242E+01  1.84239877994670E+00
(PID.TID 0000.0001)  ploadbar=  1.01041181720993E+05
 cg2d: Sum(rhs),rhsMax =  -5.06150470915241E+01  1.84497377615807E+00
(PID.TID 0000.0001)  ploadbar=  1.01042156244794E+05
 cg2d: Sum(rhs),rhsMax =  -5.05123853310365E+01  1.84768245354812E+00
(PID.TID 0000.0001)  ploadbar=  1.01043130768595E+05
 cg2d: Sum(rhs),rhsMax =  -5.04048682140276E+01  1.85052079755125E+00
(PID.TID 0000.0001)  ploadbar=  1.01044105292396E+05
 cg2d: Sum(rhs),rhsMax =  -5.02863559128075E+01  1.85383340399199E+00
(PID.TID 0000.0001)  ploadbar=  1.01044826226993E+05
 cg2d: Sum(rhs),rhsMax =  -5.01600662924902E+01  1.85750210217476E+00
(PID.TID 0000.0001)  ploadbar=  1.01045547161589E+05
 cg2d: Sum(rhs),rhsMax =  -5.00267426047100E+01  1.86149818320265E+00
(PID.TID 0000.0001)  ploadbar=  1.01046268096186E+05
 cg2d: Sum(rhs),rhsMax =  -4.98928135845084E+01  1.86557740651515E+00
(PID.TID 0000.0001)  ploadbar=  1.01046989030782E+05
 cg2d: Sum(rhs),rhsMax =  -4.97672174463260E+01  1.86939788417609E+00
(PID.TID 0000.0001)  ploadbar=  1.01047709965379E+05
 cg2d: Sum(rhs),rhsMax =  -4.96653469699799E+01  1.87236825822094E+00
(PID.TID 0000.0001)  ploadbar=  1.01048430899975E+05
 cg2d: Sum(rhs),rhsMax =  -4.96170993769422E+01  1.87334915492783E+00
(PID.TID 0000.0001)  ploadbar=  1.01048990268010E+05
 cg2d: Sum(rhs),rhsMax =  -4.96318251105274E+01  1.87197011604547E+00
(PID.TID 0000.0001)  ploadbar=  1.01049549636044E+05
 cg2d: Sum(rhs),rhsMax =  -4.97214633477249E+01  1.86777981943452E+00
(PID.TID 0000.0001)  ploadbar=  1.01050109004078E+05
 cg2d: Sum(rhs),rhsMax =  -4.98892355997875E+01  1.86068148130884E+00
(PID.TID 0000.0001)  ploadbar=  1.01050668372113E+05
 cg2d: Sum(rhs),rhsMax =  -5.01274576677070E+01  1.85101179176164E+00
(PID.TID 0000.0001)  ploadbar=  1.01051227740147E+05
 cg2d: Sum(rhs),rhsMax =  -5.04249050734201E+01  1.83925261747229E+00
(PID.TID 0000.0001)  ploadbar=  1.01051787108182E+05
 cg2d: Sum(rhs),rhsMax =  -5.07711007583568E+01  1.82589675856082E+00
(PID.TID 0000.0001)  ploadbar=  1.01053157880846E+05
 cg2d: Sum(rhs),rhsMax =  -5.11386724002811E+01  1.81197485714141E+00
(PID.TID 0000.0001)  ploadbar=  1.01054528653510E+05
 cg2d: Sum(rhs),rhsMax =  -5.15149284970785E+01  1.79795350230657E+00
(PID.TID 0000.0001)  ploadbar=  1.01055899426174E+05
 cg2d: Sum(rhs),rhsMax =  -5.18961012877533E+01  1.78396093575088E+00
(PID.TID 0000.0001)  ploadbar=  1.01057270198838E+05
 cg2d: Sum(rhs),rhsMax =  -5.22776053714696E+01  1.77015022838477E+00
(PID.TID 0000.0001)  ploadbar=  1.01058640971502E+05
 cg2d: Sum(rhs),rhsMax =  -5.26563967828844E+01  1.75661349940338E+00
(PID.TID 0000.0001)  ploadbar=  1.01060011744166E+05
 cg2d: Sum(rhs),rhsMax =  -5.30188354593103E+01  1.74381816719041E+00
(PID.TID 0000.0001)  ploadbar=  1.01061060585982E+05
 cg2d: Sum(rhs),rhsMax =  -5.33575212280691E+01  1.73197154505225E+00
(PID.TID 0000.0001)  ploadbar=  1.01062109427798E+05
 cg2d: Sum(rhs),rhsMax =  -5.36658902743345E+01  1.72124449822494E+00
(PID.TID 0000.0001)  ploadbar=  1.01063158269614E+05
 cg2d: Sum(rhs),rhsMax =  -5.39408903055982E+01  1.71168392543571E+00
(PID.TID 0000.0001)  ploadbar=  1.01064207111431E+05
 cg2d: Sum(rhs),rhsMax =  -5.41822226323014E+01  1.70325305353043E+00
(PID.TID 0000.0001)  ploadbar=  1.01065255953247E+05
 cg2d: Sum(rhs),rhsMax =  -5.43915853178844E+01  1.69586445856400E+00
(PID.TID 0000.0001)  ploadbar=  1.01066304795063E+05
 cg2d: Sum(rhs),rhsMax =  -5.45712888637832E+01  1.68953112086631E+00
(PID.TID 0000.0001)  ploadbar=  1.01066544396914E+05
 cg2d: Sum(rhs),rhsMax =  -5.47339387099488E+01  1.68384573487737E+00
(PID.TID 0000.0001)  ploadbar=  1.01066783998764E+05
 cg2d: Sum(rhs),rhsMax =  -5.48870368875171E+01  1.67856334874495E+00
(PID.TID 0000.0001)  ploadbar=  1.01067023600615E+05
 cg2d: Sum(rhs),rhsMax =  -5.50329971688061E+01  1.67360070442349E+00
(PID.TID 0000.0001)  ploadbar=  1.01067263202466E+05
 cg2d: Sum(rhs),rhsMax =  -5.51755704123563E+01  1.66883534416705E+00
(PID.TID 0000.0001)  ploadbar=  1.01067502804316E+05
 cg2d: Sum(rhs),rhsMax =  -5.53166607722621E+01  1.66419718340957E+00
(PID.TID 0000.0001)  ploadbar=  1.01067742406167E+05
 cg2d: Sum(rhs),rhsMax =  -5.54661536895242E+01  1.65929940836848E+00
(PID.TID 0000.0001)  ploadbar=  1.01068188390344E+05
 cg2d: Sum(rhs),rhsMax =  -5.56202986656534E+01  1.65425448382236E+00
(PID.TID 0000.0001)  ploadbar=  1.01068634374521E+05
 cg2d: Sum(rhs),rhsMax =  -5.57777059161850E+01  1.64910469603205E+00
(PID.TID 0000.0001)  ploadbar=  1.01069080358697E+05
 cg2d: Sum(rhs),rhsMax =  -5.59400789939223E+01  1.64379614630218E+00
(PID.TID 0000.0001)  ploadbar=  1.01069526342874E+05
 cg2d: Sum(rhs),rhsMax =  -5.61086827967863E+01  1.63829430757123E+00
(PID.TID 0000.0001)  ploadbar=  1.01069972327051E+05
 cg2d: Sum(rhs),rhsMax =  -5.62847677569840E+01  1.63256271182574E+00
(PID.TID 0000.0001)  ploadbar=  1.01070418311227E+05
 cg2d: Sum(rhs),rhsMax =  -5.64670396848967E+01  1.62675047087002E+00
(PID.TID 0000.0001)  ploadbar=  1.01070900805615E+05
 cg2d: Sum(rhs),rhsMax =  -5.66508440291606E+01  1.62098743124639E+00
(PID.TID 0000.0001)  ploadbar=  1.01071383300002E+05
 cg2d: Sum(rhs),rhsMax =  -5.68358152022498E+01  1.61527820662769E+00
(PID.TID 0000.0001)  ploadbar=  1.01071865794389E+05
 cg2d: Sum(rhs),rhsMax =  -5.70212432183699E+01  1.60963708465138E+00
(PID.TID 0000.0001)  ploadbar=  1.01072348288776E+05
 cg2d: Sum(rhs),rhsMax =  -5.72061354581712E+01  1.60408451581066E+00
(PID.TID 0000.0001)  ploadbar=  1.01072830783164E+05
 cg2d: Sum(rhs),rhsMax =  -5.73894886090141E+01  1.59863727397825E+00
(PID.TID 0000.0001)  ploadbar=  1.01073313277551E+05
 cg2d: Sum(rhs),rhsMax =  -5.75791029940519E+01  1.59302796482250E+00
(PID.TID 0000.0001)  ploadbar=  1.01072083856466E+05
 cg2d: Sum(rhs),rhsMax =  -5.77717871688377E+01  1.58734085729494E+00
(PID.TID 0000.0001)  ploadbar=  1.01070854435382E+05
 cg2d: Sum(rhs),rhsMax =  -5.79626536501417E+01  1.58170665870116E+00
(PID.TID 0000.0001)  ploadbar=  1.01069625014297E+05
 cg2d: Sum(rhs),rhsMax =  -5.81542415851378E+01  1.57604975485853E+00
(PID.TID 0000.0001)  ploadbar=  1.01068395593212E+05
 cg2d: Sum(rhs),rhsMax =  -5.83467659350948E+01  1.57036099217390E+00
(PID.TID 0000.0001)  ploadbar=  1.01067166172128E+05
 cg2d: Sum(rhs),rhsMax =  -5.85393795097018E+01  1.56465801047855E+00
(PID.TID 0000.0001)  ploadbar=  1.01065936751043E+05
 cg2d: Sum(rhs),rhsMax =  -5.87316300706763E+01  1.55906010984586E+00
(PID.TID 0000.0001)  ploadbar=  1.01065075926970E+05
 cg2d: Sum(rhs),rhsMax =  -5.89272979264988E+01  1.55346497961950E+00
(PID.TID 0000.0001)  ploadbar=  1.01064215102897E+05
 cg2d: Sum(rhs),rhsMax =  -5.91198860670762E+01  1.54803737931774E+00
(PID.TID 0000.0001)  ploadbar=  1.01063354278823E+05
 cg2d: Sum(rhs),rhsMax =  -5.93072139175047E+01  1.54282456088490E+00
(PID.TID 0000.0001)  ploadbar=  1.01062493454750E+05
 cg2d: Sum(rhs),rhsMax =  -5.94885379203017E+01  1.53783567118629E+00
(PID.TID 0000.0001)  ploadbar=  1.01061632630676E+05
 cg2d: Sum(rhs),rhsMax =  -5.96625953914527E+01  1.53309239155423E+00
(PID.TID 0000.0001)  ploadbar=  1.01060771806603E+05
 cg2d: Sum(rhs),rhsMax =  -5.98301600943881E+01  1.52855145983328E+00
(PID.TID 0000.0001)  ploadbar=  1.01059349863927E+05
 cg2d: Sum(rhs),rhsMax =  -5.99963070879856E+01  1.52407526808750E+00
(PID.TID 0000.0001)  ploadbar=  1.01057927921251E+05
 cg2d: Sum(rhs),rhsMax =  -6.01611373987238E+01  1.51965497008984E+00
(PID.TID 0000.0001)  ploadbar=  1.01056505978574E+05
 cg2d: Sum(rhs),rhsMax =  -6.03227146231947E+01  1.51533123512226E+00
(PID.TID 0000.0001)  ploadbar=  1.01055084035898E+05
 cg2d: Sum(rhs),rhsMax =  -6.04812029338576E+01  1.51108597531469E+00
(PID.TID 0000.0001)  ploadbar=  1.01053662093222E+05
 cg2d: Sum(rhs),rhsMax =  -6.06358053005638E+01  1.50692742505866E+00
(PID.TID 0000.0001)  ploadbar=  1.01052240150546E+05
 cg2d: Sum(rhs),rhsMax =  -6.07650324413571E+01  1.50340204389969E+00
(PID.TID 0000.0001)  ploadbar=  1.01050121938352E+05
 cg2d: Sum(rhs),rhsMax =  -6.08778112260407E+01  1.50028381681688E+00
(PID.TID 0000.0001)  ploadbar=  1.01048003726159E+05
 cg2d: Sum(rhs),rhsMax =  -6.09766449656395E+01  1.49750100120271E+00
(PID.TID 0000.0001)  ploadbar=  1.01045885513965E+05
 cg2d: Sum(rhs),rhsMax =  -6.10513220450662E+01  1.49529836482039E+00
(PID.TID 0000.0001)  ploadbar=  1.01043767301771E+05
 cg2d: Sum(rhs),rhsMax =  -6.11004338202966E+01  1.49370245257715E+00
(PID.TID 0000.0001)  ploadbar=  1.01041649089578E+05
 cg2d: Sum(rhs),rhsMax =  -6.11277863199416E+01  1.49261200587923E+00
(PID.TID 0000.0001)  ploadbar=  1.01039530877384E+05
 cg2d: Sum(rhs),rhsMax =  -6.11515090969774E+01  1.49159132966679E+00
(PID.TID 0000.0001)  ploadbar=  1.01039548006352E+05
 cg2d: Sum(rhs),rhsMax =  -5.99872164794767E+01  1.52006726640799E+00
(PID.TID 0000.0001)  ploadbar=  1.01039565135320E+05
 cg2d: Sum(rhs),rhsMax =  -5.90054716021759E+01  1.54484843886142E+00
(PID.TID 0000.0001)  ploadbar=  1.01039582264288E+05
 cg2d: Sum(rhs),rhsMax =  -5.82439592887526E+01  1.56449855787398E+00
(PID.TID 0000.0001)  ploadbar=  1.01039599393256E+05
 cg2d: Sum(rhs),rhsMax =  -5.76574121595725E+01  1.57982561494589E+00
(PID.TID 0000.0001)  ploadbar=  1.01039616522223E+05
 cg2d: Sum(rhs),rhsMax =  -5.72126117021356E+01  1.59147944707083E+00
(PID.TID 0000.0001)  ploadbar=  1.01039633651191E+05
 cg2d: Sum(rhs),rhsMax =  -5.69046720279997E+01  1.59955287827175E+00
(PID.TID 0000.0001)  ploadbar=  1.01040373194048E+05
 cg2d: Sum(rhs),rhsMax =  -5.67132478005483E+01  1.60450287265120E+00
(PID.TID 0000.0001)  ploadbar=  1.01041112736906E+05
 cg2d: Sum(rhs),rhsMax =  -5.66162347885127E+01  1.60689200411678E+00
(PID.TID 0000.0001)  ploadbar=  1.01041852279763E+05
 cg2d: Sum(rhs),rhsMax =  -5.65951134010028E+01  1.60721715257744E+00
(PID.TID 0000.0001)  ploadbar=  1.01042591822620E+05
 cg2d: Sum(rhs),rhsMax =  -5.66389215693724E+01  1.60577613773814E+00
(PID.TID 0000.0001)  ploadbar=  1.01043331365477E+05
 cg2d: Sum(rhs),rhsMax =  -5.67378209965774E+01  1.60284822316483E+00
(PID.TID 0000.0001)  ploadbar=  1.01044070908335E+05
 cg2d: Sum(rhs),rhsMax =  -5.69021556854741E+01  1.59809130431025E+00
(PID.TID 0000.0001)  ploadbar=  1.01045290652252E+05
 cg2d: Sum(rhs),rhsMax =  -5.71155320747214E+01  1.59199034771322E+00
(PID.TID 0000.0001)  ploadbar=  1.01046510396169E+05
 cg2d: Sum(rhs),rhsMax =  -5.73767437090490E+01  1.58460166180439E+00
(PID.TID 0000.0001)  ploadbar=  1.01047730140087E+05
 cg2d: Sum(rhs),rhsMax =  -5.76863766611444E+01  1.57593413860699E+00
(PID.TID 0000.0001)  ploadbar=  1.01048949884004E+05
 cg2d: Sum(rhs),rhsMax =  -5.80320830315412E+01  1.56635842176286E+00
(PID.TID 0000.0001)  ploadbar=  1.01050169627921E+05
 cg2d: Sum(rhs),rhsMax =  -5.84144377543249E+01  1.55589309569771E+00
(PID.TID 0000.0001)  ploadbar=  1.01051389371839E+05
 cg2d: Sum(rhs),rhsMax =  -5.88269162519516E+01  1.54476678706413E+00
(PID.TID 0000.0001)  ploadbar=  1.01052678255644E+05
 cg2d: Sum(rhs),rhsMax =  -5.92690921248423E+01  1.53302109736436E+00
(PID.TID 0000.0001)  ploadbar=  1.01053967139449E+05
 cg2d: Sum(rhs),rhsMax =  -5.97470178300983E+01  1.52052962447575E+00
(PID.TID 0000.0001)  ploadbar=  1.01055256023254E+05
 cg2d: Sum(rhs),rhsMax =  -6.02702173518241E+01  1.50708992026064E+00
(PID.TID 0000.0001)  ploadbar=  1.01056544907059E+05
 cg2d: Sum(rhs),rhsMax =  -6.08520293733820E+01  1.49242822177039E+00
(PID.TID 0000.0001)  ploadbar=  1.01057833790864E+05
 cg2d: Sum(rhs),rhsMax =  -6.15015143792440E+01  1.47639587901012E+00
(PID.TID 0000.0001)  ploadbar=  1.01059122674669E+05
 cg2d: Sum(rhs),rhsMax =  -6.21874052087248E+01  1.45981173775809E+00
(PID.TID 0000.0001)  ploadbar=  1.01060310622718E+05
 cg2d: Sum(rhs),rhsMax =  -6.28936157689919E+01  1.44308724350568E+00
(PID.TID 0000.0001)  ploadbar=  1.01061498570767E+05
 cg2d: Sum(rhs),rhsMax =  -6.36026788718571E+01  1.42662953023142E+00
(PID.TID 0000.0001)  ploadbar=  1.01062686518816E+05
 cg2d: Sum(rhs),rhsMax =  -6.42776616326670E+01  1.41124014462509E+00
(PID.TID 0000.0001)  ploadbar=  1.01063874466864E+05
 cg2d: Sum(rhs),rhsMax =  -6.43678477570870E+01  1.40881031675670E+00
(PID.TID 0000.0001)  ploadbar=  1.01065062414913E+05
 cg2d: Sum(rhs),rhsMax =  -6.44524884377345E+01  1.40646193184990E+00
(PID.TID 0000.0001)  ploadbar=  1.01066250362962E+05
 cg2d: Sum(rhs),rhsMax =  -6.45234330831192E+01  1.40447456344244E+00
(PID.TID 0000.0001)  ploadbar=  1.01066025593410E+05
 cg2d: Sum(rhs),rhsMax =  -6.45911044355083E+01  1.40261808882848E+00
(PID.TID 0000.0001)  ploadbar=  1.01065800823859E+05
 cg2d: Sum(rhs),rhsMax =  -6.46514702349599E+01  1.40097504005006E+00
(PID.TID 0000.0001)  ploadbar=  1.01065576054307E+05
 cg2d: Sum(rhs),rhsMax =  -6.47050782002595E+01  1.39952801942633E+00
(PID.TID 0000.0001)  ploadbar=  1.01065351284755E+05
 cg2d: Sum(rhs),rhsMax =  -6.47548750941004E+01  1.39820596469109E+00
(PID.TID 0000.0001)  ploadbar=  1.01065126515204E+05
 cg2d: Sum(rhs),rhsMax =  -6.48020666995297E+01  1.39697241515605E+00
(PID.TID 0000.0001)  ploadbar=  1.01064901745652E+05
 cg2d: Sum(rhs),rhsMax =  -6.48175808946456E+01  1.39642347352844E+00
(PID.TID 0000.0001)  ploadbar=  1.01065709089233E+05
 cg2d: Sum(rhs),rhsMax =  -6.48186201298586E+01  1.39618173189603E+00
(PID.TID 0000.0001)  ploadbar=  1.01066516432813E+05
 cg2d: Sum(rhs),rhsMax =  -6.48104578407942E+01  1.39612591023118E+00
(PID.TID 0000.0001)  ploadbar=  1.01067323776394E+05
 cg2d: Sum(rhs),rhsMax =  -6.47856465463763E+01  1.39640962055520E+00
(PID.TID 0000.0001)  ploadbar=  1.01068131119974E+05
 cg2d: Sum(rhs),rhsMax =  -6.47418237808851E+01  1.39708198795956E+00
(PID.TID 0000.0001)  ploadbar=  1.01068938463555E+05
 cg2d: Sum(rhs),rhsMax =  -6.46769740235084E+01  1.39818115869369E+00
(PID.TID 0000.0001)  ploadbar=  1.01069745807136E+05
 cg2d: Sum(rhs),rhsMax =  -6.46016342289113E+01  1.39950423892913E+00
(PID.TID 0000.0001)  ploadbar=  1.01071273411471E+05
 cg2d: Sum(rhs),rhsMax =  -6.45024891682668E+01  1.40134100001320E+00
(PID.TID 0000.0001)  ploadbar=  1.01072801015807E+05
 cg2d: Sum(rhs),rhsMax =  -6.43827717384404E+01  1.40362248603418E+00
(PID.TID 0000.0001)  ploadbar=  1.01074328620142E+05
 cg2d: Sum(rhs),rhsMax =  -6.42434873546266E+01  1.40632832384485E+00
(PID.TID 0000.0001)  ploadbar=  1.01075856224478E+05
 cg2d: Sum(rhs),rhsMax =  -6.40827393656162E+01  1.40949967915707E+00
(PID.TID 0000.0001)  ploadbar=  1.01077383828813E+05
 cg2d: Sum(rhs),rhsMax =  -6.38991493566912E+01  1.41316771127118E+00
(PID.TID 0000.0001)  ploadbar=  1.01078911433149E+05
 cg2d: Sum(rhs),rhsMax =  -6.36950041720927E+01  1.41727207321855E+00
(PID.TID 0000.0001)  ploadbar=  1.01079164824774E+05
 cg2d: Sum(rhs),rhsMax =  -6.34687492126249E+01  1.42185306768905E+00
(PID.TID 0000.0001)  ploadbar=  1.01079418216399E+05
 cg2d: Sum(rhs),rhsMax =  -6.32304968469434E+01  1.42668898409682E+00
(PID.TID 0000.0001)  ploadbar=  1.01079671608025E+05
 cg2d: Sum(rhs),rhsMax =  -6.29784838406984E+01  1.43182228730392E+00
(PID.TID 0000.0001)  ploadbar=  1.01079924999650E+05
 cg2d: Sum(rhs),rhsMax =  -6.27115078925279E+01  1.43728496998711E+00
(PID.TID 0000.0001)  ploadbar=  1.01080178391276E+05
 cg2d: Sum(rhs),rhsMax =  -6.24311825023715E+01  1.44304539200030E+00
(PID.TID 0000.0001)  ploadbar=  1.01080431782901E+05
 cg2d: Sum(rhs),rhsMax =  -6.21649974983392E+01  1.44858413632091E+00
(PID.TID 0000.0001)  ploadbar=  1.01080845374981E+05
 cg2d: Sum(rhs),rhsMax =  -6.18966770548702E+01  1.45427235069153E+00
(PID.TID 0000.0001)  ploadbar=  1.01081258967061E+05
 cg2d: Sum(rhs),rhsMax =  -6.16256450373649E+01  1.46012382919456E+00
(PID.TID 0000.0001)  ploadbar=  1.01081672559141E+05
 cg2d: Sum(rhs),rhsMax =  -6.13567499223121E+01  1.46602168221921E+00
(PID.TID 0000.0001)  ploadbar=  1.01082086151220E+05
 cg2d: Sum(rhs),rhsMax =  -6.10905213159006E+01  1.47194940672163E+00
(PID.TID 0000.0001)  ploadbar=  1.01082499743300E+05
 cg2d: Sum(rhs),rhsMax =  -6.08277006291955E+01  1.47788235840414E+00
(PID.TID 0000.0001)  ploadbar=  1.01082913335380E+05
 cg2d: Sum(rhs),rhsMax =  -6.05611418325822E+01  1.48396729381620E+00
(PID.TID 0000.0001)  ploadbar=  1.01084374949727E+05
 cg2d: Sum(rhs),rhsMax =  -6.03021946849838E+01  1.48992264222812E+00
(PID.TID 0000.0001)  ploadbar=  1.01085836564074E+05
 cg2d: Sum(rhs),rhsMax =  -6.00516363979843E+01  1.49571701401749E+00
(PID.TID 0000.0001)  ploadbar=  1.01087298178421E+05
 cg2d: Sum(rhs),rhsMax =  -5.98074983760129E+01  1.50138881576314E+00
(PID.TID 0000.0001)  ploadbar=  1.01088759792768E+05
 cg2d: Sum(rhs),rhsMax =  -5.95686541344365E+01  1.50696162076646E+00
(PID.TID 0000.0001)  ploadbar=  1.01090221407115E+05
 cg2d: Sum(rhs),rhsMax =  -5.93346601176875E+01  1.51243998764735E+00
(PID.TID 0000.0001)  ploadbar=  1.01091683021462E+05
 cg2d: Sum(rhs),rhsMax =  -5.91115551675803E+01  1.51769411000144E+00
(PID.TID 0000.0001)  ploadbar=  1.01092445683921E+05
 cg2d: Sum(rhs),rhsMax =  -5.88909558611495E+01  1.52293087048498E+00
(PID.TID 0000.0001)  ploadbar=  1.01093208346380E+05
 cg2d: Sum(rhs),rhsMax =  -5.86711503972776E+01  1.52818923587299E+00
(PID.TID 0000.0001)  ploadbar=  1.01093971008839E+05
 cg2d: Sum(rhs),rhsMax =  -5.84499757059189E+01  1.53351984012640E+00
(PID.TID 0000.0001)  ploadbar=  1.01094733671298E+05
 cg2d: Sum(rhs),rhsMax =  -5.82283501036546E+01  1.53889688890151E+00
(PID.TID 0000.0001)  ploadbar=  1.01095496333757E+05
 cg2d: Sum(rhs),rhsMax =  -5.80068215477833E+01  1.54430496468384E+00
(PID.TID 0000.0001)  ploadbar=  1.01096258996217E+05
 cg2d: Sum(rhs),rhsMax =  -5.77688157454655E+01  1.55014847557474E+00
(PID.TID 0000.0001)  ploadbar=  1.01097608441159E+05
 cg2d: Sum(rhs),rhsMax =  -5.75291119340154E+01  1.55603248542831E+00
(PID.TID 0000.0001)  ploadbar=  1.01098957886102E+05
 cg2d: Sum(rhs),rhsMax =  -5.72888515636544E+01  1.56192455423088E+00
(PID.TID 0000.0001)  ploadbar=  1.01100307331045E+05
 cg2d: Sum(rhs),rhsMax =  -5.70473568588005E+01  1.56784133468582E+00
(PID.TID 0000.0001)  ploadbar=  1.01101656775988E+05
 cg2d: Sum(rhs),rhsMax =  -5.68040452744973E+01  1.57379713618302E+00
(PID.TID 0000.0001)  ploadbar=  1.01103006220930E+05
 cg2d: Sum(rhs),rhsMax =  -5.65588209645529E+01  1.57979375368620E+00
(PID.TID 0000.0001)  ploadbar=  1.01104355665873E+05
 cg2d: Sum(rhs),rhsMax =  -5.63128688266791E+01  1.58589243971761E+00
(PID.TID 0000.0001)  ploadbar=  1.01104796374273E+05
 cg2d: Sum(rhs),rhsMax =  -5.60438382069715E+01  1.59272833184158E+00
(PID.TID 0000.0001)  ploadbar=  1.01105237082672E+05
 cg2d: Sum(rhs),rhsMax =  -5.48023430552880E+01  1.62804339947093E+00
(PID.TID 0000.0001)  ploadbar=  1.01105677791072E+05
 cg2d: Sum(rhs),rhsMax =  -5.34928544526634E+01  1.66713793760023E+00
(PID.TID 0000.0001)  ploadbar=  1.01106118499471E+05
 cg2d: Sum(rhs),rhsMax =  -5.21420078244423E+01  1.70957006432809E+00
(PID.TID 0000.0001)  ploadbar=  1.01106559207871E+05
 cg2d: Sum(rhs),rhsMax =  -5.07735446716047E+01  1.75488257053347E+00
(PID.TID 0000.0001)  ploadbar=  1.01106999916270E+05
 cg2d: Sum(rhs),rhsMax =  -4.94118056902097E+01  1.80247811572988E+00
(PID.TID 0000.0001)  ploadbar=  1.01108596690080E+05
 cg2d: Sum(rhs),rhsMax =  -4.80440696910604E+01  1.85301820678987E+00
(PID.TID 0000.0001)  ploadbar=  1.01110193463891E+05
 cg2d: Sum(rhs),rhsMax =  -4.66583135653356E+01  1.90726963693906E+00
(PID.TID 0000.0001)  ploadbar=  1.01111790237701E+05
 cg2d: Sum(rhs),rhsMax =  -4.52602549211645E+01  1.96538280338679E+00
(PID.TID 0000.0001)  ploadbar=  1.01113387011511E+05
 cg2d: Sum(rhs),rhsMax =  -4.38648086844038E+01  2.02708370887556E+00
(PID.TID 0000.0001)  ploadbar=  1.01114983785321E+05
 cg2d: Sum(rhs),rhsMax =  -4.24887844900720E+01  2.09188677609534E+00
(PID.TID 0000.0001)  ploadbar=  1.01116580559131E+05
 cg2d: Sum(rhs),rhsMax =  -4.12249334620914E+01  2.15515401146578E+00
(PID.TID 0000.0001)  ploadbar=  1.01116913409116E+05
 cg2d: Sum(rhs),rhsMax =  -4.00912160276072E+01  2.21520857907649E+00
(PID.TID 0000.0001)  ploadbar=  1.01117246259102E+05
 cg2d: Sum(rhs),rhsMax =  -3.90845029313420E+01  2.27134483561335E+00
(PID.TID 0000.0001)  ploadbar=  1.01117579109087E+05
 cg2d: Sum(rhs),rhsMax =  -3.81914925374461E+01  2.32349305381462E+00
(PID.TID 0000.0001)  ploadbar=  1.01117911959072E+05
 cg2d: Sum(rhs),rhsMax =  -3.73999544445909E+01  2.37165899012974E+00
(PID.TID 0000.0001)  ploadbar=  1.01118244809058E+05
 cg2d: Sum(rhs),rhsMax =  -3.66950188900870E+01  2.41615793707407E+00
(PID.TID 0000.0001)  ploadbar=  1.01118577659043E+05
 cg2d: Sum(rhs),rhsMax =  -3.60634237196972E+01  2.45739754076383E+00
(PID.TID 0000.0001)  ploadbar=  1.01118738319826E+05
 cg2d: Sum(rhs),rhsMax =  -3.54807796315576E+01  2.49665445090748E+00
(PID.TID 0000.0001)  ploadbar=  1.01118898980610E+05
 cg2d: Sum(rhs),rhsMax =  -3.49341263305737E+01  2.53459566722392E+00
(PID.TID 0000.0001)  ploadbar=  1.01119059641393E+05
 cg2d: Sum(rhs),rhsMax =  -3.44159559666625E+01  2.57159250643285E+00
(PID.TID 0000.0001)  ploadbar=  1.01119220302176E+05
 cg2d: Sum(rhs),rhsMax =  -3.39230934981621E+01  2.60774739282116E+00
(PID.TID 0000.0001)  ploadbar=  1.01119380962959E+05
 cg2d: Sum(rhs),rhsMax =  -3.34661378072722E+01  2.64209999818709E+00
(PID.TID 0000.0001)  ploadbar=  1.01119541623742E+05
 cg2d: Sum(rhs),rhsMax =  -3.30448255856104E+01  2.67457451721770E+00
(PID.TID 0000.0001)  ploadbar=  1.01116962197760E+05
 cg2d: Sum(rhs),rhsMax =  -3.26726439528625E+01  2.70387394443313E+00
(PID.TID 0000.0001)  ploadbar=  1.01114382771778E+05
 cg2d: Sum(rhs),rhsMax =  -3.23527313166326E+01  2.72948937673421E+00
(PID.TID 0000.0001)  ploadbar=  1.01111803345796E+05
 cg2d: Sum(rhs),rhsMax =  -3.20858348128029E+01  2.75110970913920E+00
(PID.TID 0000.0001)  ploadbar=  1.01109223919814E+05
 cg2d: Sum(rhs),rhsMax =  -3.18695954144460E+01  2.76872200265810E+00
(PID.TID 0000.0001)  ploadbar=  1.01106644493832E+05
 cg2d: Sum(rhs),rhsMax =  -3.16906153857624E+01  2.78332915665480E+00
(PID.TID 0000.0001)  ploadbar=  1.01104065067850E+05
 cg2d: Sum(rhs),rhsMax =  -3.15626043774083E+01  2.79362015216991E+00
(PID.TID 0000.0001)  ploadbar=  1.01103997825697E+05
 cg2d: Sum(rhs),rhsMax =  -3.14747731487022E+01  2.80044560024414E+00
(PID.TID 0000.0001)  ploadbar=  1.01103930583545E+05
 cg2d: Sum(rhs),rhsMax =  -3.14240058026044E+01  2.80401365392225E+00
(PID.TID 0000.0001)  ploadbar=  1.01103863341393E+05
 cg2d: Sum(rhs),rhsMax =  -3.14077889606346E+01  2.80451359183404E+00
(PID.TID 0000.0001)  ploadbar=  1.01103796099240E+05
 cg2d: Sum(rhs),rhsMax =  -3.14266937163724E+01  2.80187633893118E+00
(PID.TID 0000.0001)  ploadbar=  1.01103728857088E+05
 cg2d: Sum(rhs),rhsMax =  -3.14757581833789E+01  2.79654696061912E+00
(PID.TID 0000.0001)  ploadbar=  1.01103661614935E+05
 cg2d: Sum(rhs),rhsMax =  -3.15443820008377E+01  2.78954817075910E+00
(PID.TID 0000.0001)  ploadbar=  1.01103628663314E+05
 cg2d: Sum(rhs),rhsMax =  -3.16317451255107E+01  2.78097332810289E+00
(PID.TID 0000.0001)  ploadbar=  1.01103595711693E+05
 cg2d: Sum(rhs),rhsMax =  -3.17361464977177E+01  2.77099093194932E+00
(PID.TID 0000.0001)  ploadbar=  1.01103562760071E+05
 cg2d: Sum(rhs),rhsMax =  -3.18566011513461E+01  2.75970999381776E+00
(PID.TID 0000.0001)  ploadbar=  1.01103529808450E+05
 cg2d: Sum(rhs),rhsMax =  -3.19963469207897E+01  2.74687540669228E+00
(PID.TID 0000.0001)  ploadbar=  1.01103496856829E+05
 cg2d: Sum(rhs),rhsMax =  -3.21575579423244E+01  2.73233614144404E+00
(PID.TID 0000.0001)  ploadbar=  1.01103463905207E+05
 cg2d: Sum(rhs),rhsMax =  -3.23043408080330E+01  2.71915717752677E+00
(PID.TID 0000.0001)  ploadbar=  1.01102875795594E+05
 cg2d: Sum(rhs),rhsMax =  -3.24506409091526E+01  2.70613137309415E+00
(PID.TID 0000.0001)  ploadbar=  1.01102287685982E+05
 cg2d: Sum(rhs),rhsMax =  -3.25971228021664E+01  2.69319842113955E+00
(PID.TID 0000.0001)  ploadbar=  1.01101699576369E+05
 cg2d: Sum(rhs),rhsMax =  -3.27443052483941E+01  2.68031124596075E+00
(PID.TID 0000.0001)  ploadbar=  1.01101111466756E+05
 cg2d: Sum(rhs),rhsMax =  -3.28991280587151E+01  2.66690478906822E+00
(PID.TID 0000.0001)  ploadbar=  1.01100523357143E+05
 cg2d: Sum(rhs),rhsMax =  -3.30658670978056E+01  2.65264622964612E+00
(PID.TID 0000.0001)  ploadbar=  1.01099935247530E+05
 cg2d: Sum(rhs),rhsMax =  -3.32406732348234E+01  2.63799669233857E+00
(PID.TID 0000.0001)  ploadbar=  1.01098920768281E+05
 cg2d: Sum(rhs),rhsMax =  -3.34090036880292E+01  2.62411192454647E+00
(PID.TID 0000.0001)  ploadbar=  1.01097906289033E+05
 cg2d: Sum(rhs),rhsMax =  -3.35698141807434E+01  2.61104844705533E+00
(PID.TID 0000.0001)  ploadbar=  1.01096891809784E+05
 cg2d: Sum(rhs),rhsMax =  -3.37244692017629E+01  2.59867060864469E+00
(PID.TID 0000.0001)  ploadbar=  1.01095877330535E+05
 cg2d: Sum(rhs),rhsMax =  -3.38771581853573E+01  2.58662976079319E+00
(PID.TID 0000.0001)  ploadbar=  1.01094862851286E+05
 cg2d: Sum(rhs),rhsMax =  -3.40280692597000E+01  2.57488874719763E+00
(PID.TID 0000.0001)  ploadbar=  1.01093848372038E+05
 cg2d: Sum(rhs),rhsMax =  -3.42159454398856E+01  2.56048618885880E+00
(PID.TID 0000.0001)  ploadbar=  1.01092346046291E+05
 cg2d: Sum(rhs),rhsMax =  -3.44126922091638E+01  2.54557727142208E+00
(PID.TID 0000.0001)  ploadbar=  1.01090843720545E+05
 cg2d: Sum(rhs),rhsMax =  -3.46140574316850E+01  2.53047691977121E+00
(PID.TID 0000.0001)  ploadbar=  1.01089341394799E+05
 cg2d: Sum(rhs),rhsMax =  -3.48265216498488E+01  2.51471924276827E+00
(PID.TID 0000.0001)  ploadbar=  1.01087839069053E+05
 cg2d: Sum(rhs),rhsMax =  -3.50537640185955E+01  2.49805553892565E+00
(PID.TID 0000.0001)  ploadbar=  1.01086336743307E+05
 cg2d: Sum(rhs),rhsMax =  -3.53034676802048E+01  2.47997264555739E+00
(PID.TID 0000.0001)  ploadbar=  1.01084834417561E+05
 cg2d: Sum(rhs),rhsMax =  -3.55624028925075E+01  2.46150745137364E+00
(PID.TID 0000.0001)  ploadbar=  1.01083124830448E+05
 cg2d: Sum(rhs),rhsMax =  -3.58299489533211E+01  2.44271805554290E+00
(PID.TID 0000.0001)  ploadbar=  1.01081415243335E+05
 cg2d: Sum(rhs),rhsMax =  -3.60984866266312E+01  2.42413098759166E+00
(PID.TID 0000.0001)  ploadbar=  1.01079705656221E+05
 cg2d: Sum(rhs),rhsMax =  -3.63561048663933E+01  2.40652490308222E+00
(PID.TID 0000.0001)  ploadbar=  1.01077996069108E+05
 cg2d: Sum(rhs),rhsMax =  -3.65952573259704E+01  2.39034803579787E+00
(PID.TID 0000.0001)  ploadbar=  1.01076286481994E+05
 cg2d: Sum(rhs),rhsMax =  -3.68313998131606E+01  2.37453890764280E+00
(PID.TID 0000.0001)  ploadbar=  1.01074576894881E+05
 cg2d: Sum(rhs),rhsMax =  -3.70835725484736E+01  2.35785207344341E+00
(PID.TID 0000.0001)  ploadbar=  1.01072501693505E+05
 cg2d: Sum(rhs),rhsMax =  -3.73524236558658E+01  2.34028243636569E+00
(PID.TID 0000.0001)  ploadbar=  1.01070426492129E+05
 cg2d: Sum(rhs),rhsMax =  -3.76368554966606E+01  2.32193695514361E+00
(PID.TID 0000.0001)  ploadbar=  1.01068351290753E+05
 cg2d: Sum(rhs),rhsMax =  -3.79364972941018E+01  2.30287540411429E+00
(PID.TID 0000.0001)  ploadbar=  1.01066276089377E+05
 cg2d: Sum(rhs),rhsMax =  -3.82497798706292E+01  2.28322466280298E+00
(PID.TID 0000.0001)  ploadbar=  1.01064200888001E+05
 cg2d: Sum(rhs),rhsMax =  -3.85773050664444E+01  2.26298181029936E+00
(PID.TID 0000.0001)  ploadbar=  1.01062125686624E+05
 cg2d: Sum(rhs),rhsMax =  -3.89374644953791E+01  2.24125593669090E+00
(PID.TID 0000.0001)  ploadbar=  1.01060329028973E+05
 cg2d: Sum(rhs),rhsMax =  -3.92978928922368E+01  2.21996544960077E+00
(PID.TID 0000.0001)  ploadbar=  1.01058532371321E+05
 cg2d: Sum(rhs),rhsMax =  -3.96346681705650E+01  2.20042405086058E+00
(PID.TID 0000.0001)  ploadbar=  1.01056735713670E+05
 cg2d: Sum(rhs),rhsMax =  -3.99085810616487E+01  2.18468731753844E+00
(PID.TID 0000.0001)  ploadbar=  1.01054939056018E+05
 cg2d: Sum(rhs),rhsMax =  -4.00981334657961E+01  2.17376556586349E+00
(PID.TID 0000.0001)  ploadbar=  1.01053142398367E+05
 cg2d: Sum(rhs),rhsMax =  -4.02219249883670E+01  2.16650913571685E+00
(PID.TID 0000.0001)  ploadbar=  1.01051345740716E+05
 cg2d: Sum(rhs),rhsMax =  -4.03403226310588E+01  2.15961534541328E+00
(PID.TID 0000.0001)  ploadbar=  1.01049363629346E+05
 cg2d: Sum(rhs),rhsMax =  -4.04280983893345E+01  2.15441693970874E+00
(PID.TID 0000.0001)  ploadbar=  1.01047381517976E+05
 cg2d: Sum(rhs),rhsMax =  -4.04448959026717E+01  2.15303425729425E+00
(PID.TID 0000.0001)  ploadbar=  1.01045399406607E+05
 cg2d: Sum(rhs),rhsMax =  -4.06672234649341E+01  2.14079824008991E+00
(PID.TID 0000.0001)  ploadbar=  1.01043417295237E+05
 cg2d: Sum(rhs),rhsMax =  -4.12847361975606E+01  2.10833923374582E+00
(PID.TID 0000.0001)  ploadbar=  1.01041435183867E+05
 cg2d: Sum(rhs),rhsMax =  -4.25046548776463E+01  2.04742159407731E+00
(PID.TID 0000.0001)  ploadbar=  1.01039453072498E+05
 cg2d: Sum(rhs),rhsMax =  -4.42868593483237E+01  1.96461625594384E+00
(PID.TID 0000.0001)  ploadbar=  1.01037602507481E+05
 cg2d: Sum(rhs),rhsMax =  -4.64015143018961E+01  1.87466166341320E+00
(PID.TID 0000.0001)  ploadbar=  1.01035751942464E+05
 cg2d: Sum(rhs),rhsMax =  -4.85307649231436E+01  1.79197894255808E+00
(PID.TID 0000.0001)  ploadbar=  1.01033901377447E+05
 cg2d: Sum(rhs),rhsMax =  -5.04587311997044E+01  1.72306435279425E+00
(PID.TID 0000.0001)  ploadbar=  1.01032050812430E+05
 cg2d: Sum(rhs),rhsMax =  -5.23932442272580E+01  1.65898468615575E+00
(PID.TID 0000.0001)  ploadbar=  1.01030200247413E+05
 cg2d: Sum(rhs),rhsMax =  -5.52178395616216E+01  1.57365308145369E+00
(PID.TID 0000.0001)  ploadbar=  1.01028349682396E+05
 cg2d: Sum(rhs),rhsMax =  -5.80239107008670E+01  1.49708245401544E+00
(PID.TID 0000.0001)  ploadbar=  1.01026836875449E+05
 cg2d: Sum(rhs),rhsMax =  -6.06081307696600E+01  1.43278028888072E+00
(PID.TID 0000.0001)  ploadbar=  1.01025324068503E+05
 cg2d: Sum(rhs),rhsMax =  -5.89588907059420E+01  1.47235160602581E+00
(PID.TID 0000.0001)  ploadbar=  1.01023811261556E+05
 cg2d: Sum(rhs),rhsMax =  -5.73857572177301E+01  1.51216017789875E+00
(PID.TID 0000.0001)  ploadbar=  1.01022298454609E+05
 cg2d: Sum(rhs),rhsMax =  -5.59432504022573E+01  1.55054658743539E+00
(PID.TID 0000.0001)  ploadbar=  1.01020785647663E+05
 cg2d: Sum(rhs),rhsMax =  -5.45770925090879E+01  1.58869884074452E+00
(PID.TID 0000.0001)  ploadbar=  1.01019272840716E+05
 cg2d: Sum(rhs),rhsMax =  -5.36678964100363E+01  1.61502352438843E+00
(PID.TID 0000.0001)  ploadbar=  1.01017657914290E+05
 cg2d: Sum(rhs),rhsMax =  -5.29259703433656E+01  1.63714321350343E+00
(PID.TID 0000.0001)  ploadbar=  1.01016042987863E+05
 cg2d: Sum(rhs),rhsMax =  -5.21569323116477E+01  1.66082845090290E+00
(PID.TID 0000.0001)  ploadbar=  1.01014428061437E+05
 cg2d: Sum(rhs),rhsMax =  -5.16692693006112E+01  1.67611764881305E+00
(PID.TID 0000.0001)  ploadbar=  1.01012813135010E+05
 cg2d: Sum(rhs),rhsMax =  -5.13516843473819E+01  1.68616335753443E+00
(PID.TID 0000.0001)  ploadbar=  1.01011198208584E+05
 cg2d: Sum(rhs),rhsMax =  -5.11178415464069E+01  1.69362217846367E+00
(PID.TID 0000.0001)  ploadbar=  1.01009583282157E+05
 cg2d: Sum(rhs),rhsMax =  -5.09173946261779E+01  1.70005789863385E+00
(PID.TID 0000.0001)  ploadbar=  1.01008621540755E+05
 cg2d: Sum(rhs),rhsMax =  -5.07302415352826E+01  1.70611599118856E+00
(PID.TID 0000.0001)  ploadbar=  1.01007659799352E+05
 cg2d: Sum(rhs),rhsMax =  -5.05064456961685E+01  1.71347431376324E+00
(PID.TID 0000.0001)  ploadbar=  1.01006698057950E+05
 cg2d: Sum(rhs),rhsMax =  -5.02560456360096E+01  1.72181768157771E+00
(PID.TID 0000.0001)  ploadbar=  1.01005736316548E+05
 cg2d: Sum(rhs),rhsMax =  -4.99892908810576E+01  1.73082078289782E+00
(PID.TID 0000.0001)  ploadbar=  1.01004774575146E+05
 cg2d: Sum(rhs),rhsMax =  -4.97102905625020E+01  1.74035961897409E+00
(PID.TID 0000.0001)  ploadbar=  1.01003812833743E+05
 cg2d: Sum(rhs),rhsMax =  -4.94298557437061E+01  1.75005789828357E+00
(PID.TID 0000.0001)  ploadbar=  1.01003376183838E+05
 cg2d: Sum(rhs),rhsMax =  -4.91317921104482E+01  1.76049370884020E+00
(PID.TID 0000.0001)  ploadbar=  1.01002939533932E+05
 cg2d: Sum(rhs),rhsMax =  -4.88313663765658E+01  1.77113635854970E+00
(PID.TID 0000.0001)  ploadbar=  1.01002502884026E+05
 cg2d: Sum(rhs),rhsMax =  -4.85420313128867E+01  1.78149421959918E+00
(PID.TID 0000.0001)  ploadbar=  1.01002066234120E+05
 cg2d: Sum(rhs),rhsMax =  -4.82855811883137E+01  1.79073803326000E+00
(PID.TID 0000.0001)  ploadbar=  1.01001629584215E+05
 cg2d: Sum(rhs),rhsMax =  -4.80717257289798E+01  1.79846131803701E+00
(PID.TID 0000.0001)  ploadbar=  1.01001192934309E+05
 cg2d: Sum(rhs),rhsMax =  -4.78514062853859E+01  1.80647920496640E+00
(PID.TID 0000.0001)  ploadbar=  1.01001201472928E+05
 cg2d: Sum(rhs),rhsMax =  -4.76566619827260E+01  1.81357932473795E+00
(PID.TID 0000.0001)  ploadbar=  1.01001210011547E+05
 cg2d: Sum(rhs),rhsMax =  -4.74822404132831E+01  1.81993771689294E+00
(PID.TID 0000.0001)  ploadbar=  1.01001218550165E+05
 cg2d: Sum(rhs),rhsMax =  -4.73215924288407E+01  1.82578241804501E+00
(PID.TID 0000.0001)  ploadbar=  1.01001227088784E+05
 cg2d: Sum(rhs),rhsMax =  -4.71740330536805E+01  1.83112560260751E+00
(PID.TID 0000.0001)  ploadbar=  1.01001235627403E+05
 cg2d: Sum(rhs),rhsMax =  -4.70538339988411E+01  1.83539504726475E+00
(PID.TID 0000.0001)  ploadbar=  1.01001244166022E+05
 cg2d: Sum(rhs),rhsMax =  -4.69776677847175E+01  1.83802077168030E+00
(PID.TID 0000.0001)  ploadbar=  1.01002117120839E+05
 cg2d: Sum(rhs),rhsMax =  -4.69022734824929E+01  1.84068195811884E+00
(PID.TID 0000.0001)  ploadbar=  1.01002990075655E+05
 cg2d: Sum(rhs),rhsMax =  -4.68401569797667E+01  1.84288204483490E+00
(PID.TID 0000.0001)  ploadbar=  1.01003863030472E+05
 cg2d: Sum(rhs),rhsMax =  -4.67867490356515E+01  1.84479338141684E+00
(PID.TID 0000.0001)  ploadbar=  1.01004735985289E+05
 cg2d: Sum(rhs),rhsMax =  -4.67423208959805E+01  1.84639647369580E+00
(PID.TID 0000.0001)  ploadbar=  1.01005608940106E+05
 cg2d: Sum(rhs),rhsMax =  -4.67131977714006E+01  1.84743391262198E+00
(PID.TID 0000.0001)  ploadbar=  1.01006481894923E+05
 cg2d: Sum(rhs),rhsMax =  -4.66776912218913E+01  1.84874803752176E+00
(PID.TID 0000.0001)  ploadbar=  1.01006942540371E+05
 cg2d: Sum(rhs),rhsMax =  -4.66662982054782E+01  1.84912474573822E+00
(PID.TID 0000.0001)  ploadbar=  1.01007403185819E+05
 cg2d: Sum(rhs),rhsMax =  -4.66672163565878E+01  1.84902700540001E+00
(PID.TID 0000.0001)  ploadbar=  1.01007863831267E+05
 cg2d: Sum(rhs),rhsMax =  -4.66807151464793E+01  1.84844041631253E+00
(PID.TID 0000.0001)  ploadbar=  1.01008324476715E+05
 cg2d: Sum(rhs),rhsMax =  -4.67058784979958E+01  1.84739666040961E+00
(PID.TID 0000.0001)  ploadbar=  1.01008785122162E+05
 cg2d: Sum(rhs),rhsMax =  -4.67388419053200E+01  1.84604621229631E+00
(PID.TID 0000.0001)  ploadbar=  1.01009245767610E+05
 cg2d: Sum(rhs),rhsMax =  -4.67832758092377E+01  1.84422152436920E+00
(PID.TID 0000.0001)  ploadbar=  1.01009212551515E+05
 cg2d: Sum(rhs),rhsMax =  -4.70699104055036E+01  1.83289292803673E+00
(PID.TID 0000.0001)  ploadbar=  1.01009179335419E+05
 cg2d: Sum(rhs),rhsMax =  -4.74036720553703E+01  1.81985912008450E+00
(PID.TID 0000.0001)  ploadbar=  1.01009146119324E+05
 cg2d: Sum(rhs),rhsMax =  -4.77261201484525E+01  1.80739927148792E+00
(PID.TID 0000.0001)  ploadbar=  1.01009112903228E+05
 cg2d: Sum(rhs),rhsMax =  -4.80398447715857E+01  1.79538973440873E+00
(PID.TID 0000.0001)  ploadbar=  1.01009079687133E+05
 cg2d: Sum(rhs),rhsMax =  -4.83429699462773E+01  1.78387407664865E+00
(PID.TID 0000.0001)  ploadbar=  1.01009046471038E+05
 cg2d: Sum(rhs),rhsMax =  -4.86483213768799E+01  1.77240746812371E+00
(PID.TID 0000.0001)  ploadbar=  1.01009111438115E+05
 cg2d: Sum(rhs),rhsMax =  -4.89466452371663E+01  1.76132237510462E+00
(PID.TID 0000.0001)  ploadbar=  1.01009176405192E+05
 cg2d: Sum(rhs),rhsMax =  -4.92355464276709E+01  1.75068370776068E+00
(PID.TID 0000.0001)  ploadbar=  1.01009241372269E+05
 cg2d: Sum(rhs),rhsMax =  -4.95124021739814E+01  1.74056608601031E+00
(PID.TID 0000.0001)  ploadbar=  1.01009306339346E+05
 cg2d: Sum(rhs),rhsMax =  -4.97392581289922E+01  1.73226642915763E+00
(PID.TID 0000.0001)  ploadbar=  1.01009371306423E+05
 cg2d: Sum(rhs),rhsMax =  -4.99523465081729E+01  1.72448099006204E+00
(PID.TID 0000.0001)  ploadbar=  1.01009436273500E+05
 cg2d: Sum(rhs),rhsMax =  -5.01347725529645E+01  1.71789973692885E+00
(PID.TID 0000.0001)  ploadbar=  1.01009981688788E+05
 cg2d: Sum(rhs),rhsMax =  -5.03132822596606E+01  1.71158151090529E+00
(PID.TID 0000.0001)  ploadbar=  1.01010527104076E+05
 cg2d: Sum(rhs),rhsMax =  -5.04850222179192E+01  1.70561196437778E+00
(PID.TID 0000.0001)  ploadbar=  1.01011072519363E+05
 cg2d: Sum(rhs),rhsMax =  -5.06517782180333E+01  1.69991771144398E+00
(PID.TID 0000.0001)  ploadbar=  1.01011617934651E+05
 cg2d: Sum(rhs),rhsMax =  -5.08162293745318E+01  1.69439874553056E+00
(PID.TID 0000.0001)  ploadbar=  1.01012163349938E+05
 cg2d: Sum(rhs),rhsMax =  -5.09744755848913E+01  1.68917620030394E+00
(PID.TID 0000.0001)  ploadbar=  1.01012708765226E+05
 cg2d: Sum(rhs),rhsMax =  -5.11044702338947E+01  1.68491047697644E+00
(PID.TID 0000.0001)  ploadbar=  1.01011997236032E+05
 cg2d: Sum(rhs),rhsMax =  -5.12310417626043E+01  1.68076216207573E+00
(PID.TID 0000.0001)  ploadbar=  1.01011285706839E+05
 cg2d: Sum(rhs),rhsMax =  -5.13580596127549E+01  1.67659677600234E+00
(PID.TID 0000.0001)  ploadbar=  1.01010574177645E+05
 cg2d: Sum(rhs),rhsMax =  -5.14843430469229E+01  1.67244909992817E+00
(PID.TID 0000.0001)  ploadbar=  1.01009862648451E+05
 cg2d: Sum(rhs),rhsMax =  -5.16091637180880E+01  1.66833509735448E+00
(PID.TID 0000.0001)  ploadbar=  1.01009151119258E+05
 cg2d: Sum(rhs),rhsMax =  -5.17312817892383E+01  1.66429067967377E+00
(PID.TID 0000.0001)  ploadbar=  1.01008439590064E+05
 cg2d: Sum(rhs),rhsMax =  -5.18468561863477E+01  1.66046853085431E+00
(PID.TID 0000.0001)  ploadbar=  1.01007821123085E+05
 cg2d: Sum(rhs),rhsMax =  -5.19568920228072E+01  1.65682826519780E+00
(PID.TID 0000.0001)  ploadbar=  1.01007202656107E+05
 cg2d: Sum(rhs),rhsMax =  -5.20726455653930E+01  1.65300794947128E+00
(PID.TID 0000.0001)  ploadbar=  1.01006584189128E+05
 cg2d: Sum(rhs),rhsMax =  -5.21881247955521E+01  1.64919487599386E+00
(PID.TID 0000.0001)  ploadbar=  1.01005965722149E+05
 cg2d: Sum(rhs),rhsMax =  -5.23032496082684E+01  1.64538778672691E+00
(PID.TID 0000.0001)  ploadbar=  1.01005347255171E+05
 cg2d: Sum(rhs),rhsMax =  -5.24187286588007E+01  1.64156142455688E+00
(PID.TID 0000.0001)  ploadbar=  1.01004728788192E+05
 cg2d: Sum(rhs),rhsMax =  -5.25523125699322E+01  1.63717698046642E+00
(PID.TID 0000.0001)  ploadbar=  1.01004440862180E+05
 cg2d: Sum(rhs),rhsMax =  -5.26856966997352E+01  1.63280913600813E+00
(PID.TID 0000.0001)  ploadbar=  1.01004152936168E+05
 cg2d: Sum(rhs),rhsMax =  -5.28175980392338E+01  1.62849218003739E+00
(PID.TID 0000.0001)  ploadbar=  1.01003865010157E+05
 cg2d: Sum(rhs),rhsMax =  -5.29479282379196E+01  1.62422182704807E+00
(PID.TID 0000.0001)  ploadbar=  1.01003577084145E+05
 cg2d: Sum(rhs),rhsMax =  -5.30733539577983E+01  1.62009442009436E+00
(PID.TID 0000.0001)  ploadbar=  1.01003289158133E+05
 cg2d: Sum(rhs),rhsMax =  -5.31885385796930E+01  1.61627093025335E+00
(PID.TID 0000.0001)  ploadbar=  1.01003001232121E+05
 cg2d: Sum(rhs),rhsMax =  -5.32844537918722E+01  1.61312639011012E+00
(PID.TID 0000.0001)  ploadbar=  1.01003189086114E+05
 cg2d: Sum(rhs),rhsMax =  -5.33577691278335E+01  1.61075137915857E+00
(PID.TID 0000.0001)  ploadbar=  1.01003376940107E+05
 cg2d: Sum(rhs),rhsMax =  -5.34067316281385E+01  1.60918832533049E+00
(PID.TID 0000.0001)  ploadbar=  1.01003564794101E+05
 cg2d: Sum(rhs),rhsMax =  -5.34269445187328E+01  1.60856025629296E+00
(PID.TID 0000.0001)  ploadbar=  1.01003752648094E+05
 cg2d: Sum(rhs),rhsMax =  -5.34174268389790E+01  1.60888978488347E+00
(PID.TID 0000.0001)  ploadbar=  1.01003940502087E+05
 cg2d: Sum(rhs),rhsMax =  -5.33804573207916E+01  1.61010222255085E+00
(PID.TID 0000.0001)  ploadbar=  1.01004128356081E+05
 cg2d: Sum(rhs),rhsMax =  -5.33322421665424E+01  1.61165072113564E+00
(PID.TID 0000.0001)  ploadbar=  1.01003486071884E+05
 cg2d: Sum(rhs),rhsMax =  -5.32589214000640E+01  1.61395310232533E+00
(PID.TID 0000.0001)  ploadbar=  1.01002843787686E+05
 cg2d: Sum(rhs),rhsMax =  -5.31570569566775E+01  1.61711377451749E+00
(PID.TID 0000.0001)  ploadbar=  1.01002201503489E+05
 cg2d: Sum(rhs),rhsMax =  -5.30273079312869E+01  1.62111577423563E+00
(PID.TID 0000.0001)  ploadbar=  1.01001559219292E+05
 cg2d: Sum(rhs),rhsMax =  -5.28681005604053E+01  1.62601280474660E+00
(PID.TID 0000.0001)  ploadbar=  1.01000916935095E+05
 cg2d: Sum(rhs),rhsMax =  -5.26782606116506E+01  1.63185416779599E+00
(PID.TID 0000.0001)  ploadbar=  1.01000274650898E+05
 cg2d: Sum(rhs),rhsMax =  -5.24684629584099E+01  1.63837985424276E+00
(PID.TID 0000.0001)  ploadbar=  1.00999766561883E+05
 cg2d: Sum(rhs),rhsMax =  -5.22564402320500E+01  1.64504070228137E+00
(PID.TID 0000.0001)  ploadbar=  1.00999258472867E+05
 cg2d: Sum(rhs),rhsMax =  -5.20616940028548E+01  1.65121596839616E+00
(PID.TID 0000.0001)  ploadbar=  1.00998750383852E+05
 cg2d: Sum(rhs),rhsMax =  -5.18886187982392E+01  1.65674972290667E+00
(PID.TID 0000.0001)  ploadbar=  1.00998242294836E+05
 cg2d: Sum(rhs),rhsMax =  -5.17448827879193E+01  1.66137608376196E+00
(PID.TID 0000.0001)  ploadbar=  1.00997734205821E+05
 cg2d: Sum(rhs),rhsMax =  -5.16351307893299E+01  1.66492295691212E+00
(PID.TID 0000.0001)  ploadbar=  1.00997226116805E+05
 cg2d: Sum(rhs),rhsMax =  -5.15820506210691E+01  1.66665279195706E+00
(PID.TID 0000.0001)  ploadbar=  1.00996314948131E+05
 cg2d: Sum(rhs),rhsMax =  -5.15706623880008E+01  1.66702649697566E+00
(PID.TID 0000.0001)  ploadbar=  1.00995403779457E+05
 cg2d: Sum(rhs),rhsMax =  -5.15920554286973E+01  1.66632393246241E+00
(PID.TID 0000.0001)  ploadbar=  1.00994492610782E+05
 cg2d: Sum(rhs),rhsMax =  -5.16490900492096E+01  1.66445553225641E+00
(PID.TID 0000.0001)  ploadbar=  1.00993581442108E+05
 cg2d: Sum(rhs),rhsMax =  -5.17378261704988E+01  1.66155506797092E+00
(PID.TID 0000.0001)  ploadbar=  1.00992670273433E+05
 cg2d: Sum(rhs),rhsMax =  -5.18536431449215E+01  1.65777809569694E+00
(PID.TID 0000.0001)  ploadbar=  1.00991759104759E+05
 cg2d: Sum(rhs),rhsMax =  -5.20138318443867E+01  1.65267331615912E+00
(PID.TID 0000.0001)  ploadbar=  1.00992949505258E+05
 cg2d: Sum(rhs),rhsMax =  -5.21967589981126E+01  1.64694948044329E+00
(PID.TID 0000.0001)  ploadbar=  1.00994139905757E+05
 cg2d: Sum(rhs),rhsMax =  -5.23914362555635E+01  1.64096659396168E+00
(PID.TID 0000.0001)  ploadbar=  1.00995330306256E+05
 cg2d: Sum(rhs),rhsMax =  -5.25899979763962E+01  1.63496972789293E+00
(PID.TID 0000.0001)  ploadbar=  1.00996520706754E+05
 cg2d: Sum(rhs),rhsMax =  -5.27867647917187E+01  1.62912719021233E+00
(PID.TID 0000.0001)  ploadbar=  1.00997711107253E+05
 cg2d: Sum(rhs),rhsMax =  -5.29785277934572E+01  1.62352866669278E+00
(PID.TID 0000.0001)  ploadbar=  1.00998901507752E+05
 cg2d: Sum(rhs),rhsMax =  -5.31676664931019E+01  1.61802846777395E+00
(PID.TID 0000.0001)  ploadbar=  1.00999550211358E+05
 cg2d: Sum(rhs),rhsMax =  -5.33530101996960E+01  1.61265633854292E+00
(PID.TID 0000.0001)  ploadbar=  1.01000198914964E+05
 cg2d: Sum(rhs),rhsMax =  -5.35306286856807E+01  1.60751972270272E+00
(PID.TID 0000.0001)  ploadbar=  1.01000847618570E+05
 cg2d: Sum(rhs),rhsMax =  -5.37008053952160E+01  1.60259872890507E+00
(PID.TID 0000.0001)  ploadbar=  1.01001496322175E+05
 cg2d: Sum(rhs),rhsMax =  -5.38670110646198E+01  1.59778034764046E+00
(PID.TID 0000.0001)  ploadbar=  1.01002145025781E+05
 cg2d: Sum(rhs),rhsMax =  -5.40247741628247E+01  1.59319357567247E+00
(PID.TID 0000.0001)  ploadbar=  1.01002793729387E+05
 cg2d: Sum(rhs),rhsMax =  -5.41820386305589E+01  1.58864685515414E+00
(PID.TID 0000.0001)  ploadbar=  1.01004354675381E+05
 cg2d: Sum(rhs),rhsMax =  -5.43362448642219E+01  1.58420958022462E+00
(PID.TID 0000.0001)  ploadbar=  1.01005915621374E+05
 cg2d: Sum(rhs),rhsMax =  -5.44810536156546E+01  1.58005784214454E+00
(PID.TID 0000.0001)  ploadbar=  1.01007476567368E+05
 cg2d: Sum(rhs),rhsMax =  -5.46222486779905E+01  1.57601620183944E+00
(PID.TID 0000.0001)  ploadbar=  1.01009037513361E+05
 cg2d: Sum(rhs),rhsMax =  -5.47640738576278E+01  1.57195568507462E+00
(PID.TID 0000.0001)  ploadbar=  1.01010598459355E+05
 cg2d: Sum(rhs),rhsMax =  -5.48972856416480E+01  1.56813333936275E+00
(PID.TID 0000.0001)  ploadbar=  1.01012159405348E+05
 cg2d: Sum(rhs),rhsMax =  -5.50045905616515E+01  1.56502727293016E+00
(PID.TID 0000.0001)  ploadbar=  1.01013901388504E+05
 cg2d: Sum(rhs),rhsMax =  -5.51087887070285E+01  1.56198240254034E+00
(PID.TID 0000.0001)  ploadbar=  1.01015643371660E+05
 cg2d: Sum(rhs),rhsMax =  -5.52222298817101E+01  1.55864474700254E+00
(PID.TID 0000.0001)  ploadbar=  1.01017385354815E+05
 cg2d: Sum(rhs),rhsMax =  -5.53424681690483E+01  1.55508559027502E+00
(PID.TID 0000.0001)  ploadbar=  1.01019127337971E+05
 cg2d: Sum(rhs),rhsMax =  -5.54608649251559E+01  1.55154853569244E+00
(PID.TID 0000.0001)  ploadbar=  1.01020869321127E+05
 cg2d: Sum(rhs),rhsMax =  -5.55731259814453E+01  1.54815042099579E+00
(PID.TID 0000.0001)  ploadbar=  1.01022611304282E+05
 cg2d: Sum(rhs),rhsMax =  -5.56878938387604E+01  1.54475936196583E+00
(PID.TID 0000.0001)  ploadbar=  1.01025423218284E+05
 cg2d: Sum(rhs),rhsMax =  -5.57899944158486E+01  1.54179426078764E+00
(PID.TID 0000.0001)  ploadbar=  1.01028235132286E+05
 cg2d: Sum(rhs),rhsMax =  -5.58855377823243E+01  1.53908224181478E+00
(PID.TID 0000.0001)  ploadbar=  1.01031047046288E+05
 cg2d: Sum(rhs),rhsMax =  -5.59680726346844E+01  1.53679292926658E+00
(PID.TID 0000.0001)  ploadbar=  1.01033858960290E+05
 cg2d: Sum(rhs),rhsMax =  -5.60370688325169E+01  1.53493045290724E+00
(PID.TID 0000.0001)  ploadbar=  1.01036670874291E+05
 cg2d: Sum(rhs),rhsMax =  -5.60966201313147E+01  1.53337343444843E+00
(PID.TID 0000.0001)  ploadbar=  1.01039482788293E+05
 cg2d: Sum(rhs),rhsMax =  -5.61312711205806E+01  1.53251452790319E+00
(PID.TID 0000.0001)  ploadbar=  1.01041155659772E+05
 cg2d: Sum(rhs),rhsMax =  -5.61506694297470E+01  1.53208187040213E+00
(PID.TID 0000.0001)  ploadbar=  1.01042828531251E+05
 cg2d: Sum(rhs),rhsMax =  -5.61609861152316E+01  1.53190329826344E+00
(PID.TID 0000.0001)  ploadbar=  1.01044501402730E+05
 cg2d: Sum(rhs),rhsMax =  -5.61608237077724E+01  1.53200774005438E+00
(PID.TID 0000.0001)  ploadbar=  1.01046174274209E+05
 cg2d: Sum(rhs),rhsMax =  -5.61475139866138E+01  1.53245957529640E+00
(PID.TID 0000.0001)  ploadbar=  1.01047847145688E+05
 cg2d: Sum(rhs),rhsMax =  -5.61168158932817E+01  1.53337054761214E+00
(PID.TID 0000.0001)  ploadbar=  1.01049520017167E+05
 cg2d: Sum(rhs),rhsMax =  -5.60442105090409E+01  1.53539153200136E+00
(PID.TID 0000.0001)  ploadbar=  1.01051209824911E+05
 cg2d: Sum(rhs),rhsMax =  -5.59337642017187E+01  1.53841557411262E+00
(PID.TID 0000.0001)  ploadbar=  1.01052899632654E+05
 cg2d: Sum(rhs),rhsMax =  -5.57822757319370E+01  1.54253910796113E+00
(PID.TID 0000.0001)  ploadbar=  1.01054589440398E+05
 cg2d: Sum(rhs),rhsMax =  -5.55857973874847E+01  1.54788830353957E+00
(PID.TID 0000.0001)  ploadbar=  1.01056279248142E+05
 cg2d: Sum(rhs),rhsMax =  -5.53382622661705E+01  1.55465466267356E+00
(PID.TID 0000.0001)  ploadbar=  1.01057969055886E+05
 cg2d: Sum(rhs),rhsMax =  -5.50321565816565E+01  1.56308068742060E+00
(PID.TID 0000.0001)  ploadbar=  1.01059658863629E+05
 cg2d: Sum(rhs),rhsMax =  -5.46988386200780E+01  1.57236746929024E+00
(PID.TID 0000.0001)  ploadbar=  1.01061059325345E+05
 cg2d: Sum(rhs),rhsMax =  -5.43173473232394E+01  1.58315201038249E+00
(PID.TID 0000.0001)  ploadbar=  1.01062459787061E+05
 cg2d: Sum(rhs),rhsMax =  -5.38889555571752E+01  1.59545345148220E+00
(PID.TID 0000.0001)  ploadbar=  1.01063860248777E+05
 cg2d: Sum(rhs),rhsMax =  -5.34249026375917E+01  1.60900198945896E+00
(PID.TID 0000.0001)  ploadbar=  1.01065260710493E+05
 cg2d: Sum(rhs),rhsMax =  -5.29271989402772E+01  1.62379481925774E+00
(PID.TID 0000.0001)  ploadbar=  1.01066661172209E+05
 cg2d: Sum(rhs),rhsMax =  -5.23860813385531E+01  1.64020018364532E+00
(PID.TID 0000.0001)  ploadbar=  1.01068061633925E+05
 cg2d: Sum(rhs),rhsMax =  -5.18053859541468E+01  1.65828329271551E+00
(PID.TID 0000.0001)  ploadbar=  1.01068830276689E+05
 cg2d: Sum(rhs),rhsMax =  -5.11681013315838E+01  1.67869913753685E+00
(PID.TID 0000.0001)  ploadbar=  1.01069598919453E+05
 cg2d: Sum(rhs),rhsMax =  -5.04682721920241E+01  1.70180352372131E+00
(PID.TID 0000.0001)  ploadbar=  1.01070367562217E+05
 cg2d: Sum(rhs),rhsMax =  -4.97075815269962E+01  1.72773615890069E+00
(PID.TID 0000.0001)  ploadbar=  1.01071136204981E+05
 cg2d: Sum(rhs),rhsMax =  -4.88877695807521E+01  1.75665306742983E+00
(PID.TID 0000.0001)  ploadbar=  1.01071904847746E+05
 cg2d: Sum(rhs),rhsMax =  -4.80126133720559E+01  1.78866205278720E+00
(PID.TID 0000.0001)  ploadbar=  1.01072673490510E+05
 cg2d: Sum(rhs),rhsMax =  -4.71010850807978E+01  1.82321600821573E+00
(PID.TID 0000.0001)  ploadbar=  1.01072580482623E+05
 cg2d: Sum(rhs),rhsMax =  -4.55900514482388E+01  1.88351893423717E+00
(PID.TID 0000.0001)  ploadbar=  1.01072487474736E+05
 cg2d: Sum(rhs),rhsMax =  -4.41469279259468E+01  1.94488775207985E+00
(PID.TID 0000.0001)  ploadbar=  1.01072394466850E+05
 cg2d: Sum(rhs),rhsMax =  -4.27990137653381E+01  2.00584856486305E+00
(PID.TID 0000.0001)  ploadbar=  1.01072301458963E+05
 cg2d: Sum(rhs),rhsMax =  -4.15448148704451E+01  2.06601053577482E+00
(PID.TID 0000.0001)  ploadbar=  1.01072208451077E+05
 cg2d: Sum(rhs),rhsMax =  -4.03943091373057E+01  2.12434849559821E+00
(PID.TID 0000.0001)  ploadbar=  1.01072115443190E+05
 cg2d: Sum(rhs),rhsMax =  -3.92632401806700E+01  2.18501743554196E+00
(PID.TID 0000.0001)  ploadbar=  1.01072022508781E+05
 cg2d: Sum(rhs),rhsMax =  -3.82692254442024E+01  2.24121473578675E+00
(PID.TID 0000.0001)  ploadbar=  1.01071929574373E+05
 cg2d: Sum(rhs),rhsMax =  -3.74030005280641E+01  2.29252945706677E+00
(PID.TID 0000.0001)  ploadbar=  1.01071836639964E+05
 cg2d: Sum(rhs),rhsMax =  -3.66515053683384E+01  2.33890732413060E+00
(PID.TID 0000.0001)  ploadbar=  1.01071743705555E+05
 cg2d: Sum(rhs),rhsMax =  -3.60036495200675E+01  2.38032612400634E+00
(PID.TID 0000.0001)  ploadbar=  1.01071650771147E+05
 cg2d: Sum(rhs),rhsMax =  -3.54495716133094E+01  2.41681540601307E+00
(PID.TID 0000.0001)  ploadbar=  1.01071557836738E+05
 cg2d: Sum(rhs),rhsMax =  -3.49481739884294E+01  2.45076573920167E+00
(PID.TID 0000.0001)  ploadbar=  1.01070657567954E+05
 cg2d: Sum(rhs),rhsMax =  -3.45151867691053E+01  2.48076849915204E+00
(PID.TID 0000.0001)  ploadbar=  1.01069757299170E+05
 cg2d: Sum(rhs),rhsMax =  -3.41319152419811E+01  2.50786324347161E+00
(PID.TID 0000.0001)  ploadbar=  1.01068857030386E+05
 cg2d: Sum(rhs),rhsMax =  -3.37864308339295E+01  2.53272327985509E+00
(PID.TID 0000.0001)  ploadbar=  1.01067956761602E+05
 cg2d: Sum(rhs),rhsMax =  -3.35441238712987E+01  2.55021239995088E+00
(PID.TID 0000.0001)  ploadbar=  1.01067056492818E+05
 cg2d: Sum(rhs),rhsMax =  -3.33362877243200E+01  2.56528479180251E+00
(PID.TID 0000.0001)  ploadbar=  1.01066156224034E+05
 cg2d: Sum(rhs),rhsMax =  -3.31493746208004E+01  2.57906212567414E+00
(PID.TID 0000.0001)  ploadbar=  1.01064661629086E+05
 cg2d: Sum(rhs),rhsMax =  -3.29904024887570E+01  2.59094302762188E+00
(PID.TID 0000.0001)  ploadbar=  1.01063167034138E+05
 cg2d: Sum(rhs),rhsMax =  -3.28956175811589E+01  2.59800087787522E+00
(PID.TID 0000.0001)  ploadbar=  1.01061672439190E+05
 cg2d: Sum(rhs),rhsMax =  -3.28682206672879E+01  2.59989178369502E+00
(PID.TID 0000.0001)  ploadbar=  1.01060177844242E+05
 cg2d: Sum(rhs),rhsMax =  -3.29184012149431E+01  2.59577199938579E+00
(PID.TID 0000.0001)  ploadbar=  1.01058683249294E+05
 cg2d: Sum(rhs),rhsMax =  -3.30400011562746E+01  2.58616882871503E+00
(PID.TID 0000.0001)  ploadbar=  1.01057188654346E+05
 cg2d: Sum(rhs),rhsMax =  -3.32175430352190E+01  2.57224320927766E+00
(PID.TID 0000.0001)  ploadbar=  1.01055772366905E+05
 cg2d: Sum(rhs),rhsMax =  -3.34953375789061E+01  2.55074585574140E+00
(PID.TID 0000.0001)  ploadbar=  1.01054356079463E+05
 cg2d: Sum(rhs),rhsMax =  -3.38596152624653E+01  2.52306586752824E+00
(PID.TID 0000.0001)  ploadbar=  1.01052939792021E+05
 cg2d: Sum(rhs),rhsMax =  -3.43026691960028E+01  2.49016540607958E+00
(PID.TID 0000.0001)  ploadbar=  1.01051523504579E+05
 cg2d: Sum(rhs),rhsMax =  -3.48137456805109E+01  2.45322063695819E+00
(PID.TID 0000.0001)  ploadbar=  1.01050107217137E+05
 cg2d: Sum(rhs),rhsMax =  -3.53793130190694E+01  2.41353882132595E+00
(PID.TID 0000.0001)  ploadbar=  1.01048690929695E+05
 cg2d: Sum(rhs),rhsMax =  -3.60160990737134E+01  2.37039622317982E+00
(PID.TID 0000.0001)  ploadbar=  1.01048052080934E+05
 cg2d: Sum(rhs),rhsMax =  -3.66178645465764E+01  2.33096318095465E+00
(PID.TID 0000.0001)  ploadbar=  1.01047413232173E+05
 cg2d: Sum(rhs),rhsMax =  -3.71785203146201E+01  2.29532174730829E+00
(PID.TID 0000.0001)  ploadbar=  1.01046774383412E+05
 cg2d: Sum(rhs),rhsMax =  -3.77207275750962E+01  2.26182024722256E+00
(PID.TID 0000.0001)  ploadbar=  1.01046135534651E+05
 cg2d: Sum(rhs),rhsMax =  -3.82804710706175E+01  2.22821383772042E+00
(PID.TID 0000.0001)  ploadbar=  1.01045496685890E+05
 cg2d: Sum(rhs),rhsMax =  -3.88959129035022E+01  2.19238926610542E+00
(PID.TID 0000.0001)  ploadbar=  1.01044857837129E+05
 cg2d: Sum(rhs),rhsMax =  -3.95745145589357E+01  2.15420016642692E+00
(PID.TID 0000.0001)  ploadbar=  1.01044223273188E+05
 cg2d: Sum(rhs),rhsMax =  -4.03690969815121E+01  2.11117628524614E+00
(PID.TID 0000.0001)  ploadbar=  1.01043588709246E+05
 cg2d: Sum(rhs),rhsMax =  -4.12346796135102E+01  2.06620262509690E+00
(PID.TID 0000.0001)  ploadbar=  1.01042954145305E+05
 cg2d: Sum(rhs),rhsMax =  -4.29901178782098E+01  1.98115491932226E+00
(PID.TID 0000.0001)  ploadbar=  1.01042319581363E+05
 cg2d: Sum(rhs),rhsMax =  -4.48500649883957E+01  1.89829830810984E+00
(PID.TID 0000.0001)  ploadbar=  1.01041685017422E+05
 cg2d: Sum(rhs),rhsMax =  -4.66971010226062E+01  1.82249698690307E+00
(PID.TID 0000.0001)  ploadbar=  1.01041050453480E+05
 cg2d: Sum(rhs),rhsMax =  -4.87510948469508E+01  1.74510159403697E+00
(PID.TID 0000.0001)  ploadbar=  1.01041634494518E+05
 cg2d: Sum(rhs),rhsMax =  -5.10415202796255E+01  1.66628288499632E+00
(PID.TID 0000.0001)  ploadbar=  1.01042218535556E+05
 cg2d: Sum(rhs),rhsMax =  -5.36139523068985E+01  1.58591548620890E+00
(PID.TID 0000.0001)  ploadbar=  1.01042802576594E+05
 cg2d: Sum(rhs),rhsMax =  -5.65032571526675E+01  1.50448281327480E+00
(PID.TID 0000.0001)  ploadbar=  1.01043386617633E+05
 cg2d: Sum(rhs),rhsMax =  -5.96904037914664E+01  1.42388248438330E+00
(PID.TID 0000.0001)  ploadbar=  1.01043970658671E+05
 cg2d: Sum(rhs),rhsMax =  -6.31277102040017E+01  1.34613885589656E+00
(PID.TID 0000.0001)  ploadbar=  1.01044554699709E+05
 cg2d: Sum(rhs),rhsMax =  -6.65869309688475E+01  1.27600289026605E+00
(PID.TID 0000.0001)  ploadbar=  1.01044040293573E+05
 cg2d: Sum(rhs),rhsMax =  -6.56933654332774E+01  1.29314203025017E+00
(PID.TID 0000.0001)  ploadbar=  1.01043525887436E+05
 cg2d: Sum(rhs),rhsMax =  -6.35294002295133E+01  1.33694977063790E+00
(PID.TID 0000.0001)  ploadbar=  1.01043011481300E+05
 cg2d: Sum(rhs),rhsMax =  -6.17930116999587E+01  1.37425194089473E+00
(PID.TID 0000.0001)  ploadbar=  1.01042497075164E+05
 cg2d: Sum(rhs),rhsMax =  -6.04824629499538E+01  1.40373351694426E+00
(PID.TID 0000.0001)  ploadbar=  1.01041982669028E+05
 cg2d: Sum(rhs),rhsMax =  -5.95523047638224E+01  1.42533169033986E+00
(PID.TID 0000.0001)  ploadbar=  1.01041468262891E+05
 cg2d: Sum(rhs),rhsMax =  -5.90040842165477E+01  1.43825317903488E+00
(PID.TID 0000.0001)  ploadbar=  1.01040898851457E+05
 cg2d: Sum(rhs),rhsMax =  -5.86480738428514E+01  1.44666339646205E+00
(PID.TID 0000.0001)  ploadbar=  1.01040329440023E+05
 cg2d: Sum(rhs),rhsMax =  -5.84339962124287E+01  1.45164025673829E+00
(PID.TID 0000.0001)  ploadbar=  1.01039760028589E+05
 cg2d: Sum(rhs),rhsMax =  -5.83066763862153E+01  1.45447971540412E+00
(PID.TID 0000.0001)  ploadbar=  1.01039190617155E+05
 cg2d: Sum(rhs),rhsMax =  -5.82272699430052E+01  1.45612000683368E+00
(PID.TID 0000.0001)  ploadbar=  1.01038621205722E+05
 cg2d: Sum(rhs),rhsMax =  -5.81946433137201E+01  1.45657510919627E+00
(PID.TID 0000.0001)  ploadbar=  1.01038051794288E+05
 cg2d: Sum(rhs),rhsMax =  -5.82089473962783E+01  1.45585336872969E+00
(PID.TID 0000.0001)  ploadbar=  1.01037918909047E+05
 cg2d: Sum(rhs),rhsMax =  -5.82898795636516E+01  1.45346143788320E+00
(PID.TID 0000.0001)  ploadbar=  1.01037786023807E+05
 cg2d: Sum(rhs),rhsMax =  -5.84500602584571E+01  1.44909711144096E+00
(PID.TID 0000.0001)  ploadbar=  1.01037653138566E+05
 cg2d: Sum(rhs),rhsMax =  -5.86651498591357E+01  1.44339079798397E+00
(PID.TID 0000.0001)  ploadbar=  1.01037520253326E+05
 cg2d: Sum(rhs),rhsMax =  -5.89179011993697E+01  1.43679304399251E+00
(PID.TID 0000.0001)  ploadbar=  1.01037387368085E+05
 cg2d: Sum(rhs),rhsMax =  -5.91234529753040E+01  1.43137702309105E+00
(PID.TID 0000.0001)  ploadbar=  1.01037254482845E+05
 cg2d: Sum(rhs),rhsMax =  -5.92646959466579E+01  1.42759261790034E+00
(PID.TID 0000.0001)  ploadbar=  1.01036891688356E+05
 cg2d: Sum(rhs),rhsMax =  -5.94147077960976E+01  1.42366145818200E+00
(PID.TID 0000.0001)  ploadbar=  1.01036528893866E+05
 cg2d: Sum(rhs),rhsMax =  -5.96100518548346E+01  1.41871252321512E+00
(PID.TID 0000.0001)  ploadbar=  1.01036166099377E+05
 cg2d: Sum(rhs),rhsMax =  -5.98750548917590E+01  1.41219006166310E+00
(PID.TID 0000.0001)  ploadbar=  1.01035803304887E+05
 cg2d: Sum(rhs),rhsMax =  -6.06307942574021E+01  1.39438016644998E+00
(PID.TID 0000.0001)  ploadbar=  1.01035440510398E+05
 cg2d: Sum(rhs),rhsMax =  -6.14571429799755E+01  1.37545426105480E+00
(PID.TID 0000.0001)  ploadbar=  1.01035077715908E+05
 cg2d: Sum(rhs),rhsMax =  -6.23451989699097E+01  1.35566385951663E+00
(PID.TID 0000.0001)  ploadbar=  1.01034456757163E+05
 cg2d: Sum(rhs),rhsMax =  -6.33033449365814E+01  1.33491946685250E+00
(PID.TID 0000.0001)  ploadbar=  1.01033835798419E+05
 cg2d: Sum(rhs),rhsMax =  -6.43373734199799E+01  1.31321025956412E+00
(PID.TID 0000.0001)  ploadbar=  1.01033214839674E+05
 cg2d: Sum(rhs),rhsMax =  -6.54480799220491E+01  1.29064004525026E+00
(PID.TID 0000.0001)  ploadbar=  1.01032593880930E+05
 cg2d: Sum(rhs),rhsMax =  -6.66254547729587E+01  1.26751957587430E+00
(PID.TID 0000.0001)  ploadbar=  1.01031972922185E+05
 cg2d: Sum(rhs),rhsMax =  -6.78492659464262E+01  1.24431433441060E+00
(PID.TID 0000.0001)  ploadbar=  1.01031351963441E+05
 cg2d: Sum(rhs),rhsMax =  -6.91101241258591E+01  1.22127790058084E+00
(PID.TID 0000.0001)  ploadbar=  1.01031400113219E+05
 cg2d: Sum(rhs),rhsMax =  -7.03859442822426E+01  1.19880974638828E+00
(PID.TID 0000.0001)  ploadbar=  1.01031448262997E+05
 cg2d: Sum(rhs),rhsMax =  -7.16674685801781E+01  1.17704204652232E+00
(PID.TID 0000.0001)  ploadbar=  1.01031496412775E+05
 cg2d: Sum(rhs),rhsMax =  -7.29658175427832E+01  1.15576562234340E+00
(PID.TID 0000.0001)  ploadbar=  1.01031544562554E+05
 cg2d: Sum(rhs),rhsMax =  -7.42820941738811E+01  1.13494986542321E+00
(PID.TID 0000.0001)  ploadbar=  1.01031592712332E+05
 cg2d: Sum(rhs),rhsMax =  -7.55924361688582E+01  1.11493496165649E+00
(PID.TID 0000.0001)  ploadbar=  1.01031640862110E+05
 cg2d: Sum(rhs),rhsMax =  -7.68399626991735E+01  1.09646730903021E+00
(PID.TID 0000.0001)  ploadbar=  1.01032188205096E+05
 cg2d: Sum(rhs),rhsMax =  -7.79104902883947E+01  1.08100825439368E+00
(PID.TID 0000.0001)  ploadbar=  1.01032735548082E+05
 cg2d: Sum(rhs),rhsMax =  -7.79548839840158E+01  1.07996638851789E+00
(PID.TID 0000.0001)  ploadbar=  1.01033282891068E+05
 cg2d: Sum(rhs),rhsMax =  -7.79926669210597E+01  1.07898206487310E+00
(PID.TID 0000.0001)  ploadbar=  1.01033830234054E+05
 cg2d: Sum(rhs),rhsMax =  -7.80209047938264E+01  1.07809332411626E+00
(PID.TID 0000.0001)  ploadbar=  1.01034377577040E+05
 cg2d: Sum(rhs),rhsMax =  -7.80406929613139E+01  1.07728510413483E+00
(PID.TID 0000.0001)  ploadbar=  1.01034924920025E+05
 cg2d: Sum(rhs),rhsMax =  -7.80596907235902E+01  1.07652331090397E+00
(PID.TID 0000.0001)  ploadbar=  1.01035054250421E+05
 cg2d: Sum(rhs),rhsMax =  -7.80764399966543E+01  1.07582670333416E+00
(PID.TID 0000.0001)  ploadbar=  1.01035183580817E+05
 cg2d: Sum(rhs),rhsMax =  -7.80892758108071E+01  1.07521526338345E+00
(PID.TID 0000.0001)  ploadbar=  1.01035312911213E+05
 cg2d: Sum(rhs),rhsMax =  -7.80939315134100E+01  1.07474477657537E+00
(PID.TID 0000.0001)  ploadbar=  1.01035442241609E+05
 cg2d: Sum(rhs),rhsMax =  -7.80935519828943E+01  1.07436953060798E+00
(PID.TID 0000.0001)  ploadbar=  1.01035571572005E+05
 cg2d: Sum(rhs),rhsMax =  -7.80901495298321E+01  1.07405748671295E+00
(PID.TID 0000.0001)  ploadbar=  1.01035700902401E+05
 cg2d: Sum(rhs),rhsMax =  -7.80985592213490E+01  1.07360971028005E+00
(PID.TID 0000.0001)  ploadbar=  1.01035811788439E+05
 cg2d: Sum(rhs),rhsMax =  -7.80991113213180E+01  1.07329079304736E+00
(PID.TID 0000.0001)  ploadbar=  1.01035922674476E+05
 cg2d: Sum(rhs),rhsMax =  -7.81047168692693E+01  1.07291966198928E+00
(PID.TID 0000.0001)  ploadbar=  1.01036033560513E+05
 cg2d: Sum(rhs),rhsMax =  -7.81122916827610E+01  1.07253354159707E+00
(PID.TID 0000.0001)  ploadbar=  1.01036144446550E+05
 cg2d: Sum(rhs),rhsMax =  -7.81215521101547E+01  1.07213394234203E+00
(PID.TID 0000.0001)  ploadbar=  1.01036255332587E+05
 cg2d: Sum(rhs),rhsMax =  -7.81327279104668E+01  1.07171606631102E+00
(PID.TID 0000.0001)  ploadbar=  1.01036366218624E+05
 cg2d: Sum(rhs),rhsMax =  -7.81674745414950E+01  1.07098041156240E+00
(PID.TID 0000.0001)  ploadbar=  1.01038101281333E+05
 cg2d: Sum(rhs),rhsMax =  -7.81974885108345E+01  1.07031449381242E+00
(PID.TID 0000.0001)  ploadbar=  1.01039836344042E+05
 cg2d: Sum(rhs),rhsMax =  -7.82252614185197E+01  1.06968168641585E+00
(PID.TID 0000.0001)  ploadbar=  1.01041571406750E+05
 cg2d: Sum(rhs),rhsMax =  -7.82539890240108E+01  1.06903432608196E+00
(PID.TID 0000.0001)  ploadbar=  1.01043306469459E+05
 cg2d: Sum(rhs),rhsMax =  -7.82791959058396E+01  1.06842958839835E+00
(PID.TID 0000.0001)  ploadbar=  1.01045041532168E+05
 cg2d: Sum(rhs),rhsMax =  -7.82991180356486E+01  1.06788785372067E+00
(PID.TID 0000.0001)  ploadbar=  1.01046776594877E+05
 cg2d: Sum(rhs),rhsMax =  -7.83265958471652E+01  1.06721011405525E+00
(PID.TID 0000.0001)  ploadbar=  1.01046879623631E+05
 cg2d: Sum(rhs),rhsMax =  -7.83440808575675E+01  1.06663237637298E+00
(PID.TID 0000.0001)  ploadbar=  1.01046982652385E+05
 cg2d: Sum(rhs),rhsMax =  -7.83440933593232E+01  1.06625313376121E+00
(PID.TID 0000.0001)  ploadbar=  1.01047085681140E+05
 cg2d: Sum(rhs),rhsMax =  -7.83329310960061E+01  1.06598408425222E+00
(PID.TID 0000.0001)  ploadbar=  1.01047188709894E+05
 cg2d: Sum(rhs),rhsMax =  -7.83099891220324E+01  1.06583088448021E+00
(PID.TID 0000.0001)  ploadbar=  1.01047291738649E+05
 cg2d: Sum(rhs),rhsMax =  -7.82766879505502E+01  1.06577195626592E+00
(PID.TID 0000.0001)  ploadbar=  1.01047394767403E+05
 cg2d: Sum(rhs),rhsMax =  -7.82174319123475E+01  1.06612132010299E+00
(PID.TID 0000.0001)  ploadbar=  1.01047500157859E+05
 cg2d: Sum(rhs),rhsMax =  -7.81552528002990E+01  1.06656381155315E+00
(PID.TID 0000.0001)  ploadbar=  1.01047605548314E+05
 cg2d: Sum(rhs),rhsMax =  -7.80953241023293E+01  1.06702744279996E+00
(PID.TID 0000.0001)  ploadbar=  1.01047710938770E+05
 cg2d: Sum(rhs),rhsMax =  -7.80347870084749E+01  1.06754854078255E+00
(PID.TID 0000.0001)  ploadbar=  1.01047816329226E+05
 cg2d: Sum(rhs),rhsMax =  -7.79740404957548E+01  1.06811850666829E+00
(PID.TID 0000.0001)  ploadbar=  1.01047921719682E+05
 cg2d: Sum(rhs),rhsMax =  -7.79136074275482E+01  1.06872564609093E+00
(PID.TID 0000.0001)  ploadbar=  1.01048027110137E+05
 cg2d: Sum(rhs),rhsMax =  -7.78476663326647E+01  1.06940257718216E+00
(PID.TID 0000.0001)  ploadbar=  1.01048286154831E+05
 cg2d: Sum(rhs),rhsMax =  -7.77883698354496E+01  1.06997232615047E+00
(PID.TID 0000.0001)  ploadbar=  1.01048545199524E+05
 cg2d: Sum(rhs),rhsMax =  -7.77244985282817E+01  1.07058487535409E+00
(PID.TID 0000.0001)  ploadbar=  1.01048804244218E+05
 cg2d: Sum(rhs),rhsMax =  -7.76562566991911E+01  1.07123525452594E+00
(PID.TID 0000.0001)  ploadbar=  1.01049063288911E+05
 cg2d: Sum(rhs),rhsMax =  -7.75869249872672E+01  1.07187538631051E+00
(PID.TID 0000.0001)  ploadbar=  1.01049322333605E+05
 cg2d: Sum(rhs),rhsMax =  -7.75157531995858E+01  1.07251300272487E+00
(PID.TID 0000.0001)  ploadbar=  1.01049581378298E+05
 cg2d: Sum(rhs),rhsMax =  -7.73313891208607E+01  1.07472240615362E+00
(PID.TID 0000.0001)  ploadbar=  1.01049121924585E+05
 cg2d: Sum(rhs),rhsMax =  -7.71555550939754E+01  1.07682033194507E+00
(PID.TID 0000.0001)  ploadbar=  1.01048662470872E+05
 cg2d: Sum(rhs),rhsMax =  -7.69776250296802E+01  1.07895103666711E+00
(PID.TID 0000.0001)  ploadbar=  1.01048203017159E+05
 cg2d: Sum(rhs),rhsMax =  -7.67961563146276E+01  1.08113065812200E+00
(PID.TID 0000.0001)  ploadbar=  1.01047743563446E+05
 cg2d: Sum(rhs),rhsMax =  -7.66166214804560E+01  1.08327705761112E+00
(PID.TID 0000.0001)  ploadbar=  1.01047284109734E+05
 cg2d: Sum(rhs),rhsMax =  -7.64390833810222E+01  1.08538339582652E+00
(PID.TID 0000.0001)  ploadbar=  1.01046824656021E+05
 cg2d: Sum(rhs),rhsMax =  -7.62285136323235E+01  1.08794448927431E+00
(PID.TID 0000.0001)  ploadbar=  1.01046882601928E+05
 cg2d: Sum(rhs),rhsMax =  -7.60122812851264E+01  1.09057134533377E+00
(PID.TID 0000.0001)  ploadbar=  1.01046940547836E+05
 cg2d: Sum(rhs),rhsMax =  -7.57981582630764E+01  1.09315043215116E+00
(PID.TID 0000.0001)  ploadbar=  1.01046998493743E+05
 cg2d: Sum(rhs),rhsMax =  -7.55823109114201E+01  1.09573442297137E+00
(PID.TID 0000.0001)  ploadbar=  1.01047056439651E+05
 cg2d: Sum(rhs),rhsMax =  -7.53597235795454E+01  1.09839499412737E+00
(PID.TID 0000.0001)  ploadbar=  1.01047114385558E+05
 cg2d: Sum(rhs),rhsMax =  -7.51287993628145E+01  1.10115595576490E+00
(PID.TID 0000.0001)  ploadbar=  1.01047172331466E+05
 cg2d: Sum(rhs),rhsMax =  -7.49078918954734E+01  1.10384503217017E+00
(PID.TID 0000.0001)  ploadbar=  1.01048164406128E+05
 cg2d: Sum(rhs),rhsMax =  -7.46926428994455E+01  1.10652181237220E+00
(PID.TID 0000.0001)  ploadbar=  1.01049156480791E+05
 cg2d: Sum(rhs),rhsMax =  -7.44959699283587E+01  1.10899129986536E+00
(PID.TID 0000.0001)  ploadbar=  1.01050148555453E+05
 cg2d: Sum(rhs),rhsMax =  -7.43153647363916E+01  1.11128418135655E+00
(PID.TID 0000.0001)  ploadbar=  1.01051140630116E+05
 cg2d: Sum(rhs),rhsMax =  -7.41541860760828E+01  1.11334352704789E+00
(PID.TID 0000.0001)  ploadbar=  1.01052132704778E+05
 cg2d: Sum(rhs),rhsMax =  -7.40158858403705E+01  1.11510905084568E+00
(PID.TID 0000.0001)  ploadbar=  1.01053124779440E+05
 cg2d: Sum(rhs),rhsMax =  -7.39428304912253E+01  1.11589890634139E+00
(PID.TID 0000.0001)  ploadbar=  1.01053902937000E+05
 cg2d: Sum(rhs),rhsMax =  -7.38853362744448E+01  1.11645175803030E+00
(PID.TID 0000.0001)  ploadbar=  1.01054681094559E+05
 cg2d: Sum(rhs),rhsMax =  -7.38822563097930E+01  1.11617290279740E+00
(PID.TID 0000.0001)  ploadbar=  1.01055459252118E+05
 cg2d: Sum(rhs),rhsMax =  -7.39249530473175E+01  1.11518841631817E+00
(PID.TID 0000.0001)  ploadbar=  1.01056237409677E+05
 cg2d: Sum(rhs),rhsMax =  -7.40122597123856E+01  1.11351592294507E+00
(PID.TID 0000.0001)  ploadbar=  1.01057015567237E+05
 cg2d: Sum(rhs),rhsMax =  -7.41452511991265E+01  1.11114047282690E+00
(PID.TID 0000.0001)  ploadbar=  1.01057793724796E+05
 cg2d: Sum(rhs),rhsMax =  -7.43782244859997E+01  1.10728583960697E+00
(PID.TID 0000.0001)  ploadbar=  1.01058624667408E+05
 cg2d: Sum(rhs),rhsMax =  -7.46340383887185E+01  1.10311620701052E+00
(PID.TID 0000.0001)  ploadbar=  1.01059455610021E+05
 cg2d: Sum(rhs),rhsMax =  -7.48978785698419E+01  1.09885449083709E+00
(PID.TID 0000.0001)  ploadbar=  1.01060286552633E+05
 cg2d: Sum(rhs),rhsMax =  -7.51625510867521E+01  1.09460428494354E+00
(PID.TID 0000.0001)  ploadbar=  1.01061117495246E+05
 cg2d: Sum(rhs),rhsMax =  -7.54246849471941E+01  1.09040945170359E+00
(PID.TID 0000.0001)  ploadbar=  1.01061948437858E+05
 cg2d: Sum(rhs),rhsMax =  -7.56849258713625E+01  1.08625332671326E+00
(PID.TID 0000.0001)  ploadbar=  1.01062779380471E+05
 cg2d: Sum(rhs),rhsMax =  -7.59844781921494E+01  1.08154598638442E+00
(PID.TID 0000.0001)  ploadbar=  1.01063156302304E+05
 cg2d: Sum(rhs),rhsMax =  -7.62932090082527E+01  1.07672292768354E+00
(PID.TID 0000.0001)  ploadbar=  1.01063533224138E+05
 cg2d: Sum(rhs),rhsMax =  -7.65945875107155E+01  1.07201696924035E+00
(PID.TID 0000.0001)  ploadbar=  1.01063910145971E+05
 cg2d: Sum(rhs),rhsMax =  -7.69027223075323E+01  1.06722809714770E+00
(PID.TID 0000.0001)  ploadbar=  1.01064287067805E+05
 cg2d: Sum(rhs),rhsMax =  -7.72168519792355E+01  1.06236777682747E+00
(PID.TID 0000.0001)  ploadbar=  1.01064663989638E+05
 cg2d: Sum(rhs),rhsMax =  -7.75364766321501E+01  1.05744321947993E+00
(PID.TID 0000.0001)  ploadbar=  1.01065040911472E+05
 cg2d: Sum(rhs),rhsMax =  -7.78420546840663E+01  1.05281770066661E+00
(PID.TID 0000.0001)  ploadbar=  1.01066900075468E+05
 cg2d: Sum(rhs),rhsMax =  -7.81677726022489E+01  1.04802409224919E+00
(PID.TID 0000.0001)  ploadbar=  1.01068759239464E+05
 cg2d: Sum(rhs),rhsMax =  -7.85074619132490E+01  1.04314625070830E+00
(PID.TID 0000.0001)  ploadbar=  1.01070618403460E+05
 cg2d: Sum(rhs),rhsMax =  -7.83748091490258E+01  1.04462603916127E+00
(PID.TID 0000.0001)  ploadbar=  1.01072477567456E+05
 cg2d: Sum(rhs),rhsMax =  -7.79049430033999E+01  1.05069443126457E+00
(PID.TID 0000.0001)  ploadbar=  1.01074336731452E+05
 cg2d: Sum(rhs),rhsMax =  -7.74459436369963E+01  1.05673813782454E+00
(PID.TID 0000.0001)  ploadbar=  1.01076195895449E+05
 cg2d: Sum(rhs),rhsMax =  -7.69815465722713E+01  1.06292598749924E+00
(PID.TID 0000.0001)  ploadbar=  1.01076673255673E+05
 cg2d: Sum(rhs),rhsMax =  -7.64910303632242E+01  1.06954358376513E+00
(PID.TID 0000.0001)  ploadbar=  1.01077150615898E+05
 cg2d: Sum(rhs),rhsMax =  -7.59771390466315E+01  1.07656275849257E+00
(PID.TID 0000.0001)  ploadbar=  1.01077627976123E+05
 cg2d: Sum(rhs),rhsMax =  -7.54388751457155E+01  1.08401060942624E+00
(PID.TID 0000.0001)  ploadbar=  1.01078105336348E+05
 cg2d: Sum(rhs),rhsMax =  -7.48941752087407E+01  1.09163857612812E+00
(PID.TID 0000.0001)  ploadbar=  1.01078582696573E+05
 cg2d: Sum(rhs),rhsMax =  -7.43525568475215E+01  1.09930987296685E+00
(PID.TID 0000.0001)  ploadbar=  1.01079060056797E+05
 cg2d: Sum(rhs),rhsMax =  -7.38304293748528E+01  1.10683683653943E+00
(PID.TID 0000.0001)  ploadbar=  1.01078337724003E+05
 cg2d: Sum(rhs),rhsMax =  -7.33479115504037E+01  1.11390221119335E+00
(PID.TID 0000.0001)  ploadbar=  1.01077615391208E+05
 cg2d: Sum(rhs),rhsMax =  -7.29798980693957E+01  1.11933298621728E+00
(PID.TID 0000.0001)  ploadbar=  1.01076893058414E+05
 cg2d: Sum(rhs),rhsMax =  -7.26352128983063E+01  1.12448580483559E+00
(PID.TID 0000.0001)  ploadbar=  1.01076170725619E+05
 cg2d: Sum(rhs),rhsMax =  -7.23238248450698E+01  1.12919345510193E+00
(PID.TID 0000.0001)  ploadbar=  1.01075448392824E+05
 cg2d: Sum(rhs),rhsMax =  -7.20435431276118E+01  1.13347437913786E+00
(PID.TID 0000.0001)  ploadbar=  1.01074726060030E+05
 cg2d: Sum(rhs),rhsMax =  -7.17616252240004E+01  1.13779942917782E+00
(PID.TID 0000.0001)  ploadbar=  1.01074970455422E+05
 cg2d: Sum(rhs),rhsMax =  -7.15295510850099E+01  1.14134593433815E+00
(PID.TID 0000.0001)  ploadbar=  1.01075214850815E+05
 cg2d: Sum(rhs),rhsMax =  -7.13168616305049E+01  1.14458598264457E+00
(PID.TID 0000.0001)  ploadbar=  1.01075459246208E+05
 cg2d: Sum(rhs),rhsMax =  -7.11444332761383E+01  1.14717737488035E+00
(PID.TID 0000.0001)  ploadbar=  1.01075703641601E+05
 cg2d: Sum(rhs),rhsMax =  -7.10208968045081E+01  1.14896932151455E+00
(PID.TID 0000.0001)  ploadbar=  1.01075948036993E+05
 cg2d: Sum(rhs),rhsMax =  -7.09526049888385E+01  1.14985035947796E+00
(PID.TID 0000.0001)  ploadbar=  1.01076192432386E+05
 cg2d: Sum(rhs),rhsMax =  -7.08898607631396E+01  1.15069832667092E+00
(PID.TID 0000.0001)  ploadbar=  1.01076601434197E+05
 cg2d: Sum(rhs),rhsMax =  -7.09224795183760E+01  1.15005431404899E+00
(PID.TID 0000.0001)  ploadbar=  1.01077010436008E+05
 cg2d: Sum(rhs),rhsMax =  -7.10518430448566E+01  1.14789953477103E+00
(PID.TID 0000.0001)  ploadbar=  1.01077419437820E+05
 cg2d: Sum(rhs),rhsMax =  -7.12838528310114E+01  1.14415344888599E+00
(PID.TID 0000.0001)  ploadbar=  1.01077828439631E+05
 cg2d: Sum(rhs),rhsMax =  -7.16056793351013E+01  1.13904777034318E+00
(PID.TID 0000.0001)  ploadbar=  1.01078237441442E+05
 cg2d: Sum(rhs),rhsMax =  -7.19991490551654E+01  1.13290178862096E+00
(PID.TID 0000.0001)  ploadbar=  1.01078646443253E+05
 cg2d: Sum(rhs),rhsMax =  -7.25254653227679E+01  1.12473170119703E+00
(PID.TID 0000.0001)  ploadbar=  1.01078984630535E+05
 cg2d: Sum(rhs),rhsMax =  -7.34090556701029E+01  1.11121540021436E+00
(PID.TID 0000.0001)  ploadbar=  1.01079322817817E+05
 cg2d: Sum(rhs),rhsMax =  -7.43067912787582E+01  1.09778312493978E+00
(PID.TID 0000.0001)  ploadbar=  1.01079661005098E+05
 cg2d: Sum(rhs),rhsMax =  -7.51470496093422E+01  1.08547323536352E+00
(PID.TID 0000.0001)  ploadbar=  1.01079999192380E+05
 cg2d: Sum(rhs),rhsMax =  -7.58991319617636E+01  1.07465444631795E+00
(PID.TID 0000.0001)  ploadbar=  1.01080337379662E+05
 cg2d: Sum(rhs),rhsMax =  -7.65288065827329E+01  1.06572356791536E+00
(PID.TID 0000.0001)  ploadbar=  1.01080675566943E+05
 cg2d: Sum(rhs),rhsMax =  -7.69825161880467E+01  1.05936585554937E+00
(PID.TID 0000.0001)  ploadbar=  1.01080942046733E+05
 cg2d: Sum(rhs),rhsMax =  -7.73206404947076E+01  1.05466231519152E+00
(PID.TID 0000.0001)  ploadbar=  1.01081208526523E+05
 cg2d: Sum(rhs),rhsMax =  -7.76580179949822E+01  1.05001407981710E+00
(PID.TID 0000.0001)  ploadbar=  1.01081475006313E+05
 cg2d: Sum(rhs),rhsMax =  -7.79921946832845E+01  1.04545071295738E+00
(PID.TID 0000.0001)  ploadbar=  1.01081741486102E+05
 cg2d: Sum(rhs),rhsMax =  -7.83092537367591E+01  1.04115287652846E+00
(PID.TID 0000.0001)  ploadbar=  1.01082007965892E+05
 cg2d: Sum(rhs),rhsMax =  -7.85929459444069E+01  1.03732701828087E+00
(PID.TID 0000.0001)  ploadbar=  1.01082274445682E+05
 cg2d: Sum(rhs),rhsMax =  -7.88597805596448E+01  1.03371163947574E+00
(PID.TID 0000.0001)  ploadbar=  1.01082266736926E+05
 cg2d: Sum(rhs),rhsMax =  -7.90423208772337E+01  1.03118100972932E+00
(PID.TID 0000.0001)  ploadbar=  1.01082259028169E+05
 cg2d: Sum(rhs),rhsMax =  -7.91517681943313E+01  1.02957242752613E+00
(PID.TID 0000.0001)  ploadbar=  1.01082251319412E+05
 cg2d: Sum(rhs),rhsMax =  -7.91784360801888E+01  1.02900339133833E+00
(PID.TID 0000.0001)  ploadbar=  1.01082243610656E+05
 cg2d: Sum(rhs),rhsMax =  -7.91229379498452E+01  1.02946234136878E+00
(PID.TID 0000.0001)  ploadbar=  1.01082235901899E+05
 cg2d: Sum(rhs),rhsMax =  -7.89947840144514E+01  1.03082926750459E+00
(PID.TID 0000.0001)  ploadbar=  1.01082228193143E+05
 cg2d: Sum(rhs),rhsMax =  -7.90234409047918E+01  1.03019102782920E+00
(PID.TID 0000.0001)  ploadbar=  1.01082329589709E+05
 cg2d: Sum(rhs),rhsMax =  -7.93561700114220E+01  1.02564669748137E+00
(PID.TID 0000.0001)  ploadbar=  1.01082430986275E+05
 cg2d: Sum(rhs),rhsMax =  -7.96062849559580E+01  1.02223724498085E+00
(PID.TID 0000.0001)  ploadbar=  1.01082532382842E+05
 cg2d: Sum(rhs),rhsMax =  -7.97951051829652E+01  1.01966758823195E+00
(PID.TID 0000.0001)  ploadbar=  1.01082633779408E+05
 cg2d: Sum(rhs),rhsMax =  -7.99425897739610E+01  1.01766794233016E+00
(PID.TID 0000.0001)  ploadbar=  1.01082735175974E+05
 cg2d: Sum(rhs),rhsMax =  -8.00758956172389E+01  1.01588205397172E+00
(PID.TID 0000.0001)  ploadbar=  1.01082836572541E+05
 cg2d: Sum(rhs),rhsMax =  -8.02449119255190E+01  1.01362575522754E+00
(PID.TID 0000.0001)  ploadbar=  1.01083444578217E+05
 cg2d: Sum(rhs),rhsMax =  -8.04495096890276E+01  1.01090690473667E+00
(PID.TID 0000.0001)  ploadbar=  1.01084052583893E+05
 cg2d: Sum(rhs),rhsMax =  -8.07207250545690E+01  1.00734440228134E+00
(PID.TID 0000.0001)  ploadbar=  1.01084660589570E+05
 cg2d: Sum(rhs),rhsMax =  -8.10656295977363E+01  1.00286602638850E+00
(PID.TID 0000.0001)  ploadbar=  1.01085268595246E+05
 cg2d: Sum(rhs),rhsMax =  -8.14889197466370E+01  9.97436319313871E-01
(PID.TID 0000.0001)  ploadbar=  1.01085876600922E+05
 cg2d: Sum(rhs),rhsMax =  -8.19909939727698E+01  9.91078652561301E-01
(PID.TID 0000.0001)  ploadbar=  1.01086484606598E+05
 cg2d: Sum(rhs),rhsMax =  -8.13430606100254E+01  9.98739232752839E-01
(PID.TID 0000.0001)  ploadbar=  1.01087368950073E+05
 cg2d: Sum(rhs),rhsMax =  -8.05146580461017E+01  1.00879340728099E+00
(PID.TID 0000.0001)  ploadbar=  1.01088253293546E+05
 cg2d: Sum(rhs),rhsMax =  -7.98099507471289E+01  1.01748791130645E+00
(PID.TID 0000.0001)  ploadbar=  1.01089137637020E+05
 cg2d: Sum(rhs),rhsMax =  -7.92304652288999E+01  1.02472347257686E+00
(PID.TID 0000.0001)  ploadbar=  1.01090021980494E+05
 cg2d: Sum(rhs),rhsMax =  -7.87565792507539E+01  1.03068663599498E+00
(PID.TID 0000.0001)  ploadbar=  1.01090906323968E+05
 cg2d: Sum(rhs),rhsMax =  -7.83759206205908E+01  1.03549059601407E+00
(PID.TID 0000.0001)  ploadbar=  1.01091790667442E+05
 cg2d: Sum(rhs),rhsMax =  -7.80698967295174E+01  1.03931586822407E+00
(PID.TID 0000.0001)  ploadbar=  1.01091554231372E+05
 cg2d: Sum(rhs),rhsMax =  -7.77964551579915E+01  1.04269852666970E+00
(PID.TID 0000.0001)  ploadbar=  1.01091317795302E+05
 cg2d: Sum(rhs),rhsMax =  -7.75658141465699E+01  1.04548862933331E+00
(PID.TID 0000.0001)  ploadbar=  1.01091081359231E+05
 cg2d: Sum(rhs),rhsMax =  -7.73723643824410E+01  1.04775018232690E+00
(PID.TID 0000.0001)  ploadbar=  1.01090844923161E+05
 cg2d: Sum(rhs),rhsMax =  -7.72032033991241E+01  1.04964994206559E+00
(PID.TID 0000.0001)  ploadbar=  1.01090608487091E+05
 cg2d: Sum(rhs),rhsMax =  -7.70586864208591E+01  1.05117762610828E+00
(PID.TID 0000.0001)  ploadbar=  1.01090372051020E+05
 cg2d: Sum(rhs),rhsMax =  -7.68930069445462E+01  1.05306153178195E+00
(PID.TID 0000.0001)  ploadbar=  1.01089377493088E+05
 cg2d: Sum(rhs),rhsMax =  -7.67338368842681E+01  1.05492250709187E+00
(PID.TID 0000.0001)  ploadbar=  1.01088382935156E+05
 cg2d: Sum(rhs),rhsMax =  -7.65743090619334E+01  1.05685262904839E+00
(PID.TID 0000.0001)  ploadbar=  1.01087388377225E+05
 cg2d: Sum(rhs),rhsMax =  -7.63846947027337E+01  1.05926056151060E+00
(PID.TID 0000.0001)  ploadbar=  1.01086393819293E+05
 cg2d: Sum(rhs),rhsMax =  -7.61609355763679E+01  1.06220324396886E+00
(PID.TID 0000.0001)  ploadbar=  1.01085399261361E+05
 cg2d: Sum(rhs),rhsMax =  -7.59142160541819E+01  1.06552688347112E+00
(PID.TID 0000.0001)  ploadbar=  1.01084404703429E+05
 cg2d: Sum(rhs),rhsMax =  -7.56696463238413E+01  1.06877027514916E+00
(PID.TID 0000.0001)  ploadbar=  1.01083918165940E+05
 cg2d: Sum(rhs),rhsMax =  -7.54079531091707E+01  1.07220393036627E+00
(PID.TID 0000.0001)  ploadbar=  1.01083431628450E+05
 cg2d: Sum(rhs),rhsMax =  -7.51478987004616E+01  1.07556224594809E+00
(PID.TID 0000.0001)  ploadbar=  1.01082945090961E+05
 cg2d: Sum(rhs),rhsMax =  -7.48845149760369E+01  1.07891424003913E+00
(PID.TID 0000.0001)  ploadbar=  1.01082458553471E+05
 cg2d: Sum(rhs),rhsMax =  -7.46239594796748E+01  1.08216969484494E+00
(PID.TID 0000.0001)  ploadbar=  1.01081972015982E+05
 cg2d: Sum(rhs),rhsMax =  -7.43721046555251E+01  1.08523935774521E+00
(PID.TID 0000.0001)  ploadbar=  1.01081485478492E+05
 cg2d: Sum(rhs),rhsMax =  -7.41397197426331E+01  1.08808622104388E+00
(PID.TID 0000.0001)  ploadbar=  1.01080887656985E+05
 cg2d: Sum(rhs),rhsMax =  -7.39414384810403E+01  1.09048401121386E+00
(PID.TID 0000.0001)  ploadbar=  1.01080289835479E+05
 cg2d: Sum(rhs),rhsMax =  -7.37497497463393E+01  1.09282872044281E+00
(PID.TID 0000.0001)  ploadbar=  1.01079692013972E+05
 cg2d: Sum(rhs),rhsMax =  -7.35633700813562E+01  1.09513552206292E+00
(PID.TID 0000.0001)  ploadbar=  1.01079094192465E+05
 cg2d: Sum(rhs),rhsMax =  -7.33894844389951E+01  1.09729111368057E+00
(PID.TID 0000.0001)  ploadbar=  1.01078496370958E+05
 cg2d: Sum(rhs),rhsMax =  -7.32254547708991E+01  1.09932739945992E+00
(PID.TID 0000.0001)  ploadbar=  1.01077898549452E+05
 cg2d: Sum(rhs),rhsMax =  -7.30951685565821E+01  1.10082596728291E+00
(PID.TID 0000.0001)  ploadbar=  1.01078037262684E+05
 cg2d: Sum(rhs),rhsMax =  -7.29823827224686E+01  1.10202432014251E+00
(PID.TID 0000.0001)  ploadbar=  1.01078175975916E+05
 cg2d: Sum(rhs),rhsMax =  -7.28686778004524E+01  1.10319715312703E+00
(PID.TID 0000.0001)  ploadbar=  1.01078314689148E+05
 cg2d: Sum(rhs),rhsMax =  -7.27645123555925E+01  1.10418411939134E+00
(PID.TID 0000.0001)  ploadbar=  1.01078453402380E+05
 cg2d: Sum(rhs),rhsMax =  -7.26722438851214E+01  1.10494622073009E+00
(PID.TID 0000.0001)  ploadbar=  1.01078592115613E+05
 cg2d: Sum(rhs),rhsMax =  -7.25959613195914E+01  1.10541881011419E+00
(PID.TID 0000.0001)  ploadbar=  1.01078730828845E+05
 cg2d: Sum(rhs),rhsMax =  -7.25091600398655E+01  1.10611024595210E+00
(PID.TID 0000.0001)  ploadbar=  1.01077496404401E+05
 cg2d: Sum(rhs),rhsMax =  -7.24447733476175E+01  1.10651787418658E+00
(PID.TID 0000.0001)  ploadbar=  1.01076261979958E+05
 cg2d: Sum(rhs),rhsMax =  -7.23922004392493E+01  1.10680136394634E+00
(PID.TID 0000.0001)  ploadbar=  1.01075027555515E+05
 cg2d: Sum(rhs),rhsMax =  -7.23513364650598E+01  1.10695875772840E+00
(PID.TID 0000.0001)  ploadbar=  1.01073793131072E+05
 cg2d: Sum(rhs),rhsMax =  -7.23203176893490E+01  1.10701461972249E+00
(PID.TID 0000.0001)  ploadbar=  1.01072558706628E+05
 cg2d: Sum(rhs),rhsMax =  -7.22973374394256E+01  1.10699232045729E+00
(PID.TID 0000.0001)  ploadbar=  1.01071324282185E+05
 cg2d: Sum(rhs),rhsMax =  -7.22881726767786E+01  1.10676023215630E+00
(PID.TID 0000.0001)  ploadbar=  1.01071836258937E+05
 cg2d: Sum(rhs),rhsMax =  -7.22767987733042E+01  1.10656097647546E+00
(PID.TID 0000.0001)  ploadbar=  1.01072348235689E+05
 cg2d: Sum(rhs),rhsMax =  -7.22661546011809E+01  1.10634695225523E+00
(PID.TID 0000.0001)  ploadbar=  1.01072860212442E+05
 cg2d: Sum(rhs),rhsMax =  -7.22531583071482E+01  1.10616125918154E+00
(PID.TID 0000.0001)  ploadbar=  1.01073372189194E+05
 cg2d: Sum(rhs),rhsMax =  -7.22343578485337E+01  1.10605314182737E+00
(PID.TID 0000.0001)  ploadbar=  1.01073884165946E+05
 cg2d: Sum(rhs),rhsMax =  -7.22097748640329E+01  1.10601865990261E+00
(PID.TID 0000.0001)  ploadbar=  1.01074396142698E+05
 cg2d: Sum(rhs),rhsMax =  -7.21880115874866E+01  1.10597076387955E+00
(PID.TID 0000.0001)  ploadbar=  1.01076214073284E+05
 cg2d: Sum(rhs),rhsMax =  -7.21638253217972E+01  1.10598506870020E+00
(PID.TID 0000.0001)  ploadbar=  1.01078032003870E+05
 cg2d: Sum(rhs),rhsMax =  -7.21389159426783E+01  1.10603118651297E+00
(PID.TID 0000.0001)  ploadbar=  1.01079849934456E+05
 cg2d: Sum(rhs),rhsMax =  -7.21161881674802E+01  1.10605987593600E+00
(PID.TID 0000.0001)  ploadbar=  1.01081667865043E+05
 cg2d: Sum(rhs),rhsMax =  -7.20944231156680E+01  1.10608615971334E+00
(PID.TID 0000.0001)  ploadbar=  1.01083485795629E+05
 cg2d: Sum(rhs),rhsMax =  -7.20737133813986E+01  1.10610396706375E+00
(PID.TID 0000.0001)  ploadbar=  1.01085303726215E+05
 cg2d: Sum(rhs),rhsMax =  -7.20892183156034E+01  1.10555479049506E+00
(PID.TID 0000.0001)  ploadbar=  1.01085579519652E+05
 cg2d: Sum(rhs),rhsMax =  -7.21086871288289E+01  1.10493202182823E+00
(PID.TID 0000.0001)  ploadbar=  1.01085855313089E+05
 cg2d: Sum(rhs),rhsMax =  -7.21256771565577E+01  1.10433352847846E+00
(PID.TID 0000.0001)  ploadbar=  1.01086131106526E+05
 cg2d: Sum(rhs),rhsMax =  -7.21426122013557E+01  1.10372147732585E+00
(PID.TID 0000.0001)  ploadbar=  1.01086406899963E+05
 cg2d: Sum(rhs),rhsMax =  -7.21593348639507E+01  1.10309752993368E+00
(PID.TID 0000.0001)  ploadbar=  1.01086682693400E+05
 cg2d: Sum(rhs),rhsMax =  -7.21774873631622E+01  1.10243835577575E+00
(PID.TID 0000.0001)  ploadbar=  1.01086958486837E+05
 cg2d: Sum(rhs),rhsMax =  -7.21841380342744E+01  1.10200332929274E+00
(PID.TID 0000.0001)  ploadbar=  1.01087771102374E+05
 cg2d: Sum(rhs),rhsMax =  -7.22006876714408E+01  1.10146364553203E+00
(PID.TID 0000.0001)  ploadbar=  1.01088583717910E+05
 cg2d: Sum(rhs),rhsMax =  -7.22242843226832E+01  1.10086333404011E+00
(PID.TID 0000.0001)  ploadbar=  1.01089396333447E+05
 cg2d: Sum(rhs),rhsMax =  -7.22546990095738E+01  1.10020288599018E+00
(PID.TID 0000.0001)  ploadbar=  1.01090208948983E+05
 cg2d: Sum(rhs),rhsMax =  -7.22926837609967E+01  1.09946578548600E+00
(PID.TID 0000.0001)  ploadbar=  1.01091021564520E+05
 cg2d: Sum(rhs),rhsMax =  -7.23386944996786E+01  1.09864042858516E+00
(PID.TID 0000.0001)  ploadbar=  1.01091834180056E+05
 cg2d: Sum(rhs),rhsMax =  -7.23995231363225E+01  1.09757054726473E+00
(PID.TID 0000.0001)  ploadbar=  1.01091599692257E+05
 cg2d: Sum(rhs),rhsMax =  -7.24664673221716E+01  1.09638826367020E+00
(PID.TID 0000.0001)  ploadbar=  1.01091365204457E+05
 cg2d: Sum(rhs),rhsMax =  -7.25360730941830E+01  1.09514283887930E+00
(PID.TID 0000.0001)  ploadbar=  1.01091130716657E+05
 cg2d: Sum(rhs),rhsMax =  -7.26076853163536E+01  1.09383898648514E+00
(PID.TID 0000.0001)  ploadbar=  1.01090896228858E+05
 cg2d: Sum(rhs),rhsMax =  -7.26752751674259E+01  1.09256704265328E+00
(PID.TID 0000.0001)  ploadbar=  1.01090661741058E+05
 cg2d: Sum(rhs),rhsMax =  -7.27366242525680E+01  1.09135632054954E+00
(PID.TID 0000.0001)  ploadbar=  1.01090427253259E+05
 cg2d: Sum(rhs),rhsMax =  -7.27504203667980E+01  1.09086451456166E+00
(PID.TID 0000.0001)  ploadbar=  1.01090176463633E+05
 cg2d: Sum(rhs),rhsMax =  -7.27579237877178E+01  1.09046803989258E+00
(PID.TID 0000.0001)  ploadbar=  1.01089925674008E+05
 cg2d: Sum(rhs),rhsMax =  -7.27641920265184E+01  1.09009089049083E+00
(PID.TID 0000.0001)  ploadbar=  1.01089674884382E+05
 cg2d: Sum(rhs),rhsMax =  -7.27654038875469E+01  1.08978854377951E+00
(PID.TID 0000.0001)  ploadbar=  1.01089424094757E+05
 cg2d: Sum(rhs),rhsMax =  -7.27631899545451E+01  1.08953466811916E+00
(PID.TID 0000.0001)  ploadbar=  1.01089173305132E+05
 cg2d: Sum(rhs),rhsMax =  -7.27585593589639E+01  1.08930863062734E+00
(PID.TID 0000.0001)  ploadbar=  1.01088922515506E+05
 cg2d: Sum(rhs),rhsMax =  -7.25406876215946E+01  1.09223350226972E+00
(PID.TID 0000.0001)  ploadbar=  1.01088480963382E+05
 cg2d: Sum(rhs),rhsMax =  -7.19869440804704E+01  1.10023266252744E+00
(PID.TID 0000.0001)  ploadbar=  1.01088039411259E+05
 cg2d: Sum(rhs),rhsMax =  -7.13872685993359E+01  1.10901503668009E+00
(PID.TID 0000.0001)  ploadbar=  1.01087597859135E+05
 cg2d: Sum(rhs),rhsMax =  -7.08552714645595E+01  1.11682351911024E+00
(PID.TID 0000.0001)  ploadbar=  1.01087156307011E+05
 cg2d: Sum(rhs),rhsMax =  -7.03582876539038E+01  1.12413602254331E+00
(PID.TID 0000.0001)  ploadbar=  1.01086714754887E+05
 cg2d: Sum(rhs),rhsMax =  -7.00682928413511E+01  1.12815335678661E+00
(PID.TID 0000.0001)  ploadbar=  1.01086273202763E+05
 cg2d: Sum(rhs),rhsMax =  -6.96636364594937E+01  1.13411589081499E+00
(PID.TID 0000.0001)  ploadbar=  1.01087339906479E+05
 cg2d: Sum(rhs),rhsMax =  -6.91097998808375E+01  1.14265793477758E+00
(PID.TID 0000.0001)  ploadbar=  1.01088406610195E+05
 cg2d: Sum(rhs),rhsMax =  -6.83490680612764E+01  1.15487262980831E+00
(PID.TID 0000.0001)  ploadbar=  1.01089473313911E+05
 cg2d: Sum(rhs),rhsMax =  -6.72999820806787E+01  1.17241074880499E+00
(PID.TID 0000.0001)  ploadbar=  1.01090540017628E+05
 cg2d: Sum(rhs),rhsMax =  -6.59424411361813E+01  1.19611407698650E+00
(PID.TID 0000.0001)  ploadbar=  1.01091606721344E+05
 cg2d: Sum(rhs),rhsMax =  -6.43199388940291E+01  1.22587737676940E+00
(PID.TID 0000.0001)  ploadbar=  1.01092673425060E+05
 cg2d: Sum(rhs),rhsMax =  -6.24780699934997E+01  1.26157721635750E+00
(PID.TID 0000.0001)  ploadbar=  1.01093439800319E+05
 cg2d: Sum(rhs),rhsMax =  -6.06799350048168E+01  1.29848731855983E+00
(PID.TID 0000.0001)  ploadbar=  1.01094206175578E+05
 cg2d: Sum(rhs),rhsMax =  -5.90373423051126E+01  1.33409798298777E+00
(PID.TID 0000.0001)  ploadbar=  1.01094972550837E+05
 cg2d: Sum(rhs),rhsMax =  -5.75948554102968E+01  1.36694486184280E+00
(PID.TID 0000.0001)  ploadbar=  1.01095738926096E+05
 cg2d: Sum(rhs),rhsMax =  -5.63665161781975E+01  1.39611379116851E+00
(PID.TID 0000.0001)  ploadbar=  1.01096505301355E+05
 cg2d: Sum(rhs),rhsMax =  -5.55066436465424E+01  1.41706640057536E+00
(PID.TID 0000.0001)  ploadbar=  1.01097271676614E+05
 cg2d: Sum(rhs),rhsMax =  -5.48017123609989E+01  1.43465024953370E+00
(PID.TID 0000.0001)  ploadbar=  1.01098038292916E+05
 cg2d: Sum(rhs),rhsMax =  -5.43544627031785E+01  1.44584285082393E+00
(PID.TID 0000.0001)  ploadbar=  1.01098804909217E+05
 cg2d: Sum(rhs),rhsMax =  -5.42714790715288E+01  1.44747411703358E+00
(PID.TID 0000.0001)  ploadbar=  1.01099571525519E+05
 cg2d: Sum(rhs),rhsMax =  -5.45215370178495E+01  1.44029027519269E+00
(PID.TID 0000.0001)  ploadbar=  1.01100338141820E+05
 cg2d: Sum(rhs),rhsMax =  -5.50328383701819E+01  1.42639546245173E+00
(PID.TID 0000.0001)  ploadbar=  1.01101104758121E+05
 cg2d: Sum(rhs),rhsMax =  -5.55322350479020E+01  1.41307834718419E+00
(PID.TID 0000.0001)  ploadbar=  1.01101871374423E+05
 cg2d: Sum(rhs),rhsMax =  -5.60082452316635E+01  1.40058834446045E+00
(PID.TID 0000.0001)  ploadbar=  1.01103290491945E+05
 cg2d: Sum(rhs),rhsMax =  -5.64781161105971E+01  1.38846233088344E+00
(PID.TID 0000.0001)  ploadbar=  1.01104709609467E+05
 cg2d: Sum(rhs),rhsMax =  -5.69521492036839E+01  1.37643581384436E+00
(PID.TID 0000.0001)  ploadbar=  1.01106128726988E+05
 cg2d: Sum(rhs),rhsMax =  -5.74221997295830E+01  1.36470075123255E+00
(PID.TID 0000.0001)  ploadbar=  1.01107547844510E+05
 cg2d: Sum(rhs),rhsMax =  -5.78862832297906E+01  1.35329223347360E+00
(PID.TID 0000.0001)  ploadbar=  1.01108966962032E+05
 cg2d: Sum(rhs),rhsMax =  -5.83809159989414E+01  1.34135980528954E+00
(PID.TID 0000.0001)  ploadbar=  1.01110386079554E+05
 cg2d: Sum(rhs),rhsMax =  -5.88177002041191E+01  1.33100204040999E+00
(PID.TID 0000.0001)  ploadbar=  1.01110465577970E+05
 cg2d: Sum(rhs),rhsMax =  -5.92287714313856E+01  1.32143353944489E+00
(PID.TID 0000.0001)  ploadbar=  1.01110545076385E+05
 cg2d: Sum(rhs),rhsMax =  -5.96833064387914E+01  1.31110304455615E+00
(PID.TID 0000.0001)  ploadbar=  1.01110624574801E+05
 cg2d: Sum(rhs),rhsMax =  -5.89653307608334E+01  1.32685727907295E+00
(PID.TID 0000.0001)  ploadbar=  1.01110704073217E+05
 cg2d: Sum(rhs),rhsMax =  -5.68893602882349E+01  1.37511434480481E+00
(PID.TID 0000.0001)  ploadbar=  1.01110783571632E+05
 cg2d: Sum(rhs),rhsMax =  -5.49535504092173E+01  1.42343385151216E+00
(PID.TID 0000.0001)  ploadbar=  1.01110863070048E+05
 cg2d: Sum(rhs),rhsMax =  -5.33272189049525E+01  1.46667797540598E+00
(PID.TID 0000.0001)  ploadbar=  1.01111010929829E+05
 cg2d: Sum(rhs),rhsMax =  -5.20273350516081E+01  1.50310045814156E+00
(PID.TID 0000.0001)  ploadbar=  1.01111158789610E+05
 cg2d: Sum(rhs),rhsMax =  -5.10683197904646E+01  1.53104032569327E+00
(PID.TID 0000.0001)  ploadbar=  1.01111306649391E+05
 cg2d: Sum(rhs),rhsMax =  -5.04742943623528E+01  1.54870693617563E+00
(PID.TID 0000.0001)  ploadbar=  1.01111454509172E+05
 cg2d: Sum(rhs),rhsMax =  -5.02720029621280E+01  1.55451740599311E+00
(PID.TID 0000.0001)  ploadbar=  1.01111602368953E+05
 cg2d: Sum(rhs),rhsMax =  -5.04825936777999E+01  1.54753854093999E+00
(PID.TID 0000.0001)  ploadbar=  1.01111750228734E+05
 cg2d: Sum(rhs),rhsMax =  -5.10428214611059E+01  1.53008497919562E+00
(PID.TID 0000.0001)  ploadbar=  1.01113944626248E+05
 cg2d: Sum(rhs),rhsMax =  -5.18455741253163E+01  1.50594871287971E+00
(PID.TID 0000.0001)  ploadbar=  1.01116139023763E+05
 cg2d: Sum(rhs),rhsMax =  -5.28049233560163E+01  1.47816287843163E+00
(PID.TID 0000.0001)  ploadbar=  1.01118333421277E+05
 cg2d: Sum(rhs),rhsMax =  -5.38724519864584E+01  1.44846077293982E+00
(PID.TID 0000.0001)  ploadbar=  1.01120527818792E+05
 cg2d: Sum(rhs),rhsMax =  -5.50181006380353E+01  1.41789664770538E+00
(PID.TID 0000.0001)  ploadbar=  1.01122722216306E+05
 cg2d: Sum(rhs),rhsMax =  -5.62367921215264E+01  1.38676858179493E+00
(PID.TID 0000.0001)  ploadbar=  1.01124916613820E+05
 cg2d: Sum(rhs),rhsMax =  -5.75008217686108E+01  1.35588252597924E+00
(PID.TID 0000.0001)  ploadbar=  1.01125517273692E+05
 cg2d: Sum(rhs),rhsMax =  -5.88295330149390E+01  1.32485564178341E+00
(PID.TID 0000.0001)  ploadbar=  1.01126117933564E+05
 cg2d: Sum(rhs),rhsMax =  -6.02389974344343E+01  1.29344865861856E+00
(PID.TID 0000.0001)  ploadbar=  1.01126718593436E+05
 cg2d: Sum(rhs),rhsMax =  -6.16255776084413E+01  1.26393141543094E+00
(PID.TID 0000.0001)  ploadbar=  1.01127319253308E+05
 cg2d: Sum(rhs),rhsMax =  -6.29356922244652E+01  1.23719773643080E+00
(PID.TID 0000.0001)  ploadbar=  1.01127919913180E+05
 cg2d: Sum(rhs),rhsMax =  -6.42513474583537E+01  1.21143113246314E+00
(PID.TID 0000.0001)  ploadbar=  1.01128520573052E+05
 cg2d: Sum(rhs),rhsMax =  -6.55945868440858E+01  1.18625272902159E+00
(PID.TID 0000.0001)  ploadbar=  1.01127907207810E+05
 cg2d: Sum(rhs),rhsMax =  -6.69486830742783E+01  1.16194580373212E+00
(PID.TID 0000.0001)  ploadbar=  1.01127293842568E+05
 cg2d: Sum(rhs),rhsMax =  -6.79508765830222E+01  1.14454335984099E+00
(PID.TID 0000.0001)  ploadbar=  1.01126680477326E+05
 cg2d: Sum(rhs),rhsMax =  -6.88491246169779E+01  1.12938607134031E+00
(PID.TID 0000.0001)  ploadbar=  1.01126067112084E+05
 cg2d: Sum(rhs),rhsMax =  -6.98134822624817E+01  1.11359754610423E+00
(PID.TID 0000.0001)  ploadbar=  1.01125453746843E+05
 cg2d: Sum(rhs),rhsMax =  -7.06920373009790E+01  1.09959823300724E+00
(PID.TID 0000.0001)  ploadbar=  1.01124840381601E+05
 cg2d: Sum(rhs),rhsMax =  -7.06668121370319E+01  1.09981705800278E+00
(PID.TID 0000.0001)  ploadbar=  1.01125355523469E+05
 cg2d: Sum(rhs),rhsMax =  -7.06480070647031E+01  1.09991700883962E+00
(PID.TID 0000.0001)  ploadbar=  1.01125870665337E+05
 cg2d: Sum(rhs),rhsMax =  -7.06341320253495E+01  1.09991523050181E+00
(PID.TID 0000.0001)  ploadbar=  1.01126385807205E+05
 cg2d: Sum(rhs),rhsMax =  -7.06263187232201E+01  1.09978849366516E+00
(PID.TID 0000.0001)  ploadbar=  1.01126900949074E+05
 cg2d: Sum(rhs),rhsMax =  -7.06254308648906E+01  1.09952039535507E+00
(PID.TID 0000.0001)  ploadbar=  1.01127416090942E+05
 cg2d: Sum(rhs),rhsMax =  -7.06363378409051E+01  1.09903564060176E+00
(PID.TID 0000.0001)  ploadbar=  1.01127931232810E+05
 cg2d: Sum(rhs),rhsMax =  -7.06418565116334E+01  1.09867537120191E+00
(PID.TID 0000.0001)  ploadbar=  1.01128341997165E+05
 cg2d: Sum(rhs),rhsMax =  -7.06771947433980E+01  1.09788830421437E+00
(PID.TID 0000.0001)  ploadbar=  1.01128752761520E+05
 cg2d: Sum(rhs),rhsMax =  -7.07411189931614E+01  1.09668917488073E+00
(PID.TID 0000.0001)  ploadbar=  1.01129163525874E+05
 cg2d: Sum(rhs),rhsMax =  -7.08358054621001E+01  1.09504243518417E+00
(PID.TID 0000.0001)  ploadbar=  1.01129574290229E+05
 cg2d: Sum(rhs),rhsMax =  -7.09643242150747E+01  1.09290028902356E+00
(PID.TID 0000.0001)  ploadbar=  1.01129985054584E+05
 cg2d: Sum(rhs),rhsMax =  -7.11280657100998E+01  1.09024242821536E+00
(PID.TID 0000.0001)  ploadbar=  1.01130395818938E+05
 cg2d: Sum(rhs),rhsMax =  -7.13184359628073E+01  1.08717460514216E+00
(PID.TID 0000.0001)  ploadbar=  1.01130181135977E+05
 cg2d: Sum(rhs),rhsMax =  -7.15420263741622E+01  1.08360132118812E+00
(PID.TID 0000.0001)  ploadbar=  1.01129966453015E+05
 cg2d: Sum(rhs),rhsMax =  -7.17988616967292E+01  1.07953112821428E+00
(PID.TID 0000.0001)  ploadbar=  1.01129751770054E+05
 cg2d: Sum(rhs),rhsMax =  -7.20899890587656E+01  1.07495764188972E+00
(PID.TID 0000.0001)  ploadbar=  1.01129537087092E+05
 cg2d: Sum(rhs),rhsMax =  -7.24139383228905E+01  1.06991399755414E+00
(PID.TID 0000.0001)  ploadbar=  1.01129322404131E+05
 cg2d: Sum(rhs),rhsMax =  -7.27698673697477E+01  1.06442751986597E+00
(PID.TID 0000.0001)  ploadbar=  1.01129107721169E+05
 cg2d: Sum(rhs),rhsMax =  -7.33856145329445E+01  1.05528713385251E+00
(PID.TID 0000.0001)  ploadbar=  1.01130053025957E+05
 cg2d: Sum(rhs),rhsMax =  -7.40240267793698E+01  1.04601650082541E+00
(PID.TID 0000.0001)  ploadbar=  1.01130998330745E+05
 cg2d: Sum(rhs),rhsMax =  -7.46855708712329E+01  1.03662048031149E+00
(PID.TID 0000.0001)  ploadbar=  1.01131943635532E+05
 cg2d: Sum(rhs),rhsMax =  -7.53623482353663E+01  1.02721535156883E+00
(PID.TID 0000.0001)  ploadbar=  1.01132888940320E+05
 cg2d: Sum(rhs),rhsMax =  -7.60501112593149E+01  1.01785961055617E+00
(PID.TID 0000.0001)  ploadbar=  1.01133834245108E+05
 cg2d: Sum(rhs),rhsMax =  -7.66716082278484E+01  1.00956627450899E+00
(PID.TID 0000.0001)  ploadbar=  1.01134779549896E+05
 cg2d: Sum(rhs),rhsMax =  -7.66110344026829E+01  1.01029707661700E+00
(PID.TID 0000.0001)  ploadbar=  1.01134600024824E+05
 cg2d: Sum(rhs),rhsMax =  -7.65467520248703E+01  1.01105284865465E+00
(PID.TID 0000.0001)  ploadbar=  1.01134420499751E+05
 cg2d: Sum(rhs),rhsMax =  -7.64814463863457E+01  1.01179656311840E+00
(PID.TID 0000.0001)  ploadbar=  1.01134240974679E+05
 cg2d: Sum(rhs),rhsMax =  -7.64106859793748E+01  1.01258541339795E+00
(PID.TID 0000.0001)  ploadbar=  1.01134061449607E+05
 cg2d: Sum(rhs),rhsMax =  -7.63350586543373E+01  1.01340896627889E+00
(PID.TID 0000.0001)  ploadbar=  1.01133881924535E+05
 cg2d: Sum(rhs),rhsMax =  -7.62550151843394E+01  1.01425792442502E+00
(PID.TID 0000.0001)  ploadbar=  1.01133702399462E+05
 cg2d: Sum(rhs),rhsMax =  -7.61438673608768E+01  1.01554363096962E+00
(PID.TID 0000.0001)  ploadbar=  1.01133491020908E+05
 cg2d: Sum(rhs),rhsMax =  -7.60376399994728E+01  1.01678452175993E+00
(PID.TID 0000.0001)  ploadbar=  1.01133279642353E+05
 cg2d: Sum(rhs),rhsMax =  -7.59287937021936E+01  1.01807523109989E+00
(PID.TID 0000.0001)  ploadbar=  1.01133068263799E+05
 cg2d: Sum(rhs),rhsMax =  -7.58206842239499E+01  1.01936466093391E+00
(PID.TID 0000.0001)  ploadbar=  1.01132856885244E+05
 cg2d: Sum(rhs),rhsMax =  -7.57155076693938E+01  1.02061865536797E+00
(PID.TID 0000.0001)  ploadbar=  1.01132645506689E+05
 cg2d: Sum(rhs),rhsMax =  -7.56119406354345E+01  1.02184667890853E+00
(PID.TID 0000.0001)  ploadbar=  1.01132434128135E+05
 cg2d: Sum(rhs),rhsMax =  -7.55666073583462E+01  1.02230046273239E+00
(PID.TID 0000.0001)  ploadbar=  1.01131999398357E+05
 cg2d: Sum(rhs),rhsMax =  -7.55169797850361E+01  1.02282274954643E+00
(PID.TID 0000.0001)  ploadbar=  1.01131564668579E+05
 cg2d: Sum(rhs),rhsMax =  -7.54701450794038E+01  1.02331563704480E+00
(PID.TID 0000.0001)  ploadbar=  1.01131129938801E+05
 cg2d: Sum(rhs),rhsMax =  -7.52955837789864E+01  1.02555245352591E+00
(PID.TID 0000.0001)  ploadbar=  1.01130695209023E+05
 cg2d: Sum(rhs),rhsMax =  -7.51748028481743E+01  1.02706950557893E+00
(PID.TID 0000.0001)  ploadbar=  1.01130260479245E+05
 cg2d: Sum(rhs),rhsMax =  -7.51782917979543E+01  1.02689832921114E+00
(PID.TID 0000.0001)  ploadbar=  1.01129825749467E+05
 cg2d: Sum(rhs),rhsMax =  -7.52659423718696E+01  1.02563175240162E+00
(PID.TID 0000.0001)  ploadbar=  1.01129134438497E+05
 cg2d: Sum(rhs),rhsMax =  -7.52321184294234E+01  1.02606847859857E+00
(PID.TID 0000.0001)  ploadbar=  1.01128443127526E+05
 cg2d: Sum(rhs),rhsMax =  -7.52216605578805E+01  1.02623012714620E+00
(PID.TID 0000.0001)  ploadbar=  1.01127751816556E+05
 cg2d: Sum(rhs),rhsMax =  -7.52309436509465E+01  1.02616234490415E+00
(PID.TID 0000.0001)  ploadbar=  1.01127060505585E+05
 cg2d: Sum(rhs),rhsMax =  -7.52636322969893E+01  1.02581283691773E+00
(PID.TID 0000.0001)  ploadbar=  1.01126369194615E+05
 cg2d: Sum(rhs),rhsMax =  -7.53166165880519E+01  1.02521768759205E+00
(PID.TID 0000.0001)  ploadbar=  1.01125677883644E+05
 cg2d: Sum(rhs),rhsMax =  -7.53661088018375E+01  1.02462804503854E+00
(PID.TID 0000.0001)  ploadbar=  1.01124821086462E+05
 cg2d: Sum(rhs),rhsMax =  -7.54482193325319E+01  1.02355237054024E+00
(PID.TID 0000.0001)  ploadbar=  1.01123964289280E+05
 cg2d: Sum(rhs),rhsMax =  -7.55455985307587E+01  1.02222653612214E+00
(PID.TID 0000.0001)  ploadbar=  1.01123107492097E+05
 cg2d: Sum(rhs),rhsMax =  -7.56447573016229E+01  1.02083165317224E+00
(PID.TID 0000.0001)  ploadbar=  1.01122250694915E+05
 cg2d: Sum(rhs),rhsMax =  -7.57334849436286E+01  1.01952925050110E+00
(PID.TID 0000.0001)  ploadbar=  1.01121393897733E+05
 cg2d: Sum(rhs),rhsMax =  -7.57972321587060E+01  1.01851150611309E+00
(PID.TID 0000.0001)  ploadbar=  1.01120537100551E+05
 cg2d: Sum(rhs),rhsMax =  -7.58044482600760E+01  1.01825764802894E+00
(PID.TID 0000.0001)  ploadbar=  1.01118958240237E+05
 cg2d: Sum(rhs),rhsMax =  -7.57251087958213E+01  1.01916629517317E+00
(PID.TID 0000.0001)  ploadbar=  1.01117379379923E+05
 cg2d: Sum(rhs),rhsMax =  -7.55509107426991E+01  1.02135305972747E+00
(PID.TID 0000.0001)  ploadbar=  1.01115800519610E+05
 cg2d: Sum(rhs),rhsMax =  -7.53325077946444E+01  1.02414230853553E+00
(PID.TID 0000.0001)  ploadbar=  1.01114221659296E+05
 cg2d: Sum(rhs),rhsMax =  -7.50975585113148E+01  1.02716335355229E+00
(PID.TID 0000.0001)  ploadbar=  1.01112642798982E+05
 cg2d: Sum(rhs),rhsMax =  -7.48697995442413E+01  1.03009258557756E+00
(PID.TID 0000.0001)  ploadbar=  1.01111063938668E+05
 cg2d: Sum(rhs),rhsMax =  -7.49096862016169E+01  1.02932535654725E+00
(PID.TID 0000.0001)  ploadbar=  1.01110649286739E+05
 cg2d: Sum(rhs),rhsMax =  -7.49636518478103E+01  1.02834291533793E+00
(PID.TID 0000.0001)  ploadbar=  1.01110234634809E+05
 cg2d: Sum(rhs),rhsMax =  -7.50324437049950E+01  1.02713398060703E+00
(PID.TID 0000.0001)  ploadbar=  1.01109819982880E+05
 cg2d: Sum(rhs),rhsMax =  -7.51231687456768E+01  1.02560160417849E+00
(PID.TID 0000.0001)  ploadbar=  1.01109405330950E+05
 cg2d: Sum(rhs),rhsMax =  -7.52257135981415E+01  1.02388456524378E+00
(PID.TID 0000.0001)  ploadbar=  1.01108990679021E+05
 cg2d: Sum(rhs),rhsMax =  -7.53497088688531E+01  1.02185742865780E+00
(PID.TID 0000.0001)  ploadbar=  1.01108576027092E+05
 cg2d: Sum(rhs),rhsMax =  -7.45801910529437E+01  1.03208155916638E+00
(PID.TID 0000.0001)  ploadbar=  1.01108514453760E+05
 cg2d: Sum(rhs),rhsMax =  -7.25285326110843E+01  1.06096914678171E+00
(PID.TID 0000.0001)  ploadbar=  1.01108452880428E+05
 cg2d: Sum(rhs),rhsMax =  -7.04570010348741E+01  1.09186566225836E+00
(PID.TID 0000.0001)  ploadbar=  1.01108391307096E+05
 cg2d: Sum(rhs),rhsMax =  -6.83650847308855E+01  1.12498787905373E+00
(PID.TID 0000.0001)  ploadbar=  1.01108329733764E+05
 cg2d: Sum(rhs),rhsMax =  -6.62820112858026E+01  1.16006407091513E+00
(PID.TID 0000.0001)  ploadbar=  1.01108268160432E+05
 cg2d: Sum(rhs),rhsMax =  -6.42174992690338E+01  1.19708254321325E+00
(PID.TID 0000.0001)  ploadbar=  1.01108206587100E+05
 cg2d: Sum(rhs),rhsMax =  -6.23625457286248E+01  1.23240054735096E+00
(PID.TID 0000.0001)  ploadbar=  1.01107772021316E+05
 cg2d: Sum(rhs),rhsMax =  -6.07122226897322E+01  1.26559493839791E+00
(PID.TID 0000.0001)  ploadbar=  1.01107337455531E+05
 cg2d: Sum(rhs),rhsMax =  -5.93297318296477E+01  1.29476089498858E+00
(PID.TID 0000.0001)  ploadbar=  1.01106902889746E+05
 cg2d: Sum(rhs),rhsMax =  -5.82465288796297E+01  1.31849268366432E+00
(PID.TID 0000.0001)  ploadbar=  1.01106468323961E+05
 cg2d: Sum(rhs),rhsMax =  -5.74529814802545E+01  1.33633385127827E+00
(PID.TID 0000.0001)  ploadbar=  1.01106033758176E+05
 cg2d: Sum(rhs),rhsMax =  -5.74312899641309E+01  1.33644571853757E+00
(PID.TID 0000.0001)  ploadbar=  1.01105599192391E+05
 cg2d: Sum(rhs),rhsMax =  -5.77515014503047E+01  1.32867095373884E+00
(PID.TID 0000.0001)  ploadbar=  1.01105855250403E+05
 cg2d: Sum(rhs),rhsMax =  -5.81280402203278E+01  1.31972463571236E+00
(PID.TID 0000.0001)  ploadbar=  1.01106111308415E+05
 cg2d: Sum(rhs),rhsMax =  -5.85490469554870E+01  1.30991521596327E+00
(PID.TID 0000.0001)  ploadbar=  1.01106367366426E+05
 cg2d: Sum(rhs),rhsMax =  -5.90433081687910E+01  1.29864415354443E+00
(PID.TID 0000.0001)  ploadbar=  1.01106623424438E+05
 cg2d: Sum(rhs),rhsMax =  -5.96243097242139E+01  1.28569266990764E+00
(PID.TID 0000.0001)  ploadbar=  1.01106879482449E+05
 cg2d: Sum(rhs),rhsMax =  -6.03021533478803E+01  1.27094809428073E+00
(PID.TID 0000.0001)  ploadbar=  1.01107135540461E+05
 cg2d: Sum(rhs),rhsMax =  -6.11013726399022E+01  1.25402441696634E+00
(PID.TID 0000.0001)  ploadbar=  1.01107351185738E+05
 cg2d: Sum(rhs),rhsMax =  -6.19978484220086E+01  1.23558413276293E+00
(PID.TID 0000.0001)  ploadbar=  1.01107566831015E+05
 cg2d: Sum(rhs),rhsMax =  -6.29877779808532E+01  1.21584861762901E+00
(PID.TID 0000.0001)  ploadbar=  1.01107782476292E+05
 cg2d: Sum(rhs),rhsMax =  -6.40638204624264E+01  1.19509976256034E+00
(PID.TID 0000.0001)  ploadbar=  1.01107998121569E+05
 cg2d: Sum(rhs),rhsMax =  -6.52070087299927E+01  1.17381025314168E+00
(PID.TID 0000.0001)  ploadbar=  1.01108213766846E+05
 cg2d: Sum(rhs),rhsMax =  -6.64015027751219E+01  1.15234574262665E+00
(PID.TID 0000.0001)  ploadbar=  1.01108429412122E+05
 cg2d: Sum(rhs),rhsMax =  -6.77407623399237E+01  1.12926274717122E+00
(PID.TID 0000.0001)  ploadbar=  1.01109037645364E+05
 cg2d: Sum(rhs),rhsMax =  -6.87322605672257E+01  1.11271248679822E+00
(PID.TID 0000.0001)  ploadbar=  1.01109645878607E+05
 cg2d: Sum(rhs),rhsMax =  -6.82286073419740E+01  1.12069883640778E+00
(PID.TID 0000.0001)  ploadbar=  1.01110254111849E+05
 cg2d: Sum(rhs),rhsMax =  -6.77598735594217E+01  1.12825544520894E+00
(PID.TID 0000.0001)  ploadbar=  1.01110862345091E+05
 cg2d: Sum(rhs),rhsMax =  -6.73367786287459E+01  1.13517880587822E+00
(PID.TID 0000.0001)  ploadbar=  1.01111470578333E+05
 cg2d: Sum(rhs),rhsMax =  -6.69631888767953E+01  1.14137142952075E+00
(PID.TID 0000.0001)  ploadbar=  1.01112078811575E+05
 cg2d: Sum(rhs),rhsMax =  -6.66632415814376E+01  1.14635223405766E+00
(PID.TID 0000.0001)  ploadbar=  1.01113022071624E+05
 cg2d: Sum(rhs),rhsMax =  -6.64013177216320E+01  1.15070040847302E+00
(PID.TID 0000.0001)  ploadbar=  1.01113965331674E+05
 cg2d: Sum(rhs),rhsMax =  -6.61580298838928E+01  1.15473621471833E+00
(PID.TID 0000.0001)  ploadbar=  1.01114908591723E+05
 cg2d: Sum(rhs),rhsMax =  -6.59367558790708E+01  1.15839019900002E+00
(PID.TID 0000.0001)  ploadbar=  1.01115851851772E+05
 cg2d: Sum(rhs),rhsMax =  -6.57319150405629E+01  1.16175089567176E+00
(PID.TID 0000.0001)  ploadbar=  1.01116795111822E+05
 cg2d: Sum(rhs),rhsMax =  -6.55399020743893E+01  1.16487418742687E+00
(PID.TID 0000.0001)  ploadbar=  1.01117738371871E+05
 cg2d: Sum(rhs),rhsMax =  -6.54096921669943E+01  1.16690860368427E+00
(PID.TID 0000.0001)  ploadbar=  1.01120157273323E+05
 cg2d: Sum(rhs),rhsMax =  -6.52835025882887E+01  1.16887428075560E+00
(PID.TID 0000.0001)  ploadbar=  1.01122576174774E+05
 cg2d: Sum(rhs),rhsMax =  -6.51536153340739E+01  1.17090500864291E+00
(PID.TID 0000.0001)  ploadbar=  1.01124995076226E+05
 cg2d: Sum(rhs),rhsMax =  -6.50264931194912E+01  1.17288121919615E+00
(PID.TID 0000.0001)  ploadbar=  1.01127413977677E+05
 cg2d: Sum(rhs),rhsMax =  -6.49008710272540E+01  1.17482163029213E+00
(PID.TID 0000.0001)  ploadbar=  1.01129832879129E+05
 cg2d: Sum(rhs),rhsMax =  -6.47826206477247E+01  1.17661429419857E+00
(PID.TID 0000.0001)  ploadbar=  1.01132251780581E+05
 cg2d: Sum(rhs),rhsMax =  -6.45863827912857E+01  1.17982952544872E+00
(PID.TID 0000.0001)  ploadbar=  1.01132622184965E+05
 cg2d: Sum(rhs),rhsMax =  -6.43805011226532E+01  1.18323329794413E+00
(PID.TID 0000.0001)  ploadbar=  1.01132992589348E+05
 cg2d: Sum(rhs),rhsMax =  -6.41890223561338E+01  1.18638173739704E+00
(PID.TID 0000.0001)  ploadbar=  1.01133362993732E+05
 cg2d: Sum(rhs),rhsMax =  -6.40048463839496E+01  1.18940099897860E+00
(PID.TID 0000.0001)  ploadbar=  1.01133733398116E+05
 cg2d: Sum(rhs),rhsMax =  -6.38269185302770E+01  1.19230726111579E+00
(PID.TID 0000.0001)  ploadbar=  1.01134103802500E+05
 cg2d: Sum(rhs),rhsMax =  -6.36577442293662E+01  1.19505204047939E+00
(PID.TID 0000.0001)  ploadbar=  1.01134474206884E+05
 cg2d: Sum(rhs),rhsMax =  -6.35726051269142E+01  1.19627650438379E+00
(PID.TID 0000.0001)  ploadbar=  1.01134225448527E+05
 cg2d: Sum(rhs),rhsMax =  -6.34661165820015E+01  1.19794994430184E+00
(PID.TID 0000.0001)  ploadbar=  1.01133976690171E+05
 cg2d: Sum(rhs),rhsMax =  -6.33167318845696E+01  1.20048337580664E+00
(PID.TID 0000.0001)  ploadbar=  1.01133727931814E+05
 cg2d: Sum(rhs),rhsMax =  -6.32040946732190E+01  1.20236946699787E+00
(PID.TID 0000.0001)  ploadbar=  1.01133479173457E+05
 cg2d: Sum(rhs),rhsMax =  -6.31237793010502E+01  1.20368140592331E+00
(PID.TID 0000.0001)  ploadbar=  1.01133230415100E+05
 cg2d: Sum(rhs),rhsMax =  -6.30721468037374E+01  1.20447602323107E+00
(PID.TID 0000.0001)  ploadbar=  1.01132981656743E+05
 cg2d: Sum(rhs),rhsMax =  -6.30506680303432E+01  1.20470936462757E+00
(PID.TID 0000.0001)  ploadbar=  1.01133213362912E+05
 cg2d: Sum(rhs),rhsMax =  -6.30244890126502E+01  1.20504085444197E+00
(PID.TID 0000.0001)  ploadbar=  1.01133445069081E+05
 cg2d: Sum(rhs),rhsMax =  -6.29920069655378E+01  1.20549545306377E+00
(PID.TID 0000.0001)  ploadbar=  1.01133676775250E+05
 cg2d: Sum(rhs),rhsMax =  -6.29535493490817E+01  1.20606586053016E+00
(PID.TID 0000.0001)  ploadbar=  1.01133908481419E+05
 cg2d: Sum(rhs),rhsMax =  -6.29084363540125E+01  1.20676217229578E+00
(PID.TID 0000.0001)  ploadbar=  1.01134140187588E+05
 cg2d: Sum(rhs),rhsMax =  -6.28570454463480E+01  1.20757336321286E+00
(PID.TID 0000.0001)  ploadbar=  1.01134371893757E+05
 cg2d: Sum(rhs),rhsMax =  -6.28195327465463E+01  1.20813646274127E+00
(PID.TID 0000.0001)  ploadbar=  1.01134096444280E+05
 cg2d: Sum(rhs),rhsMax =  -6.27614091000742E+01  1.20910718988022E+00
(PID.TID 0000.0001)  ploadbar=  1.01133820994804E+05
 cg2d: Sum(rhs),rhsMax =  -6.26833760381037E+01  1.21046816446151E+00
(PID.TID 0000.0001)  ploadbar=  1.01133545545328E+05
 cg2d: Sum(rhs),rhsMax =  -6.25854861612589E+01  1.21221565051001E+00
(PID.TID 0000.0001)  ploadbar=  1.01133270095852E+05
 cg2d: Sum(rhs),rhsMax =  -6.24802290731258E+01  1.21410501475945E+00
(PID.TID 0000.0001)  ploadbar=  1.01132994646375E+05
 cg2d: Sum(rhs),rhsMax =  -6.23652074439660E+01  1.21617865323631E+00
(PID.TID 0000.0001)  ploadbar=  1.01132719196899E+05
 cg2d: Sum(rhs),rhsMax =  -6.22495234598738E+01  1.21825816112446E+00
(PID.TID 0000.0001)  ploadbar=  1.01132289180700E+05
 cg2d: Sum(rhs),rhsMax =  -6.21156754618225E+01  1.22068405747819E+00
(PID.TID 0000.0001)  ploadbar=  1.01131859164502E+05
 cg2d: Sum(rhs),rhsMax =  -6.19597710401057E+01  1.22353206688634E+00
(PID.TID 0000.0001)  ploadbar=  1.01131429148303E+05
 cg2d: Sum(rhs),rhsMax =  -6.17246315429221E+01  1.22794025788220E+00
(PID.TID 0000.0001)  ploadbar=  1.01130999132104E+05
 cg2d: Sum(rhs),rhsMax =  -6.15121976893550E+01  1.23189662589462E+00
(PID.TID 0000.0001)  ploadbar=  1.01130569115906E+05
 cg2d: Sum(rhs),rhsMax =  -6.13260626097956E+01  1.23531991659486E+00
(PID.TID 0000.0001)  ploadbar=  1.01130139099707E+05
 cg2d: Sum(rhs),rhsMax =  -6.02459512923178E+01  1.25718030085085E+00
(PID.TID 0000.0001)  ploadbar=  1.01130483979560E+05
 cg2d: Sum(rhs),rhsMax =  -5.92454221871205E+01  1.27815042767980E+00
(PID.TID 0000.0001)  ploadbar=  1.01130828859414E+05
 cg2d: Sum(rhs),rhsMax =  -5.83634347637784E+01  1.29723065228556E+00
(PID.TID 0000.0001)  ploadbar=  1.01131173739267E+05
 cg2d: Sum(rhs),rhsMax =  -5.75881854006516E+01  1.31447970551969E+00
(PID.TID 0000.0001)  ploadbar=  1.01131518619120E+05
 cg2d: Sum(rhs),rhsMax =  -5.68955158025843E+01  1.33028475653235E+00
(PID.TID 0000.0001)  ploadbar=  1.01131863498974E+05
 cg2d: Sum(rhs),rhsMax =  -5.62750359221156E+01  1.34476034169816E+00
(PID.TID 0000.0001)  ploadbar=  1.01132208378827E+05
 cg2d: Sum(rhs),rhsMax =  -5.57621357950169E+01  1.35691131401374E+00
(PID.TID 0000.0001)  ploadbar=  1.01132153548016E+05
 cg2d: Sum(rhs),rhsMax =  -5.53163415001189E+01  1.36759392930185E+00
(PID.TID 0000.0001)  ploadbar=  1.01132098717205E+05
 cg2d: Sum(rhs),rhsMax =  -5.49368940663032E+01  1.37675205808013E+00
(PID.TID 0000.0001)  ploadbar=  1.01132043886394E+05
 cg2d: Sum(rhs),rhsMax =  -5.46205121162200E+01  1.38440264820713E+00
(PID.TID 0000.0001)  ploadbar=  1.01131989055583E+05
 cg2d: Sum(rhs),rhsMax =  -5.43663107861724E+01  1.39051038284860E+00
(PID.TID 0000.0001)  ploadbar=  1.01131934224772E+05
 cg2d: Sum(rhs),rhsMax =  -5.41735637578350E+01  1.39504598277737E+00
(PID.TID 0000.0001)  ploadbar=  1.01131879393961E+05
 cg2d: Sum(rhs),rhsMax =  -5.40262756352657E+01  1.39845627218989E+00
(PID.TID 0000.0001)  ploadbar=  1.01131611986170E+05
 cg2d: Sum(rhs),rhsMax =  -5.38809403724261E+01  1.40184861722966E+00
(PID.TID 0000.0001)  ploadbar=  1.01131344578379E+05
 cg2d: Sum(rhs),rhsMax =  -5.37332289421178E+01  1.40532961556947E+00
(PID.TID 0000.0001)  ploadbar=  1.01131077170589E+05
 cg2d: Sum(rhs),rhsMax =  -5.36440894658809E+01  1.40729768425545E+00
(PID.TID 0000.0001)  ploadbar=  1.01130809762798E+05
 cg2d: Sum(rhs),rhsMax =  -5.36933742669436E+01  1.40563829923608E+00
(PID.TID 0000.0001)  ploadbar=  1.01130542355008E+05
 cg2d: Sum(rhs),rhsMax =  -5.38992159957215E+01  1.39989940918165E+00
(PID.TID 0000.0001)  ploadbar=  1.01130274947217E+05
 cg2d: Sum(rhs),rhsMax =  -5.43828354756846E+01  1.38705236439162E+00
(PID.TID 0000.0001)  ploadbar=  1.01130437282464E+05
 cg2d: Sum(rhs),rhsMax =  -5.51733849786835E+01  1.36675312372163E+00
(PID.TID 0000.0001)  ploadbar=  1.01130599617710E+05
 cg2d: Sum(rhs),rhsMax =  -5.64128609812608E+01  1.33627343076130E+00
(PID.TID 0000.0001)  ploadbar=  1.01130761952957E+05
 cg2d: Sum(rhs),rhsMax =  -5.74902840805991E+01  1.31075362447142E+00
(PID.TID 0000.0001)  ploadbar=  1.01130924288204E+05
 cg2d: Sum(rhs),rhsMax =  -5.73519759283769E+01  1.31340330991206E+00
(PID.TID 0000.0001)  ploadbar=  1.01131086623451E+05
 cg2d: Sum(rhs),rhsMax =  -5.72300482784009E+01  1.31565736038685E+00
(PID.TID 0000.0001)  ploadbar=  1.01131248958698E+05
 cg2d: Sum(rhs),rhsMax =  -5.71341394003940E+01  1.31737777587382E+00
(PID.TID 0000.0001)  ploadbar=  1.01131674386836E+05
 cg2d: Sum(rhs),rhsMax =  -5.70587417199164E+01  1.31868075237969E+00
(PID.TID 0000.0001)  ploadbar=  1.01132099814974E+05
 cg2d: Sum(rhs),rhsMax =  -5.70009021834290E+01  1.31963049066664E+00
(PID.TID 0000.0001)  ploadbar=  1.01132525243112E+05
 cg2d: Sum(rhs),rhsMax =  -5.69591033469339E+01  1.32025752369078E+00
(PID.TID 0000.0001)  ploadbar=  1.01132950671250E+05
 cg2d: Sum(rhs),rhsMax =  -5.69369494624225E+01  1.32046831756806E+00
(PID.TID 0000.0001)  ploadbar=  1.01133376099388E+05
 cg2d: Sum(rhs),rhsMax =  -5.69409023250983E+01  1.32010142804525E+00
(PID.TID 0000.0001)  ploadbar=  1.01133801527526E+05
 cg2d: Sum(rhs),rhsMax =  -5.69842935542900E+01  1.31878453758681E+00
(PID.TID 0000.0001)  ploadbar=  1.01134598120213E+05
 cg2d: Sum(rhs),rhsMax =  -5.70813328199261E+01  1.31619387022625E+00
(PID.TID 0000.0001)  ploadbar=  1.01135394712900E+05
 cg2d: Sum(rhs),rhsMax =  -5.72448467031625E+01  1.31204559028983E+00
(PID.TID 0000.0001)  ploadbar=  1.01136191305588E+05
 cg2d: Sum(rhs),rhsMax =  -5.74716003168139E+01  1.30643730144090E+00
(PID.TID 0000.0001)  ploadbar=  1.01136987898275E+05
 cg2d: Sum(rhs),rhsMax =  -5.77617333055056E+01  1.29939844725739E+00
(PID.TID 0000.0001)  ploadbar=  1.01137784490963E+05
 cg2d: Sum(rhs),rhsMax =  -5.81134212999429E+01  1.29101165145731E+00
(PID.TID 0000.0001)  ploadbar=  1.01138581083650E+05
 cg2d: Sum(rhs),rhsMax =  -5.85063770067571E+01  1.28185145882048E+00
(PID.TID 0000.0001)  ploadbar=  1.01139574892079E+05
 cg2d: Sum(rhs),rhsMax =  -5.89001032817069E+01  1.27281879076719E+00
(PID.TID 0000.0001)  ploadbar=  1.01140568700509E+05
 cg2d: Sum(rhs),rhsMax =  -5.92835755328163E+01  1.26414115288560E+00
(PID.TID 0000.0001)  ploadbar=  1.01141562508938E+05
 cg2d: Sum(rhs),rhsMax =  -5.96544600116898E+01  1.25585056474861E+00
(PID.TID 0000.0001)  ploadbar=  1.01142556317367E+05
 cg2d: Sum(rhs),rhsMax =  -5.99893709162097E+01  1.24841894617069E+00
(PID.TID 0000.0001)  ploadbar=  1.01143550125797E+05
 cg2d: Sum(rhs),rhsMax =  -6.02680289139860E+01  1.24223106823776E+00
(PID.TID 0000.0001)  ploadbar=  1.01144543934226E+05
 cg2d: Sum(rhs),rhsMax =  -6.05245806063253E+01  1.23653368701119E+00
(PID.TID 0000.0001)  ploadbar=  1.01145839302230E+05
 cg2d: Sum(rhs),rhsMax =  -6.07305412943533E+01  1.23188620383608E+00
(PID.TID 0000.0001)  ploadbar=  1.01147134670234E+05
 cg2d: Sum(rhs),rhsMax =  -6.09005542839000E+01  1.22796685879722E+00
(PID.TID 0000.0001)  ploadbar=  1.01148430038238E+05
 cg2d: Sum(rhs),rhsMax =  -6.10577366706526E+01  1.22429571450934E+00
(PID.TID 0000.0001)  ploadbar=  1.01149725406242E+05
 cg2d: Sum(rhs),rhsMax =  -6.12034254180023E+01  1.22083859139929E+00
(PID.TID 0000.0001)  ploadbar=  1.01151020774246E+05
 cg2d: Sum(rhs),rhsMax =  -6.13394470309702E+01  1.21755311498342E+00
(PID.TID 0000.0001)  ploadbar=  1.01152316142250E+05
 cg2d: Sum(rhs),rhsMax =  -6.14476553186422E+01  1.21488413376114E+00
(PID.TID 0000.0001)  ploadbar=  1.01152514014368E+05
 cg2d: Sum(rhs),rhsMax =  -6.15581857126196E+01  1.21222647423857E+00
(PID.TID 0000.0001)  ploadbar=  1.01152711886486E+05
 cg2d: Sum(rhs),rhsMax =  -6.16836425070877E+01  1.20932925766354E+00
(PID.TID 0000.0001)  ploadbar=  1.01152909758604E+05
 cg2d: Sum(rhs),rhsMax =  -6.18191218547241E+01  1.20628936500871E+00
(PID.TID 0000.0001)  ploadbar=  1.01153107630722E+05
 cg2d: Sum(rhs),rhsMax =  -6.19630265354926E+01  1.20313616490080E+00
(PID.TID 0000.0001)  ploadbar=  1.01153305502840E+05
 cg2d: Sum(rhs),rhsMax =  -6.18666295929926E+01  1.20468555143032E+00
(PID.TID 0000.0001)  ploadbar=  1.01153503374957E+05
 cg2d: Sum(rhs),rhsMax =  -6.16166680762004E+01  1.20923464232455E+00
(PID.TID 0000.0001)  ploadbar=  1.01154010039222E+05
 cg2d: Sum(rhs),rhsMax =  -6.13418140588062E+01  1.21429664506865E+00
(PID.TID 0000.0001)  ploadbar=  1.01154516703487E+05
 cg2d: Sum(rhs),rhsMax =  -6.10305254101589E+01  1.22010891346944E+00
(PID.TID 0000.0001)  ploadbar=  1.01155023367752E+05
 cg2d: Sum(rhs),rhsMax =  -6.06826924127052E+01  1.22668561879359E+00
(PID.TID 0000.0001)  ploadbar=  1.01155530032017E+05
 cg2d: Sum(rhs),rhsMax =  -6.02925360665323E+01  1.23416730488221E+00
(PID.TID 0000.0001)  ploadbar=  1.01156036696282E+05
 cg2d: Sum(rhs),rhsMax =  -5.98593288365159E+01  1.24259905894072E+00
(PID.TID 0000.0001)  ploadbar=  1.01156543360547E+05
 cg2d: Sum(rhs),rhsMax =  -5.93682264675925E+01  1.25242064776948E+00
(PID.TID 0000.0001)  ploadbar=  1.01156576781181E+05
 cg2d: Sum(rhs),rhsMax =  -5.88693529939334E+01  1.26261213515026E+00
(PID.TID 0000.0001)  ploadbar=  1.01156610201816E+05
 cg2d: Sum(rhs),rhsMax =  -5.83669175190498E+01  1.27308871104980E+00
(PID.TID 0000.0001)  ploadbar=  1.01156643622450E+05
 cg2d: Sum(rhs),rhsMax =  -5.78811846746874E+01  1.28340391639561E+00
(PID.TID 0000.0001)  ploadbar=  1.01156677043084E+05
 cg2d: Sum(rhs),rhsMax =  -5.74270292802601E+01  1.29320491066426E+00
(PID.TID 0000.0001)  ploadbar=  1.01156710463719E+05
 cg2d: Sum(rhs),rhsMax =  -5.70141852121277E+01  1.30223433762292E+00
(PID.TID 0000.0001)  ploadbar=  1.01156743884353E+05
 cg2d: Sum(rhs),rhsMax =  -5.66352378143531E+01  1.31059264866298E+00
(PID.TID 0000.0001)  ploadbar=  1.01155740934961E+05
 cg2d: Sum(rhs),rhsMax =  -5.63429258473429E+01  1.31701729623885E+00
(PID.TID 0000.0001)  ploadbar=  1.01154737985568E+05
 cg2d: Sum(rhs),rhsMax =  -5.61335822735076E+01  1.32153199153022E+00
(PID.TID 0000.0001)  ploadbar=  1.01153735036176E+05
 cg2d: Sum(rhs),rhsMax =  -5.60241536500190E+01  1.32369119020535E+00
(PID.TID 0000.0001)  ploadbar=  1.01152732086784E+05
 cg2d: Sum(rhs),rhsMax =  -5.60350591258951E+01  1.32298533365697E+00
(PID.TID 0000.0001)  ploadbar=  1.01151729137391E+05
 cg2d: Sum(rhs),rhsMax =  -5.61530815617499E+01  1.31972883794190E+00
(PID.TID 0000.0001)  ploadbar=  1.01150726187999E+05
 cg2d: Sum(rhs),rhsMax =  -5.64520504271804E+01  1.31234790694859E+00
(PID.TID 0000.0001)  ploadbar=  1.01148831066250E+05
 cg2d: Sum(rhs),rhsMax =  -5.68014226219858E+01  1.30396083367335E+00
(PID.TID 0000.0001)  ploadbar=  1.01146935944502E+05
 cg2d: Sum(rhs),rhsMax =  -5.71673236089634E+01  1.29537344683692E+00
(PID.TID 0000.0001)  ploadbar=  1.01145040822754E+05
 cg2d: Sum(rhs),rhsMax =  -5.75319231752213E+01  1.28699232208810E+00
(PID.TID 0000.0001)  ploadbar=  1.01143145701006E+05
 cg2d: Sum(rhs),rhsMax =  -5.78961026561189E+01  1.27878941404879E+00
(PID.TID 0000.0001)  ploadbar=  1.01141250579257E+05
 cg2d: Sum(rhs),rhsMax =  -5.82640408246259E+01  1.27066574142491E+00
(PID.TID 0000.0001)  ploadbar=  1.01139355457509E+05
 cg2d: Sum(rhs),rhsMax =  -5.86808497889190E+01  1.26157647509858E+00
(PID.TID 0000.0001)  ploadbar=  1.01138802128915E+05
 cg2d: Sum(rhs),rhsMax =  -5.90488246219595E+01  1.25362997406021E+00
(PID.TID 0000.0001)  ploadbar=  1.01138248800321E+05
 cg2d: Sum(rhs),rhsMax =  -5.93997868549533E+01  1.24611319982376E+00
(PID.TID 0000.0001)  ploadbar=  1.01137695471726E+05
 cg2d: Sum(rhs),rhsMax =  -5.97140250788400E+01  1.23941534536255E+00
(PID.TID 0000.0001)  ploadbar=  1.01137142143132E+05
 cg2d: Sum(rhs),rhsMax =  -5.97266574442688E+01  1.23897727764829E+00
(PID.TID 0000.0001)  ploadbar=  1.01136588814538E+05
 cg2d: Sum(rhs),rhsMax =  -5.97272251923144E+01  1.23875169643945E+00
(PID.TID 0000.0001)  ploadbar=  1.01136035485944E+05
 cg2d: Sum(rhs),rhsMax =  -5.95894873664057E+01  1.24141650412651E+00
(PID.TID 0000.0001)  ploadbar=  1.01135307360265E+05
 cg2d: Sum(rhs),rhsMax =  -5.94494631754781E+01  1.24414993673598E+00
(PID.TID 0000.0001)  ploadbar=  1.01134579234587E+05
 cg2d: Sum(rhs),rhsMax =  -5.93460173049836E+01  1.24613025775755E+00
(PID.TID 0000.0001)  ploadbar=  1.01133851108908E+05
 cg2d: Sum(rhs),rhsMax =  -5.92818037865833E+01  1.24728891624910E+00
(PID.TID 0000.0001)  ploadbar=  1.01133122983230E+05
 cg2d: Sum(rhs),rhsMax =  -5.92735546295804E+01  1.24726446977122E+00
(PID.TID 0000.0001)  ploadbar=  1.01132394857551E+05
 cg2d: Sum(rhs),rhsMax =  -5.93409281451482E+01  1.24564005524888E+00
(PID.TID 0000.0001)  ploadbar=  1.01131666731872E+05
 cg2d: Sum(rhs),rhsMax =  -5.95385603194234E+01  1.24126087734650E+00
(PID.TID 0000.0001)  ploadbar=  1.01130252615198E+05
 cg2d: Sum(rhs),rhsMax =  -5.97972743185232E+01  1.23560742860930E+00
(PID.TID 0000.0001)  ploadbar=  1.01128838498524E+05
 cg2d: Sum(rhs),rhsMax =  -6.00947910254817E+01  1.22916726601327E+00
(PID.TID 0000.0001)  ploadbar=  1.01127424381849E+05
 cg2d: Sum(rhs),rhsMax =  -5.98691836528431E+01  1.23343235311798E+00
(PID.TID 0000.0001)  ploadbar=  1.01126010265175E+05
 cg2d: Sum(rhs),rhsMax =  -5.96891400561841E+01  1.23673974804803E+00
(PID.TID 0000.0001)  ploadbar=  1.01124596148500E+05
 cg2d: Sum(rhs),rhsMax =  -5.95615942130429E+01  1.23892619211397E+00
(PID.TID 0000.0001)  ploadbar=  1.01123182031826E+05
 cg2d: Sum(rhs),rhsMax =  -5.96265674939103E+01  1.23717792333297E+00
(PID.TID 0000.0001)  ploadbar=  1.01122257447270E+05
 cg2d: Sum(rhs),rhsMax =  -5.97312888392132E+01  1.23467076631137E+00
(PID.TID 0000.0001)  ploadbar=  1.01121332862714E+05
 cg2d: Sum(rhs),rhsMax =  -5.98276293409553E+01  1.23239951163437E+00
(PID.TID 0000.0001)  ploadbar=  1.01120408278158E+05
 cg2d: Sum(rhs),rhsMax =  -5.99281840254991E+01  1.23009707617918E+00
(PID.TID 0000.0001)  ploadbar=  1.01119483693602E+05
 cg2d: Sum(rhs),rhsMax =  -6.00128337770685E+01  1.22817007436976E+00
(PID.TID 0000.0001)  ploadbar=  1.01118559109046E+05
 cg2d: Sum(rhs),rhsMax =  -6.00772593989336E+01  1.22669850243755E+00
(PID.TID 0000.0001)  ploadbar=  1.01117634524490E+05
 cg2d: Sum(rhs),rhsMax =  -6.01860055900989E+01  1.22433758365926E+00
(PID.TID 0000.0001)  ploadbar=  1.01116803585578E+05
 cg2d: Sum(rhs),rhsMax =  -6.02797990218395E+01  1.22229576720683E+00
(PID.TID 0000.0001)  ploadbar=  1.01115972646665E+05
 cg2d: Sum(rhs),rhsMax =  -6.03450583412095E+01  1.22084146762724E+00
(PID.TID 0000.0001)  ploadbar=  1.01115141707753E+05
 cg2d: Sum(rhs),rhsMax =  -6.03967410517170E+01  1.21966289608428E+00
(PID.TID 0000.0001)  ploadbar=  1.01114310768840E+05
 cg2d: Sum(rhs),rhsMax =  -5.83037249345300E+01  1.26329940967992E+00
(PID.TID 0000.0001)  ploadbar=  1.01113479829928E+05
 cg2d: Sum(rhs),rhsMax =  -5.61138179668399E+01  1.31243428333893E+00
(PID.TID 0000.0001)  ploadbar=  1.01112648891015E+05
 cg2d: Sum(rhs),rhsMax =  -5.40251957654308E+01  1.36302647682068E+00
(PID.TID 0000.0001)  ploadbar=  1.01112847438430E+05
 cg2d: Sum(rhs),rhsMax =  -5.20425465656420E+01  1.41481713972248E+00
(PID.TID 0000.0001)  ploadbar=  1.01113045985845E+05
 cg2d: Sum(rhs),rhsMax =  -5.02674374071669E+01  1.46464812245637E+00
(PID.TID 0000.0001)  ploadbar=  1.01113244533259E+05
 cg2d: Sum(rhs),rhsMax =  -4.87596599324707E+01  1.50980203715273E+00
(PID.TID 0000.0001)  ploadbar=  1.01113443080674E+05
 cg2d: Sum(rhs),rhsMax =  -4.72851726572868E+01  1.55672882335942E+00
(PID.TID 0000.0001)  ploadbar=  1.01113641628088E+05
 cg2d: Sum(rhs),rhsMax =  -4.58235537235161E+01  1.60620236234532E+00
(PID.TID 0000.0001)  ploadbar=  1.01113840175503E+05
 cg2d: Sum(rhs),rhsMax =  -4.45028393410943E+01  1.65363170328633E+00
(PID.TID 0000.0001)  ploadbar=  1.01113658029869E+05
 cg2d: Sum(rhs),rhsMax =  -4.35623984675287E+01  1.68903419407491E+00
(PID.TID 0000.0001)  ploadbar=  1.01113475884235E+05
 cg2d: Sum(rhs),rhsMax =  -4.30178736778606E+01  1.71005636008706E+00
(PID.TID 0000.0001)  ploadbar=  1.01113293738601E+05
 cg2d: Sum(rhs),rhsMax =  -4.31062228346338E+01  1.70613323772908E+00
(PID.TID 0000.0001)  ploadbar=  1.01113111592967E+05
 cg2d: Sum(rhs),rhsMax =  -4.35756811226224E+01  1.68727563439474E+00
(PID.TID 0000.0001)  ploadbar=  1.01112929447333E+05
 cg2d: Sum(rhs),rhsMax =  -4.41239906344890E+01  1.66577105078824E+00
(PID.TID 0000.0001)  ploadbar=  1.01112747301699E+05
 cg2d: Sum(rhs),rhsMax =  -4.47358686037897E+01  1.64254907333092E+00
(PID.TID 0000.0001)  ploadbar=  1.01112118974780E+05
 cg2d: Sum(rhs),rhsMax =  -4.53431107214135E+01  1.62020421182484E+00
(PID.TID 0000.0001)  ploadbar=  1.01111490647860E+05
 cg2d: Sum(rhs),rhsMax =  -4.59499212601560E+01  1.59854399489814E+00
(PID.TID 0000.0001)  ploadbar=  1.01110862320941E+05
 cg2d: Sum(rhs),rhsMax =  -4.65271932645212E+01  1.57852288110112E+00
(PID.TID 0000.0001)  ploadbar=  1.01110233994022E+05
 cg2d: Sum(rhs),rhsMax =  -4.70451903364223E+01  1.56102632572853E+00
(PID.TID 0000.0001)  ploadbar=  1.01109605667102E+05
 cg2d: Sum(rhs),rhsMax =  -4.74767068505326E+01  1.54678959266860E+00
(PID.TID 0000.0001)  ploadbar=  1.01108977340183E+05
 cg2d: Sum(rhs),rhsMax =  -4.78214969444111E+01  1.53555755893347E+00
(PID.TID 0000.0001)  ploadbar=  1.01108172380060E+05
 cg2d: Sum(rhs),rhsMax =  -4.82242202439987E+01  1.52261288948674E+00
(PID.TID 0000.0001)  ploadbar=  1.01107367419937E+05
 cg2d: Sum(rhs),rhsMax =  -4.86772093376343E+01  1.50827228675580E+00
(PID.TID 0000.0001)  ploadbar=  1.01106562459815E+05
 cg2d: Sum(rhs),rhsMax =  -4.91533683536672E+01  1.49343419974143E+00
(PID.TID 0000.0001)  ploadbar=  1.01105757499692E+05
 cg2d: Sum(rhs),rhsMax =  -4.96085677302899E+01  1.47944310223549E+00
(PID.TID 0000.0001)  ploadbar=  1.01104952539569E+05
 cg2d: Sum(rhs),rhsMax =  -5.00015521202727E+01  1.46746204687627E+00
(PID.TID 0000.0001)  ploadbar=  1.01104147579446E+05
 cg2d: Sum(rhs),rhsMax =  -5.03626244024203E+01  1.45660344509662E+00
(PID.TID 0000.0001)  ploadbar=  1.01104518031023E+05
 cg2d: Sum(rhs),rhsMax =  -5.07899044406212E+01  1.44402172823456E+00
(PID.TID 0000.0001)  ploadbar=  1.01104888482600E+05
 cg2d: Sum(rhs),rhsMax =  -5.12563586100482E+01  1.43055548571667E+00
(PID.TID 0000.0001)  ploadbar=  1.01105258934177E+05
 cg2d: Sum(rhs),rhsMax =  -5.17197872005279E+01  1.41740955787006E+00
(PID.TID 0000.0001)  ploadbar=  1.01105629385753E+05
 cg2d: Sum(rhs),rhsMax =  -5.21429340931466E+01  1.40557311691109E+00
(PID.TID 0000.0001)  ploadbar=  1.01105999837330E+05
 cg2d: Sum(rhs),rhsMax =  -5.25281501493982E+01  1.39492071472690E+00
(PID.TID 0000.0001)  ploadbar=  1.01106370288907E+05
 cg2d: Sum(rhs),rhsMax =  -5.29764931527299E+01  1.38271209235249E+00
(PID.TID 0000.0001)  ploadbar=  1.01105823844852E+05
 cg2d: Sum(rhs),rhsMax =  -5.34061603209324E+01  1.37112268734617E+00
(PID.TID 0000.0001)  ploadbar=  1.01105277400797E+05
 cg2d: Sum(rhs),rhsMax =  -5.37553802946361E+01  1.36168732643458E+00
(PID.TID 0000.0001)  ploadbar=  1.01104730956742E+05
 cg2d: Sum(rhs),rhsMax =  -5.41373722321593E+01  1.35148769535066E+00
(PID.TID 0000.0001)  ploadbar=  1.01104184512687E+05
 cg2d: Sum(rhs),rhsMax =  -5.46695627740128E+01  1.33767667589703E+00
(PID.TID 0000.0001)  ploadbar=  1.01103638068632E+05
 cg2d: Sum(rhs),rhsMax =  -5.50759628875938E+01  1.32708679398697E+00
(PID.TID 0000.0001)  ploadbar=  1.01103091624577E+05
 cg2d: Sum(rhs),rhsMax =  -5.54190305391955E+01  1.31825503766936E+00
(PID.TID 0000.0001)  ploadbar=  1.01102887685749E+05
 cg2d: Sum(rhs),rhsMax =  -5.57408642266127E+01  1.31012424647692E+00
(PID.TID 0000.0001)  ploadbar=  1.01102683746921E+05
 cg2d: Sum(rhs),rhsMax =  -5.60729901630391E+01  1.30193732433544E+00
(PID.TID 0000.0001)  ploadbar=  1.01102479808092E+05
 cg2d: Sum(rhs),rhsMax =  -5.64220103539947E+01  1.29354769371940E+00
(PID.TID 0000.0001)  ploadbar=  1.01102275869264E+05
 cg2d: Sum(rhs),rhsMax =  -5.67781803525410E+01  1.28518368811505E+00
(PID.TID 0000.0001)  ploadbar=  1.01102071930436E+05
 cg2d: Sum(rhs),rhsMax =  -5.71085265798787E+01  1.27758459836290E+00
(PID.TID 0000.0001)  ploadbar=  1.01101867991608E+05
 cg2d: Sum(rhs),rhsMax =  -5.73976870538276E+01  1.27095348482329E+00
(PID.TID 0000.0001)  ploadbar=  1.01102786265141E+05
 cg2d: Sum(rhs),rhsMax =  -5.76634588341510E+01  1.26486616889474E+00
(PID.TID 0000.0001)  ploadbar=  1.01103704538675E+05
 cg2d: Sum(rhs),rhsMax =  -5.78974284845884E+01  1.25948229253823E+00
(PID.TID 0000.0001)  ploadbar=  1.01104622812208E+05
 cg2d: Sum(rhs),rhsMax =  -5.80952714352597E+01  1.25487301351145E+00
(PID.TID 0000.0001)  ploadbar=  1.01105541085742E+05
 cg2d: Sum(rhs),rhsMax =  -5.82971245988044E+01  1.25015771384930E+00
(PID.TID 0000.0001)  ploadbar=  1.01106459359275E+05
 cg2d: Sum(rhs),rhsMax =  -5.85065130550419E+01  1.24525958619391E+00
(PID.TID 0000.0001)  ploadbar=  1.01107377632808E+05
 cg2d: Sum(rhs),rhsMax =  -5.87241344986137E+01  1.24027851289140E+00
(PID.TID 0000.0001)  ploadbar=  1.01107577195296E+05
 cg2d: Sum(rhs),rhsMax =  -5.83226885423690E+01  1.24849821599886E+00
(PID.TID 0000.0001)  ploadbar=  1.01107776757784E+05
 cg2d: Sum(rhs),rhsMax =  -5.73203800320502E+01  1.27004797814435E+00
(PID.TID 0000.0001)  ploadbar=  1.01107976320272E+05
 cg2d: Sum(rhs),rhsMax =  -5.63430123977475E+01  1.29182662032891E+00
(PID.TID 0000.0001)  ploadbar=  1.01108175882759E+05
 cg2d: Sum(rhs),rhsMax =  -5.53926358596427E+01  1.31376129520734E+00
(PID.TID 0000.0001)  ploadbar=  1.01108375445247E+05
 cg2d: Sum(rhs),rhsMax =  -5.44736496195295E+01  1.33571313374881E+00
(PID.TID 0000.0001)  ploadbar=  1.01108575007735E+05
 cg2d: Sum(rhs),rhsMax =  -5.35894569534219E+01  1.35749189345642E+00
(PID.TID 0000.0001)  ploadbar=  1.01108930100494E+05
 cg2d: Sum(rhs),rhsMax =  -5.27576454273041E+01  1.37858385047950E+00
(PID.TID 0000.0001)  ploadbar=  1.01109285193254E+05
 cg2d: Sum(rhs),rhsMax =  -5.19844913701589E+01  1.39872154266112E+00
(PID.TID 0000.0001)  ploadbar=  1.01109640286013E+05
 cg2d: Sum(rhs),rhsMax =  -5.12693696762720E+01  1.41781066314164E+00
(PID.TID 0000.0001)  ploadbar=  1.01109995378773E+05
 cg2d: Sum(rhs),rhsMax =  -5.06090331065963E+01  1.43583200583862E+00
(PID.TID 0000.0001)  ploadbar=  1.01110350471532E+05
 cg2d: Sum(rhs),rhsMax =  -4.99989484580321E+01  1.45281894433877E+00
(PID.TID 0000.0001)  ploadbar=  1.01110705564292E+05
 cg2d: Sum(rhs),rhsMax =  -4.94429168340160E+01  1.46869875892946E+00
(PID.TID 0000.0001)  ploadbar=  1.01112725634123E+05
 cg2d: Sum(rhs),rhsMax =  -4.89220804806632E+01  1.48394722465748E+00
(PID.TID 0000.0001)  ploadbar=  1.01114745703954E+05
 cg2d: Sum(rhs),rhsMax =  -4.84255827599473E+01  1.49884479484356E+00
(PID.TID 0000.0001)  ploadbar=  1.01116765773785E+05
 cg2d: Sum(rhs),rhsMax =  -4.79530245769504E+01  1.51336611093601E+00
(PID.TID 0000.0001)  ploadbar=  1.01118785843616E+05
 cg2d: Sum(rhs),rhsMax =  -4.75044593697650E+01  1.52747039887395E+00
(PID.TID 0000.0001)  ploadbar=  1.01120805913447E+05
 cg2d: Sum(rhs),rhsMax =  -4.70832146308668E+01  1.54101289060658E+00
(PID.TID 0000.0001)  ploadbar=  1.01122825983278E+05
 cg2d: Sum(rhs),rhsMax =  -4.66762546293799E+01  1.55426218208923E+00
(PID.TID 0000.0001)  ploadbar=  1.01122881896408E+05
 cg2d: Sum(rhs),rhsMax =  -4.62803754126547E+01  1.56729744143982E+00
(PID.TID 0000.0001)  ploadbar=  1.01122937809537E+05
 cg2d: Sum(rhs),rhsMax =  -4.58855884463912E+01  1.58044265844598E+00
(PID.TID 0000.0001)  ploadbar=  1.01122993722667E+05
 cg2d: Sum(rhs),rhsMax =  -4.55060484173541E+01  1.59320050405621E+00
(PID.TID 0000.0001)  ploadbar=  1.01123049635797E+05
 cg2d: Sum(rhs),rhsMax =  -4.51572492625254E+01  1.60499505975875E+00
(PID.TID 0000.0001)  ploadbar=  1.01123105548927E+05
 cg2d: Sum(rhs),rhsMax =  -4.48509493527676E+01  1.61535438744408E+00
(PID.TID 0000.0001)  ploadbar=  1.01123161462057E+05
 cg2d: Sum(rhs),rhsMax =  -4.46153450411404E+01  1.62331043583526E+00
(PID.TID 0000.0001)  ploadbar=  1.01121832884775E+05
 cg2d: Sum(rhs),rhsMax =  -4.44274410203699E+01  1.62962255933419E+00
(PID.TID 0000.0001)  ploadbar=  1.01120504307493E+05
 cg2d: Sum(rhs),rhsMax =  -4.42812357468460E+01  1.63445928547433E+00
(PID.TID 0000.0001)  ploadbar=  1.01119175730211E+05
 cg2d: Sum(rhs),rhsMax =  -4.41736496474273E+01  1.63789725794547E+00
(PID.TID 0000.0001)  ploadbar=  1.01117847152929E+05
 cg2d: Sum(rhs),rhsMax =  -4.40995651227762E+01  1.64009839590471E+00
(PID.TID 0000.0001)  ploadbar=  1.01116518575647E+05
 cg2d: Sum(rhs),rhsMax =  -4.40542235414978E+01  1.64122076533217E+00
(PID.TID 0000.0001)  ploadbar=  1.01115189998365E+05
 cg2d: Sum(rhs),rhsMax =  -4.37800297787902E+01  1.65088205932922E+00
(PID.TID 0000.0001)  ploadbar=  1.01114923660619E+05
 cg2d: Sum(rhs),rhsMax =  -4.31971722263284E+01  1.67247997946550E+00
(PID.TID 0000.0001)  ploadbar=  1.01114657322873E+05
 cg2d: Sum(rhs),rhsMax =  -4.26705911046404E+01  1.69237493439659E+00
(PID.TID 0000.0001)  ploadbar=  1.01114390985127E+05
 cg2d: Sum(rhs),rhsMax =  -4.21955158953919E+01  1.71061051609321E+00
(PID.TID 0000.0001)  ploadbar=  1.01114124647380E+05
 cg2d: Sum(rhs),rhsMax =  -4.17540224925022E+01  1.72780668313595E+00
(PID.TID 0000.0001)  ploadbar=  1.01113858309635E+05
 cg2d: Sum(rhs),rhsMax =  -4.13400319912933E+01  1.74414379125260E+00
(PID.TID 0000.0001)  ploadbar=  1.01113591971888E+05
 cg2d: Sum(rhs),rhsMax =  -4.09457593014249E+01  1.76010818027478E+00
(PID.TID 0000.0001)  ploadbar=  1.01112700354061E+05
 cg2d: Sum(rhs),rhsMax =  -4.05553490989627E+01  1.77635061165714E+00
(PID.TID 0000.0001)  ploadbar=  1.01111808736234E+05
 cg2d: Sum(rhs),rhsMax =  -4.01550110077942E+01  1.79348748309962E+00
(PID.TID 0000.0001)  ploadbar=  1.01110917118406E+05
 cg2d: Sum(rhs),rhsMax =  -3.97470438404746E+01  1.81144381697021E+00
(PID.TID 0000.0001)  ploadbar=  1.01110025500579E+05
 cg2d: Sum(rhs),rhsMax =  -3.93424272430714E+01  1.82973413662554E+00
(PID.TID 0000.0001)  ploadbar=  1.01109133882752E+05
 cg2d: Sum(rhs),rhsMax =  -3.89457099449413E+01  1.84813773068517E+00
(PID.TID 0000.0001)  ploadbar=  1.01108242264925E+05
 cg2d: Sum(rhs),rhsMax =  -3.85666587532230E+01  1.86601647438829E+00
(PID.TID 0000.0001)  ploadbar=  1.01108189943980E+05
 cg2d: Sum(rhs),rhsMax =  -3.82247021701004E+01  1.88236012470261E+00
(PID.TID 0000.0001)  ploadbar=  1.01108137623035E+05
 cg2d: Sum(rhs),rhsMax =  -3.79235028550531E+01  1.89689008778175E+00
(PID.TID 0000.0001)  ploadbar=  1.01108085302091E+05
 cg2d: Sum(rhs),rhsMax =  -3.76633302629805E+01  1.90949199731536E+00
(PID.TID 0000.0001)  ploadbar=  1.01108032981146E+05
 cg2d: Sum(rhs),rhsMax =  -3.74379252941278E+01  1.92039553609537E+00
(PID.TID 0000.0001)  ploadbar=  1.01107980660201E+05
 cg2d: Sum(rhs),rhsMax =  -3.72391766394297E+01  1.92995480098336E+00
(PID.TID 0000.0001)  ploadbar=  1.01107928339257E+05
 cg2d: Sum(rhs),rhsMax =  -3.70611186765713E+01  1.93861405927275E+00
(PID.TID 0000.0001)  ploadbar=  1.01108618194059E+05
 cg2d: Sum(rhs),rhsMax =  -3.69025302426874E+01  1.94639728376133E+00
(PID.TID 0000.0001)  ploadbar=  1.01109308048861E+05
 cg2d: Sum(rhs),rhsMax =  -3.67608722349163E+01  1.95339389996717E+00
(PID.TID 0000.0001)  ploadbar=  1.01109997903663E+05
 cg2d: Sum(rhs),rhsMax =  -3.66358532119529E+01  1.95958664954433E+00
(PID.TID 0000.0001)  ploadbar=  1.01110687758465E+05
 cg2d: Sum(rhs),rhsMax =  -3.65266655772242E+01  1.96498778444481E+00
(PID.TID 0000.0001)  ploadbar=  1.01111377613267E+05
 cg2d: Sum(rhs),rhsMax =  -3.64330333658088E+01  1.96958561493134E+00
(PID.TID 0000.0001)  ploadbar=  1.01112067468069E+05
 cg2d: Sum(rhs),rhsMax =  -3.63572575245521E+01  1.97319337768324E+00
(PID.TID 0000.0001)  ploadbar=  1.01113054428766E+05
 cg2d: Sum(rhs),rhsMax =  -3.62992508933458E+01  1.97580206618839E+00
(PID.TID 0000.0001)  ploadbar=  1.01114041389463E+05
 cg2d: Sum(rhs),rhsMax =  -3.62600939662549E+01  1.97734057289955E+00
(PID.TID 0000.0001)  ploadbar=  1.01115028350160E+05
 cg2d: Sum(rhs),rhsMax =  -3.62402660695114E+01  1.97777508740120E+00
(PID.TID 0000.0001)  ploadbar=  1.01116015310857E+05
 cg2d: Sum(rhs),rhsMax =  -3.62356108590237E+01  1.97732560411621E+00
(PID.TID 0000.0001)  ploadbar=  1.01117002271554E+05
 cg2d: Sum(rhs),rhsMax =  -3.62457238944413E+01  1.97601623219545E+00
(PID.TID 0000.0001)  ploadbar=  1.01117989232250E+05
 cg2d: Sum(rhs),rhsMax =  -3.62752191952085E+01  1.97375865497208E+00
(PID.TID 0000.0001)  ploadbar=  1.01118228414415E+05
 cg2d: Sum(rhs),rhsMax =  -3.63192779897784E+01  1.97080824613176E+00
(PID.TID 0000.0001)  ploadbar=  1.01118467596579E+05
 cg2d: Sum(rhs),rhsMax =  -3.63733049346970E+01  1.96741550311517E+00
(PID.TID 0000.0001)  ploadbar=  1.01118706778743E+05
 cg2d: Sum(rhs),rhsMax =  -3.64360282846183E+01  1.96364535896745E+00
(PID.TID 0000.0001)  ploadbar=  1.01118945960907E+05
 cg2d: Sum(rhs),rhsMax =  -3.65065349284862E+01  1.95954079036939E+00
(PID.TID 0000.0001)  ploadbar=  1.01119185143071E+05
 cg2d: Sum(rhs),rhsMax =  -3.65839298942946E+01  1.95514302121334E+00
(PID.TID 0000.0001)  ploadbar=  1.01119424325236E+05
 cg2d: Sum(rhs),rhsMax =  -3.66729471306626E+01  1.95010013819900E+00
(PID.TID 0000.0001)  ploadbar=  1.01119649442824E+05
 cg2d: Sum(rhs),rhsMax =  -3.67776576911880E+01  1.94420832240475E+00
(PID.TID 0000.0001)  ploadbar=  1.01119874560413E+05
 cg2d: Sum(rhs),rhsMax =  -3.69021066497547E+01  1.93726411258145E+00
(PID.TID 0000.0001)  ploadbar=  1.01120099678001E+05
 cg2d: Sum(rhs),rhsMax =  -3.70440051308039E+01  1.92940743323805E+00
(PID.TID 0000.0001)  ploadbar=  1.01120324795590E+05
 cg2d: Sum(rhs),rhsMax =  -3.71915354362232E+01  1.92126190217672E+00
(PID.TID 0000.0001)  ploadbar=  1.01120549913178E+05
 cg2d: Sum(rhs),rhsMax =  -3.73325329361570E+01  1.91345471705336E+00
(PID.TID 0000.0001)  ploadbar=  1.01120775030766E+05
 cg2d: Sum(rhs),rhsMax =  -3.74630258833237E+01  1.90638721982327E+00
(PID.TID 0000.0001)  ploadbar=  1.01122288258138E+05
 cg2d: Sum(rhs),rhsMax =  -3.76060224595919E+01  1.89886830842600E+00
(PID.TID 0000.0001)  ploadbar=  1.01123801485509E+05
 cg2d: Sum(rhs),rhsMax =  -3.77723065694214E+01  1.89035925393484E+00
(PID.TID 0000.0001)  ploadbar=  1.01125314712881E+05
 cg2d: Sum(rhs),rhsMax =  -3.79674214724584E+01  1.88060281119533E+00
(PID.TID 0000.0001)  ploadbar=  1.01126827940253E+05
 cg2d: Sum(rhs),rhsMax =  -3.81980117326834E+01  1.86930970145926E+00
(PID.TID 0000.0001)  ploadbar=  1.01128341167624E+05
 cg2d: Sum(rhs),rhsMax =  -3.84709348362329E+01  1.85619684195622E+00
(PID.TID 0000.0001)  ploadbar=  1.01129854394996E+05
 cg2d: Sum(rhs),rhsMax =  -3.87898733678200E+01  1.84103701351294E+00
(PID.TID 0000.0001)  ploadbar=  1.01129926671459E+05
 cg2d: Sum(rhs),rhsMax =  -3.91512139379077E+01  1.82409914649491E+00
(PID.TID 0000.0001)  ploadbar=  1.01129998947923E+05
 cg2d: Sum(rhs),rhsMax =  -3.95717121150547E+01  1.80471711777838E+00
(PID.TID 0000.0001)  ploadbar=  1.01130071224386E+05
 cg2d: Sum(rhs),rhsMax =  -4.00548650694820E+01  1.78289662878377E+00
(PID.TID 0000.0001)  ploadbar=  1.01130143500850E+05
 cg2d: Sum(rhs),rhsMax =  -4.06038173175898E+01  1.75868706627271E+00
(PID.TID 0000.0001)  ploadbar=  1.01130215777314E+05
 cg2d: Sum(rhs),rhsMax =  -4.12247205227555E+01  1.73203732679559E+00
(PID.TID 0000.0001)  ploadbar=  1.01130288053777E+05
 cg2d: Sum(rhs),rhsMax =  -4.19228730502934E+01  1.70311530187859E+00
(PID.TID 0000.0001)  ploadbar=  1.01131408724692E+05
 cg2d: Sum(rhs),rhsMax =  -4.26840955739072E+01  1.67273441973617E+00
(PID.TID 0000.0001)  ploadbar=  1.01132529395606E+05
 cg2d: Sum(rhs),rhsMax =  -4.35143246302114E+01  1.64087766795137E+00
(PID.TID 0000.0001)  ploadbar=  1.01133650066520E+05
 cg2d: Sum(rhs),rhsMax =  -4.44065828026103E+01  1.60801932272752E+00
(PID.TID 0000.0001)  ploadbar=  1.01134770737435E+05
 cg2d: Sum(rhs),rhsMax =  -4.53543535298536E+01  1.57456888941045E+00
(PID.TID 0000.0001)  ploadbar=  1.01135891408349E+05
 cg2d: Sum(rhs),rhsMax =  -4.63530337318068E+01  1.54082395843432E+00
(PID.TID 0000.0001)  ploadbar=  1.01137012079263E+05
 cg2d: Sum(rhs),rhsMax =  -4.73849316831976E+01  1.50737746476070E+00
(PID.TID 0000.0001)  ploadbar=  1.01137966259895E+05
 cg2d: Sum(rhs),rhsMax =  -4.81065131173470E+01  1.48479729002537E+00
(PID.TID 0000.0001)  ploadbar=  1.01138920440526E+05
 cg2d: Sum(rhs),rhsMax =  -4.82066600050122E+01  1.48165276151156E+00
(PID.TID 0000.0001)  ploadbar=  1.01139874621157E+05
 cg2d: Sum(rhs),rhsMax =  -4.83078549251643E+01  1.47838317203094E+00
(PID.TID 0000.0001)  ploadbar=  1.01140828801788E+05
 cg2d: Sum(rhs),rhsMax =  -4.84104511582952E+01  1.47496989396959E+00
(PID.TID 0000.0001)  ploadbar=  1.01141782982420E+05
 cg2d: Sum(rhs),rhsMax =  -4.85239504158871E+01  1.47111611107673E+00
(PID.TID 0000.0001)  ploadbar=  1.01142737163051E+05
 cg2d: Sum(rhs),rhsMax =  -4.86475254889639E+01  1.46702033195577E+00
(PID.TID 0000.0001)  ploadbar=  1.01144407810080E+05
 cg2d: Sum(rhs),rhsMax =  -4.87793225023067E+01  1.46273059950921E+00
(PID.TID 0000.0001)  ploadbar=  1.01146078457110E+05
 cg2d: Sum(rhs),rhsMax =  -4.87597952779763E+01  1.46300907171457E+00
(PID.TID 0000.0001)  ploadbar=  1.01147749104139E+05
 cg2d: Sum(rhs),rhsMax =  -4.86487100914453E+01  1.46605738543274E+00
(PID.TID 0000.0001)  ploadbar=  1.01149419751168E+05
 cg2d: Sum(rhs),rhsMax =  -4.85420423491989E+01  1.46899062298026E+00
(PID.TID 0000.0001)  ploadbar=  1.01151090398198E+05
 cg2d: Sum(rhs),rhsMax =  -4.84382895121123E+01  1.47183794766153E+00
(PID.TID 0000.0001)  ploadbar=  1.01152761045227E+05
 cg2d: Sum(rhs),rhsMax =  -4.83247008917632E+01  1.47497581550028E+00
(PID.TID 0000.0001)  ploadbar=  1.01153494401491E+05
 cg2d: Sum(rhs),rhsMax =  -4.82132187204102E+01  1.47803363259980E+00
(PID.TID 0000.0001)  ploadbar=  1.01154227757755E+05
 cg2d: Sum(rhs),rhsMax =  -4.80922716061348E+01  1.48136679797793E+00
(PID.TID 0000.0001)  ploadbar=  1.01154961114019E+05
 cg2d: Sum(rhs),rhsMax =  -4.79620780302975E+01  1.48497431701581E+00
(PID.TID 0000.0001)  ploadbar=  1.01155694470283E+05
 cg2d: Sum(rhs),rhsMax =  -4.78256249534291E+01  1.48876550239343E+00
(PID.TID 0000.0001)  ploadbar=  1.01156427826547E+05
 cg2d: Sum(rhs),rhsMax =  -4.76904270686374E+01  1.49250439561640E+00
(PID.TID 0000.0001)  ploadbar=  1.01157161182812E+05
 cg2d: Sum(rhs),rhsMax =  -4.75481196871294E+01  1.49658894861753E+00
(PID.TID 0000.0001)  ploadbar=  1.01158005252229E+05
 cg2d: Sum(rhs),rhsMax =  -4.74147845373814E+01  1.50051194983635E+00
(PID.TID 0000.0001)  ploadbar=  1.01158849321647E+05
 cg2d: Sum(rhs),rhsMax =  -4.72943584465011E+01  1.50414324418397E+00
(PID.TID 0000.0001)  ploadbar=  1.01159693391064E+05
 cg2d: Sum(rhs),rhsMax =  -4.71802754919030E+01  1.50768228229339E+00
(PID.TID 0000.0001)  ploadbar=  1.01160537460482E+05
 cg2d: Sum(rhs),rhsMax =  -4.70724924731948E+01  1.51112011955788E+00
(PID.TID 0000.0001)  ploadbar=  1.01161381529900E+05
 cg2d: Sum(rhs),rhsMax =  -4.69698077034626E+01  1.51448491845084E+00
(PID.TID 0000.0001)  ploadbar=  1.01162225599317E+05
 cg2d: Sum(rhs),rhsMax =  -4.68625730759846E+01  1.51793749156022E+00
(PID.TID 0000.0001)  ploadbar=  1.01162543498969E+05
 cg2d: Sum(rhs),rhsMax =  -4.67523569503208E+01  1.52142328326177E+00
(PID.TID 0000.0001)  ploadbar=  1.01162861398621E+05
 cg2d: Sum(rhs),rhsMax =  -4.66416373192447E+01  1.52485504282733E+00
(PID.TID 0000.0001)  ploadbar=  1.01163179298272E+05
 cg2d: Sum(rhs),rhsMax =  -4.65255447494917E+01  1.52838242101033E+00
(PID.TID 0000.0001)  ploadbar=  1.01163497197924E+05
 cg2d: Sum(rhs),rhsMax =  -4.64034447941608E+01  1.53203262385193E+00
(PID.TID 0000.0001)  ploadbar=  1.01163815097575E+05
 cg2d: Sum(rhs),rhsMax =  -4.62745554642529E+01  1.53583468734150E+00
(PID.TID 0000.0001)  ploadbar=  1.01164132997227E+05
 cg2d: Sum(rhs),rhsMax =  -4.61681888384034E+01  1.53895250684733E+00
(PID.TID 0000.0001)  ploadbar=  1.01162905630908E+05
 cg2d: Sum(rhs),rhsMax =  -4.60758725587238E+01  1.54164412613788E+00
(PID.TID 0000.0001)  ploadbar=  1.01161678264590E+05
 cg2d: Sum(rhs),rhsMax =  -4.59904072912511E+01  1.54413445595869E+00
(PID.TID 0000.0001)  ploadbar=  1.01160450898271E+05
 cg2d: Sum(rhs),rhsMax =  -4.59142884173756E+01  1.54633727703071E+00
(PID.TID 0000.0001)  ploadbar=  1.01159223531953E+05
 cg2d: Sum(rhs),rhsMax =  -4.58484493203541E+01  1.54821494262849E+00
(PID.TID 0000.0001)  ploadbar=  1.01157996165634E+05
 cg2d: Sum(rhs),rhsMax =  -4.57936969829168E+01  1.54973662018935E+00
(PID.TID 0000.0001)  ploadbar=  1.01156768799315E+05
 cg2d: Sum(rhs),rhsMax =  -4.57658937629005E+01  1.55030323329933E+00
(PID.TID 0000.0001)  ploadbar=  1.01155797586106E+05
 cg2d: Sum(rhs),rhsMax =  -4.57596363299508E+01  1.55009084327368E+00
(PID.TID 0000.0001)  ploadbar=  1.01154826372897E+05
 cg2d: Sum(rhs),rhsMax =  -4.57673936441575E+01  1.54935269385671E+00
(PID.TID 0000.0001)  ploadbar=  1.01153855159687E+05
 cg2d: Sum(rhs),rhsMax =  -4.57990297446738E+01  1.54775472217532E+00
(PID.TID 0000.0001)  ploadbar=  1.01152883946478E+05
 cg2d: Sum(rhs),rhsMax =  -4.58462421564765E+01  1.54557907226262E+00
(PID.TID 0000.0001)  ploadbar=  1.01151912733269E+05
 cg2d: Sum(rhs),rhsMax =  -4.58948301495639E+01  1.54330608104309E+00
(PID.TID 0000.0001)  ploadbar=  1.01150941520059E+05
 cg2d: Sum(rhs),rhsMax =  -4.59420334932922E+01  1.54115987095815E+00
(PID.TID 0000.0001)  ploadbar=  1.01150927752545E+05
 cg2d: Sum(rhs),rhsMax =  -4.60284225253470E+01  1.53777637074515E+00
(PID.TID 0000.0001)  ploadbar=  1.01150913985031E+05
 cg2d: Sum(rhs),rhsMax =  -4.61385184212205E+01  1.53367943419202E+00
(PID.TID 0000.0001)  ploadbar=  1.01150900217517E+05
 cg2d: Sum(rhs),rhsMax =  -4.62781752894519E+01  1.52868384977138E+00
(PID.TID 0000.0001)  ploadbar=  1.01150886450004E+05
 cg2d: Sum(rhs),rhsMax =  -4.64584690225729E+01  1.52243226632511E+00
(PID.TID 0000.0001)  ploadbar=  1.01150872682490E+05
 cg2d: Sum(rhs),rhsMax =  -4.66838215713943E+01  1.51480352391152E+00
(PID.TID 0000.0001)  ploadbar=  1.01150858914976E+05
 cg2d: Sum(rhs),rhsMax =  -4.69275016847269E+01  1.50658894940699E+00
(PID.TID 0000.0001)  ploadbar=  1.01150223898908E+05
 cg2d: Sum(rhs),rhsMax =  -4.72352964693409E+01  1.49634791931494E+00
(PID.TID 0000.0001)  ploadbar=  1.01149588882841E+05
 cg2d: Sum(rhs),rhsMax =  -4.76020963709292E+01  1.48431567369497E+00
(PID.TID 0000.0001)  ploadbar=  1.01148953866773E+05
 cg2d: Sum(rhs),rhsMax =  -4.80220593584063E+01  1.47075031415420E+00
(PID.TID 0000.0001)  ploadbar=  1.01148318850705E+05
 cg2d: Sum(rhs),rhsMax =  -4.84696454005269E+01  1.45649851594742E+00
(PID.TID 0000.0001)  ploadbar=  1.01147683834638E+05
 cg2d: Sum(rhs),rhsMax =  -4.88959715011665E+01  1.44303891450061E+00
(PID.TID 0000.0001)  ploadbar=  1.01147048818570E+05
 cg2d: Sum(rhs),rhsMax =  -4.94034547801875E+01  1.42753526270788E+00
(PID.TID 0000.0001)  ploadbar=  1.01146880866960E+05
 cg2d: Sum(rhs),rhsMax =  -4.98219844617091E+01  1.41492773763787E+00
(PID.TID 0000.0001)  ploadbar=  1.01146712915350E+05
 cg2d: Sum(rhs),rhsMax =  -5.01923885278394E+01  1.40392249906775E+00
(PID.TID 0000.0001)  ploadbar=  1.01146544963740E+05
 cg2d: Sum(rhs),rhsMax =  -5.01829924903454E+01  1.40366142581321E+00
(PID.TID 0000.0001)  ploadbar=  1.01146377012130E+05
 cg2d: Sum(rhs),rhsMax =  -5.02201633906159E+01  1.40212888511299E+00
(PID.TID 0000.0001)  ploadbar=  1.01146209060520E+05
 cg2d: Sum(rhs),rhsMax =  -5.02682182426552E+01  1.40031512620160E+00
(PID.TID 0000.0001)  ploadbar=  1.01146041108910E+05
 cg2d: Sum(rhs),rhsMax =  -5.02926188634438E+01  1.39912302531274E+00
(PID.TID 0000.0001)  ploadbar=  1.01147284312505E+05
 cg2d: Sum(rhs),rhsMax =  -5.02708640942504E+01  1.39917512757893E+00
(PID.TID 0000.0001)  ploadbar=  1.01148527516100E+05
 cg2d: Sum(rhs),rhsMax =  -5.02251428519694E+01  1.39985431321860E+00
(PID.TID 0000.0001)  ploadbar=  1.01149770719695E+05
 cg2d: Sum(rhs),rhsMax =  -5.01623007717230E+01  1.40097142131500E+00
(PID.TID 0000.0001)  ploadbar=  1.01151013923290E+05
 cg2d: Sum(rhs),rhsMax =  -5.00834443023399E+01  1.40249429614910E+00
(PID.TID 0000.0001)  ploadbar=  1.01152257126885E+05
 cg2d: Sum(rhs),rhsMax =  -4.99928748391745E+01  1.40430345675272E+00
(PID.TID 0000.0001)  ploadbar=  1.01153500330480E+05
 cg2d: Sum(rhs),rhsMax =  -4.99100784316603E+01  1.40595222511416E+00
(PID.TID 0000.0001)  ploadbar=  1.01153030193643E+05
 cg2d: Sum(rhs),rhsMax =  -4.98344751522875E+01  1.40745490271650E+00
(PID.TID 0000.0001)  ploadbar=  1.01152560056807E+05
 cg2d: Sum(rhs),rhsMax =  -4.97490915287975E+01  1.40928831648408E+00
(PID.TID 0000.0001)  ploadbar=  1.01152089919971E+05
 cg2d: Sum(rhs),rhsMax =  -4.96693028546743E+01  1.41101442051488E+00
(PID.TID 0000.0001)  ploadbar=  1.01151619783134E+05
 cg2d: Sum(rhs),rhsMax =  -4.95925577769702E+01  1.41270207383431E+00
(PID.TID 0000.0001)  ploadbar=  1.01151149646298E+05
 cg2d: Sum(rhs),rhsMax =  -4.95178811351100E+01  1.41437965209241E+00
(PID.TID 0000.0001)  ploadbar=  1.01150679509462E+05
 cg2d: Sum(rhs),rhsMax =  -4.94263879063345E+01  1.41654642684646E+00
(PID.TID 0000.0001)  ploadbar=  1.01150935884804E+05
 cg2d: Sum(rhs),rhsMax =  -4.93391653003612E+01  1.41859871410823E+00
(PID.TID 0000.0001)  ploadbar=  1.01151192260146E+05
 cg2d: Sum(rhs),rhsMax =  -4.92519604893309E+01  1.42065366647834E+00
(PID.TID 0000.0001)  ploadbar=  1.01151448635488E+05
 cg2d: Sum(rhs),rhsMax =  -4.91643518921466E+01  1.42272212068999E+00
(PID.TID 0000.0001)  ploadbar=  1.01151705010830E+05
 cg2d: Sum(rhs),rhsMax =  -4.90759566052328E+01  1.42481093259234E+00
(PID.TID 0000.0001)  ploadbar=  1.01151961386172E+05
 cg2d: Sum(rhs),rhsMax =  -4.89861157658794E+01  1.42693779021586E+00
(PID.TID 0000.0001)  ploadbar=  1.01152217761514E+05
 cg2d: Sum(rhs),rhsMax =  -4.88993448767917E+01  1.42905164987480E+00
(PID.TID 0000.0001)  ploadbar=  1.01152458799058E+05
 cg2d: Sum(rhs),rhsMax =  -4.88283603614251E+01  1.43077089987060E+00
(PID.TID 0000.0001)  ploadbar=  1.01152699836601E+05
 cg2d: Sum(rhs),rhsMax =  -4.87564185826438E+01  1.43257374528189E+00
(PID.TID 0000.0001)  ploadbar=  1.01152940874144E+05
 cg2d: Sum(rhs),rhsMax =  -4.86879723871607E+01  1.43432547568281E+00
(PID.TID 0000.0001)  ploadbar=  1.01153181911688E+05
 cg2d: Sum(rhs),rhsMax =  -4.86204124035350E+01  1.43609559138113E+00
(PID.TID 0000.0001)  ploadbar=  1.01153422949231E+05
 cg2d: Sum(rhs),rhsMax =  -4.85489982252639E+01  1.43801553417716E+00
(PID.TID 0000.0001)  ploadbar=  1.01153663986774E+05
 cg2d: Sum(rhs),rhsMax =  -4.84526253144300E+01  1.44064500081008E+00
(PID.TID 0000.0001)  ploadbar=  1.01153844254822E+05
 cg2d: Sum(rhs),rhsMax =  -4.83408427074751E+01  1.44370404689448E+00
(PID.TID 0000.0001)  ploadbar=  1.01154024522869E+05
 cg2d: Sum(rhs),rhsMax =  -4.82018142283660E+01  1.44755320868506E+00
(PID.TID 0000.0001)  ploadbar=  1.01154204790916E+05
 cg2d: Sum(rhs),rhsMax =  -4.80267152140757E+01  1.45247097574889E+00
(PID.TID 0000.0001)  ploadbar=  1.01154385058963E+05
 cg2d: Sum(rhs),rhsMax =  -4.78239033124930E+01  1.45822502776891E+00
(PID.TID 0000.0001)  ploadbar=  1.01154565327010E+05
 cg2d: Sum(rhs),rhsMax =  -4.76335809227227E+01  1.46359641961200E+00
(PID.TID 0000.0001)  ploadbar=  1.01154745595057E+05
 cg2d: Sum(rhs),rhsMax =  -4.75499293799871E+01  1.46576280184646E+00
(PID.TID 0000.0001)  ploadbar=  1.01153682843670E+05
 cg2d: Sum(rhs),rhsMax =  -4.74905271297382E+01  1.46722952326979E+00
(PID.TID 0000.0001)  ploadbar=  1.01152620092283E+05
 cg2d: Sum(rhs),rhsMax =  -4.67217471014979E+01  1.49103974683780E+00
(PID.TID 0000.0001)  ploadbar=  1.01151557340896E+05
 cg2d: Sum(rhs),rhsMax =  -4.57855224903441E+01  1.52122640785053E+00
(PID.TID 0000.0001)  ploadbar=  1.01150494589509E+05
 cg2d: Sum(rhs),rhsMax =  -4.47252575460773E+01  1.55701108565438E+00
(PID.TID 0000.0001)  ploadbar=  1.01149431838122E+05
 cg2d: Sum(rhs),rhsMax =  -4.36219025946705E+01  1.59613703763956E+00
(PID.TID 0000.0001)  ploadbar=  1.01148369086735E+05
 cg2d: Sum(rhs),rhsMax =  -4.26545689056832E+01  1.63200858180428E+00
(PID.TID 0000.0001)  ploadbar=  1.01148542469625E+05
 cg2d: Sum(rhs),rhsMax =  -4.19270569928042E+01  1.65992699399098E+00
(PID.TID 0000.0001)  ploadbar=  1.01148715852514E+05
 cg2d: Sum(rhs),rhsMax =  -4.15420295625837E+01  1.67483675558467E+00
(PID.TID 0000.0001)  ploadbar=  1.01148889235404E+05
 cg2d: Sum(rhs),rhsMax =  -4.15073747312756E+01  1.67568335637043E+00
(PID.TID 0000.0001)  ploadbar=  1.01149062618293E+05
 cg2d: Sum(rhs),rhsMax =  -4.17611355829756E+01  1.66487864680145E+00
(PID.TID 0000.0001)  ploadbar=  1.01149236001183E+05
 cg2d: Sum(rhs),rhsMax =  -4.22127817179744E+01  1.64637349821587E+00
(PID.TID 0000.0001)  ploadbar=  1.01149409384072E+05
 cg2d: Sum(rhs),rhsMax =  -4.27826054123592E+01  1.62390550475856E+00
(PID.TID 0000.0001)  ploadbar=  1.01150632565562E+05
 cg2d: Sum(rhs),rhsMax =  -4.34123926407052E+01  1.59994404471101E+00
(PID.TID 0000.0001)  ploadbar=  1.01151855747052E+05
 cg2d: Sum(rhs),rhsMax =  -4.40616757244254E+01  1.57608215781012E+00
(PID.TID 0000.0001)  ploadbar=  1.01153078928542E+05
 cg2d: Sum(rhs),rhsMax =  -4.47152601906435E+01  1.55286530472803E+00
(PID.TID 0000.0001)  ploadbar=  1.01154302110032E+05
 cg2d: Sum(rhs),rhsMax =  -4.53589408332780E+01  1.53074392603322E+00
(PID.TID 0000.0001)  ploadbar=  1.01155525291521E+05
 cg2d: Sum(rhs),rhsMax =  -4.59851299897343E+01  1.50989871870028E+00
(PID.TID 0000.0001)  ploadbar=  1.01156748473011E+05
 cg2d: Sum(rhs),rhsMax =  -4.65843887372662E+01  1.49045146666378E+00
(PID.TID 0000.0001)  ploadbar=  1.01156512314979E+05
 cg2d: Sum(rhs),rhsMax =  -4.71747898546960E+01  1.47175086175908E+00
(PID.TID 0000.0001)  ploadbar=  1.01156276156947E+05
 cg2d: Sum(rhs),rhsMax =  -4.77538001189269E+01  1.45384137994680E+00
(PID.TID 0000.0001)  ploadbar=  1.01156039998915E+05
 cg2d: Sum(rhs),rhsMax =  -4.83368009728280E+01  1.43622475714772E+00
(PID.TID 0000.0001)  ploadbar=  1.01155803840883E+05
 cg2d: Sum(rhs),rhsMax =  -4.89343279699538E+01  1.41858274468921E+00
(PID.TID 0000.0001)  ploadbar=  1.01155567682851E+05
 cg2d: Sum(rhs),rhsMax =  -4.95443424729726E+01  1.40098773351631E+00
(PID.TID 0000.0001)  ploadbar=  1.01155331524819E+05
 cg2d: Sum(rhs),rhsMax =  -5.01497911702101E+01  1.38407334416380E+00
(PID.TID 0000.0001)  ploadbar=  1.01153876350117E+05
 cg2d: Sum(rhs),rhsMax =  -5.07823425931399E+01  1.36695397136497E+00
(PID.TID 0000.0001)  ploadbar=  1.01152421175416E+05
 cg2d: Sum(rhs),rhsMax =  -5.14220890948947E+01  1.35018544726526E+00
(PID.TID 0000.0001)  ploadbar=  1.01150966000714E+05
 cg2d: Sum(rhs),rhsMax =  -5.20839263207115E+01  1.33337908857311E+00
(PID.TID 0000.0001)  ploadbar=  1.01149510826013E+05
 cg2d: Sum(rhs),rhsMax =  -5.27660451868534E+01  1.31659938859308E+00
(PID.TID 0000.0001)  ploadbar=  1.01148055651311E+05
 cg2d: Sum(rhs),rhsMax =  -5.34685892391921E+01  1.29985657276183E+00
(PID.TID 0000.0001)  ploadbar=  1.01146600476610E+05
 cg2d: Sum(rhs),rhsMax =  -5.35184624592680E+01  1.29913184556485E+00
(PID.TID 0000.0001)  ploadbar=  1.01145950641015E+05
 cg2d: Sum(rhs),rhsMax =  -5.32933834705361E+01  1.30503401701223E+00
(PID.TID 0000.0001)  ploadbar=  1.01145300805421E+05
 cg2d: Sum(rhs),rhsMax =  -5.30612158608994E+01  1.31108545458364E+00
(PID.TID 0000.0001)  ploadbar=  1.01144650969826E+05
 cg2d: Sum(rhs),rhsMax =  -5.28196605215338E+01  1.31734317500456E+00
(PID.TID 0000.0001)  ploadbar=  1.01144001134232E+05
 cg2d: Sum(rhs),rhsMax =  -5.25716283749468E+01  1.32373434872289E+00
(PID.TID 0000.0001)  ploadbar=  1.01143351298637E+05
 cg2d: Sum(rhs),rhsMax =  -5.23195955666980E+01  1.33020059306600E+00
(PID.TID 0000.0001)  ploadbar=  1.01142701463043E+05
 cg2d: Sum(rhs),rhsMax =  -5.20715449630989E+01  1.33666151532313E+00
(PID.TID 0000.0001)  ploadbar=  1.01141542055132E+05
 cg2d: Sum(rhs),rhsMax =  -5.18309895466014E+01  1.34300840360777E+00
(PID.TID 0000.0001)  ploadbar=  1.01140382647221E+05
 cg2d: Sum(rhs),rhsMax =  -5.16114287642774E+01  1.34888075715313E+00
(PID.TID 0000.0001)  ploadbar=  1.01139223239310E+05
 cg2d: Sum(rhs),rhsMax =  -5.14117739970240E+01  1.35428831146836E+00
(PID.TID 0000.0001)  ploadbar=  1.01138063831400E+05
 cg2d: Sum(rhs),rhsMax =  -5.12332764638247E+01  1.35917962466997E+00
(PID.TID 0000.0001)  ploadbar=  1.01136904423489E+05
 cg2d: Sum(rhs),rhsMax =  -5.10785137501061E+01  1.36347019123303E+00
(PID.TID 0000.0001)  ploadbar=  1.01135745015578E+05
 cg2d: Sum(rhs),rhsMax =  -5.09576958240720E+01  1.36685357267208E+00
(PID.TID 0000.0001)  ploadbar=  1.01134984938961E+05
 cg2d: Sum(rhs),rhsMax =  -5.08471960139297E+01  1.36995032656877E+00
(PID.TID 0000.0001)  ploadbar=  1.01134224862345E+05
 cg2d: Sum(rhs),rhsMax =  -5.07486506801688E+01  1.37270994941845E+00
(PID.TID 0000.0001)  ploadbar=  1.01133464785728E+05
 cg2d: Sum(rhs),rhsMax =  -5.06584932808306E+01  1.37522279997658E+00
(PID.TID 0000.0001)  ploadbar=  1.01132704709111E+05
 cg2d: Sum(rhs),rhsMax =  -5.05749146461470E+01  1.37752946314181E+00
(PID.TID 0000.0001)  ploadbar=  1.01131944632495E+05
 cg2d: Sum(rhs),rhsMax =  -5.04942612020353E+01  1.37972145770119E+00
(PID.TID 0000.0001)  ploadbar=  1.01131184555878E+05
 cg2d: Sum(rhs),rhsMax =  -5.04399785934336E+01  1.38126576400459E+00
(PID.TID 0000.0001)  ploadbar=  1.01130477966648E+05
 cg2d: Sum(rhs),rhsMax =  -5.03994825240432E+01  1.38249856969193E+00
(PID.TID 0000.0001)  ploadbar=  1.01129771377418E+05
 cg2d: Sum(rhs),rhsMax =  -5.03627035412526E+01  1.38368792497232E+00
(PID.TID 0000.0001)  ploadbar=  1.01129064788188E+05
 cg2d: Sum(rhs),rhsMax =  -5.03323558003642E+01  1.38475854752594E+00
(PID.TID 0000.0001)  ploadbar=  1.01128358198959E+05
 cg2d: Sum(rhs),rhsMax =  -5.03088076647387E+01  1.38569463950046E+00
(PID.TID 0000.0001)  ploadbar=  1.01127651609729E+05
 cg2d: Sum(rhs),rhsMax =  -5.02905645373325E+01  1.38652940999927E+00
(PID.TID 0000.0001)  ploadbar=  1.01126945020499E+05
 cg2d: Sum(rhs),rhsMax =  -5.02732031872448E+01  1.38734760596409E+00
(PID.TID 0000.0001)  ploadbar=  1.01126154676232E+05
 cg2d: Sum(rhs),rhsMax =  -5.02633081960087E+01  1.38796606955295E+00
(PID.TID 0000.0001)  ploadbar=  1.01125364331966E+05
 cg2d: Sum(rhs),rhsMax =  -5.02520034464193E+01  1.38862357245868E+00
(PID.TID 0000.0001)  ploadbar=  1.01124573987699E+05
 cg2d: Sum(rhs),rhsMax =  -5.02410492466998E+01  1.38926446363115E+00
(PID.TID 0000.0001)  ploadbar=  1.01123783643433E+05
 cg2d: Sum(rhs),rhsMax =  -5.02311363925307E+01  1.38986783107987E+00
(PID.TID 0000.0001)  ploadbar=  1.01122993299166E+05
 cg2d: Sum(rhs),rhsMax =  -5.02214217473563E+01  1.39045387988956E+00
(PID.TID 0000.0001)  ploadbar=  1.01122202954899E+05
 cg2d: Sum(rhs),rhsMax =  -5.02001344096885E+01  1.39139629435617E+00
(PID.TID 0000.0001)  ploadbar=  1.01123286159355E+05
 cg2d: Sum(rhs),rhsMax =  -5.01814675089759E+01  1.39229314810246E+00
(PID.TID 0000.0001)  ploadbar=  1.01124369363810E+05
 cg2d: Sum(rhs),rhsMax =  -5.01690292713892E+01  1.39303880244024E+00
(PID.TID 0000.0001)  ploadbar=  1.01125452568265E+05
 cg2d: Sum(rhs),rhsMax =  -5.01605246517028E+01  1.39369344319057E+00
(PID.TID 0000.0001)  ploadbar=  1.01126535772720E+05
 cg2d: Sum(rhs),rhsMax =  -5.01540488758597E+01  1.39430210422963E+00
(PID.TID 0000.0001)  ploadbar=  1.01127618977175E+05
 cg2d: Sum(rhs),rhsMax =  -5.01482725933523E+01  1.39489779351270E+00
(PID.TID 0000.0001)  ploadbar=  1.01128702181630E+05
 cg2d: Sum(rhs),rhsMax =  -5.01433437312312E+01  1.39541199566010E+00
(PID.TID 0000.0001)  ploadbar=  1.01128641255743E+05
 cg2d: Sum(rhs),rhsMax =  -5.01329073103368E+01  1.39601814071745E+00
(PID.TID 0000.0001)  ploadbar=  1.01128580329855E+05
 cg2d: Sum(rhs),rhsMax =  -5.01259445059582E+01  1.39646293763332E+00
(PID.TID 0000.0001)  ploadbar=  1.01128519403968E+05
 cg2d: Sum(rhs),rhsMax =  -5.01234290361908E+01  1.39671441289344E+00
(PID.TID 0000.0001)  ploadbar=  1.01128458478080E+05
 cg2d: Sum(rhs),rhsMax =  -5.01251111857021E+01  1.39677413893121E+00
(PID.TID 0000.0001)  ploadbar=  1.01128397552193E+05
 cg2d: Sum(rhs),rhsMax =  -5.01321237533452E+01  1.39660528873782E+00
(PID.TID 0000.0001)  ploadbar=  1.01128336626305E+05
 cg2d: Sum(rhs),rhsMax =  -5.01590457517127E+01  1.39598033119025E+00
(PID.TID 0000.0001)  ploadbar=  1.01127092995537E+05
 cg2d: Sum(rhs),rhsMax =  -5.01982958336921E+01  1.39510456113226E+00
(PID.TID 0000.0001)  ploadbar=  1.01125849364769E+05
 cg2d: Sum(rhs),rhsMax =  -5.02471430431831E+01  1.39405222637652E+00
(PID.TID 0000.0001)  ploadbar=  1.01124605734001E+05
 cg2d: Sum(rhs),rhsMax =  -5.03077346082693E+01  1.39276172398517E+00
(PID.TID 0000.0001)  ploadbar=  1.01123362103233E+05
 cg2d: Sum(rhs),rhsMax =  -5.03806376048409E+01  1.39121562545653E+00
(PID.TID 0000.0001)  ploadbar=  1.01122118472465E+05
 cg2d: Sum(rhs),rhsMax =  -5.04647539728005E+01  1.38944069843682E+00
(PID.TID 0000.0001)  ploadbar=  1.01120874841698E+05
 cg2d: Sum(rhs),rhsMax =  -5.05535115261575E+01  1.38745562905727E+00
(PID.TID 0000.0001)  ploadbar=  1.01120529945993E+05
 cg2d: Sum(rhs),rhsMax =  -5.06478409182885E+01  1.38523027422691E+00
(PID.TID 0000.0001)  ploadbar=  1.01120185050288E+05
 cg2d: Sum(rhs),rhsMax =  -5.07417599306247E+01  1.38292501611131E+00
(PID.TID 0000.0001)  ploadbar=  1.01119840154583E+05
 cg2d: Sum(rhs),rhsMax =  -5.08348084762206E+01  1.38054847752378E+00
(PID.TID 0000.0001)  ploadbar=  1.01119495258878E+05
 cg2d: Sum(rhs),rhsMax =  -5.09284432463995E+01  1.37805701049419E+00
(PID.TID 0000.0001)  ploadbar=  1.01119150363174E+05
 cg2d: Sum(rhs),rhsMax =  -5.10235669618551E+01  1.37542466755703E+00
(PID.TID 0000.0001)  ploadbar=  1.01118805467469E+05
 cg2d: Sum(rhs),rhsMax =  -5.11147997712484E+01  1.37293585992161E+00
(PID.TID 0000.0001)  ploadbar=  1.01119754393708E+05
 cg2d: Sum(rhs),rhsMax =  -5.12112029399722E+01  1.37034266551402E+00
(PID.TID 0000.0001)  ploadbar=  1.01120703319948E+05
 cg2d: Sum(rhs),rhsMax =  -5.13085338225843E+01  1.36775554468731E+00
(PID.TID 0000.0001)  ploadbar=  1.01121652246188E+05
 cg2d: Sum(rhs),rhsMax =  -5.14027688424095E+01  1.36527590791004E+00
(PID.TID 0000.0001)  ploadbar=  1.01122601172427E+05
 cg2d: Sum(rhs),rhsMax =  -5.14920528846270E+01  1.36294776598517E+00
(PID.TID 0000.0001)  ploadbar=  1.01123550098667E+05
 cg2d: Sum(rhs),rhsMax =  -5.15753794992672E+01  1.36079245373991E+00
(PID.TID 0000.0001)  ploadbar=  1.01124499024906E+05
 cg2d: Sum(rhs),rhsMax =  -5.16509671438148E+01  1.35882079669909E+00
(PID.TID 0000.0001)  ploadbar=  1.01124334447983E+05
 cg2d: Sum(rhs),rhsMax =  -5.17192449640125E+01  1.35701883680037E+00
(PID.TID 0000.0001)  ploadbar=  1.01124169871059E+05
 cg2d: Sum(rhs),rhsMax =  -5.17811386881976E+01  1.35535644649409E+00
(PID.TID 0000.0001)  ploadbar=  1.01124005294136E+05
 cg2d: Sum(rhs),rhsMax =  -5.18356190769426E+01  1.35385663068533E+00
(PID.TID 0000.0001)  ploadbar=  1.01123840717212E+05
 cg2d: Sum(rhs),rhsMax =  -5.18822146123339E+01  1.35252558765709E+00
(PID.TID 0000.0001)  ploadbar=  1.01123676140289E+05
 cg2d: Sum(rhs),rhsMax =  -5.19210843315684E+01  1.35135557020558E+00
(PID.TID 0000.0001)  ploadbar=  1.01123511563365E+05
 cg2d: Sum(rhs),rhsMax =  -5.19544447956776E+01  1.35040113836460E+00
(PID.TID 0000.0001)  ploadbar=  1.01123905361710E+05
 cg2d: Sum(rhs),rhsMax =  -5.19819796091561E+01  1.34966724000061E+00
(PID.TID 0000.0001)  ploadbar=  1.01124299160055E+05
 cg2d: Sum(rhs),rhsMax =  -5.20033200616465E+01  1.34916071534846E+00
(PID.TID 0000.0001)  ploadbar=  1.01124692958400E+05
 cg2d: Sum(rhs),rhsMax =  -5.20181635733509E+01  1.34888611684779E+00
(PID.TID 0000.0001)  ploadbar=  1.01125086756745E+05
 cg2d: Sum(rhs),rhsMax =  -5.20261258134961E+01  1.34885121295022E+00
(PID.TID 0000.0001)  ploadbar=  1.01125480555090E+05
 cg2d: Sum(rhs),rhsMax =  -5.20270467871507E+01  1.34905117488836E+00
(PID.TID 0000.0001)  ploadbar=  1.01125874353434E+05
 cg2d: Sum(rhs),rhsMax =  -5.20188761771155E+01  1.34941650243519E+00
(PID.TID 0000.0001)  ploadbar=  1.01125293874217E+05
 cg2d: Sum(rhs),rhsMax =  -5.19974208049843E+01  1.35005673057268E+00
(PID.TID 0000.0001)  ploadbar=  1.01124713394999E+05
 cg2d: Sum(rhs),rhsMax =  -5.19642247459617E+01  1.35092778654681E+00
(PID.TID 0000.0001)  ploadbar=  1.01124132915782E+05
 cg2d: Sum(rhs),rhsMax =  -5.19218951271289E+01  1.35195972170540E+00
(PID.TID 0000.0001)  ploadbar=  1.01123552436564E+05
 cg2d: Sum(rhs),rhsMax =  -5.18697488704297E+01  1.35316977931785E+00
(PID.TID 0000.0001)  ploadbar=  1.01122971957347E+05
 cg2d: Sum(rhs),rhsMax =  -5.18070869458209E+01  1.35457713250266E+00
(PID.TID 0000.0001)  ploadbar=  1.01122391478129E+05
 cg2d: Sum(rhs),rhsMax =  -5.17430279595753E+01  1.35605847869587E+00
(PID.TID 0000.0001)  ploadbar=  1.01121739328462E+05
 cg2d: Sum(rhs),rhsMax =  -5.16726023744920E+01  1.35773271887505E+00
(PID.TID 0000.0001)  ploadbar=  1.01121087178796E+05
 cg2d: Sum(rhs),rhsMax =  -5.15987778205886E+01  1.35951716894679E+00
(PID.TID 0000.0001)  ploadbar=  1.01120435029128E+05
 cg2d: Sum(rhs),rhsMax =  -5.15224555756135E+01  1.36138429001247E+00
(PID.TID 0000.0001)  ploadbar=  1.01119782879461E+05
 cg2d: Sum(rhs),rhsMax =  -5.14434827718269E+01  1.36333837035993E+00
(PID.TID 0000.0001)  ploadbar=  1.01119130729794E+05
 cg2d: Sum(rhs),rhsMax =  -5.13617460649681E+01  1.36538086038342E+00
(PID.TID 0000.0001)  ploadbar=  1.01118478580127E+05
 cg2d: Sum(rhs),rhsMax =  -5.12850713427000E+01  1.36726853827546E+00
(PID.TID 0000.0001)  ploadbar=  1.01118435262920E+05
 cg2d: Sum(rhs),rhsMax =  -5.12072865255235E+01  1.36916218502323E+00
(PID.TID 0000.0001)  ploadbar=  1.01118391945713E+05
 cg2d: Sum(rhs),rhsMax =  -5.11354805855730E+01  1.37087438610321E+00
(PID.TID 0000.0001)  ploadbar=  1.01118348628506E+05
 cg2d: Sum(rhs),rhsMax =  -5.10681966354505E+01  1.37243982112110E+00
(PID.TID 0000.0001)  ploadbar=  1.01118305311299E+05
 cg2d: Sum(rhs),rhsMax =  -5.10002770708422E+01  1.37399409065061E+00
(PID.TID 0000.0001)  ploadbar=  1.01118261994091E+05
 cg2d: Sum(rhs),rhsMax =  -5.09345165147672E+01  1.37545869896042E+00
(PID.TID 0000.0001)  ploadbar=  1.01118218676884E+05
 cg2d: Sum(rhs),rhsMax =  -5.08790898098667E+01  1.37672363181441E+00
(PID.TID 0000.0001)  ploadbar=  1.01118335184130E+05
 cg2d: Sum(rhs),rhsMax =  -5.08335217767088E+01  1.37779384958568E+00
(PID.TID 0000.0001)  ploadbar=  1.01118451691375E+05
 cg2d: Sum(rhs),rhsMax =  -5.07997957134907E+01  1.37861136058228E+00
(PID.TID 0000.0001)  ploadbar=  1.01118568198621E+05
 cg2d: Sum(rhs),rhsMax =  -5.07769182796208E+01  1.37919690286016E+00
(PID.TID 0000.0001)  ploadbar=  1.01118684705867E+05
 cg2d: Sum(rhs),rhsMax =  -5.07652746151477E+01  1.37953369741642E+00
(PID.TID 0000.0001)  ploadbar=  1.01118801213112E+05
 cg2d: Sum(rhs),rhsMax =  -5.07758570058445E+01  1.37931803222282E+00
(PID.TID 0000.0001)  ploadbar=  1.01118917720358E+05
 cg2d: Sum(rhs),rhsMax =  -5.07906866391479E+01  1.37896654028994E+00
(PID.TID 0000.0001)  ploadbar=  1.01117617047691E+05
 cg2d: Sum(rhs),rhsMax =  -5.08115875459603E+01  1.37842639383121E+00
(PID.TID 0000.0001)  ploadbar=  1.01116316375024E+05
 cg2d: Sum(rhs),rhsMax =  -5.08396385601416E+01  1.37766467674265E+00
(PID.TID 0000.0001)  ploadbar=  1.01115015702357E+05
 cg2d: Sum(rhs),rhsMax =  -5.08736938023314E+01  1.37671291379868E+00
(PID.TID 0000.0001)  ploadbar=  1.01113715029689E+05
 cg2d: Sum(rhs),rhsMax =  -5.09128382525349E+01  1.37559866413841E+00
(PID.TID 0000.0001)  ploadbar=  1.01112414357022E+05
 cg2d: Sum(rhs),rhsMax =  -5.09551964755980E+01  1.37437548997177E+00
(PID.TID 0000.0001)  ploadbar=  1.01111113684355E+05
 cg2d: Sum(rhs),rhsMax =  -5.09855229472510E+01  1.37350818883629E+00
(PID.TID 0000.0001)  ploadbar=  1.01111610353229E+05
 cg2d: Sum(rhs),rhsMax =  -5.10211872484580E+01  1.37251339241381E+00
(PID.TID 0000.0001)  ploadbar=  1.01112107022104E+05
 cg2d: Sum(rhs),rhsMax =  -5.10556008974193E+01  1.37156672713667E+00
(PID.TID 0000.0001)  ploadbar=  1.01112603690978E+05
 cg2d: Sum(rhs),rhsMax =  -5.10910786949402E+01  1.37059991263104E+00
(PID.TID 0000.0001)  ploadbar=  1.01113100359852E+05
 cg2d: Sum(rhs),rhsMax =  -5.11297852748127E+01  1.36955252819911E+00
(PID.TID 0000.0001)  ploadbar=  1.01113597028726E+05
 cg2d: Sum(rhs),rhsMax =  -5.11727568004628E+01  1.36840015946945E+00
(PID.TID 0000.0001)  ploadbar=  1.01114093697600E+05
 cg2d: Sum(rhs),rhsMax =  -5.12138795157929E+01  1.36726669402086E+00
(PID.TID 0000.0001)  ploadbar=  1.01113462104740E+05
 cg2d: Sum(rhs),rhsMax =  -5.12584508227011E+01  1.36600829989749E+00
(PID.TID 0000.0001)  ploadbar=  1.01112830511879E+05
 cg2d: Sum(rhs),rhsMax =  -5.13033980235783E+01  1.36470631495903E+00
(PID.TID 0000.0001)  ploadbar=  1.01112198919019E+05
 cg2d: Sum(rhs),rhsMax =  -5.13471938336852E+01  1.36340133126013E+00
(PID.TID 0000.0001)  ploadbar=  1.01111567326158E+05
 cg2d: Sum(rhs),rhsMax =  -5.13899419154676E+01  1.36209042652685E+00
(PID.TID 0000.0001)  ploadbar=  1.01110935733298E+05
 cg2d: Sum(rhs),rhsMax =  -5.14314023020872E+01  1.36077097196779E+00
(PID.TID 0000.0001)  ploadbar=  1.01110304140438E+05
 cg2d: Sum(rhs),rhsMax =  -5.14922487717574E+01  1.35902314270899E+00
(PID.TID 0000.0001)  ploadbar=  1.01108969515745E+05
 cg2d: Sum(rhs),rhsMax =  -5.15581809412862E+01  1.35721910761528E+00
(PID.TID 0000.0001)  ploadbar=  1.01107634891053E+05
 cg2d: Sum(rhs),rhsMax =  -5.16261823203331E+01  1.35543334189734E+00
(PID.TID 0000.0001)  ploadbar=  1.01106300266361E+05
 cg2d: Sum(rhs),rhsMax =  -5.16965082612590E+01  1.35365200945136E+00
(PID.TID 0000.0001)  ploadbar=  1.01104965641669E+05
 cg2d: Sum(rhs),rhsMax =  -5.17696071656622E+01  1.35185967824927E+00
(PID.TID 0000.0001)  ploadbar=  1.01103631016977E+05
 cg2d: Sum(rhs),rhsMax =  -5.18449033766115E+01  1.35006336505873E+00
(PID.TID 0000.0001)  ploadbar=  1.01102296392285E+05
 cg2d: Sum(rhs),rhsMax =  -5.19080408870733E+01  1.34859079112947E+00
(PID.TID 0000.0001)  ploadbar=  1.01101055666235E+05
 cg2d: Sum(rhs),rhsMax =  -5.19630939964019E+01  1.34732881474109E+00
(PID.TID 0000.0001)  ploadbar=  1.01099814940186E+05
 cg2d: Sum(rhs),rhsMax =  -5.20025926843845E+01  1.34646714442130E+00
(PID.TID 0000.0001)  ploadbar=  1.01098574214136E+05
 cg2d: Sum(rhs),rhsMax =  -5.20282363160355E+01  1.34596227001831E+00
(PID.TID 0000.0001)  ploadbar=  1.01097333488087E+05
 cg2d: Sum(rhs),rhsMax =  -5.20464235169292E+01  1.34565342018722E+00
(PID.TID 0000.0001)  ploadbar=  1.01096092762038E+05
 cg2d: Sum(rhs),rhsMax =  -5.20677007587078E+01  1.34526604548165E+00
(PID.TID 0000.0001)  ploadbar=  1.01094852035988E+05
 cg2d: Sum(rhs),rhsMax =  -5.20804364568024E+01  1.34515328620044E+00
(PID.TID 0000.0001)  ploadbar=  1.01094569466423E+05
 cg2d: Sum(rhs),rhsMax =  -5.20979127257446E+01  1.34495910901438E+00
(PID.TID 0000.0001)  ploadbar=  1.01094286896857E+05
 cg2d: Sum(rhs),rhsMax =  -5.21296097598733E+01  1.34443535734879E+00
(PID.TID 0000.0001)  ploadbar=  1.01094004327291E+05
 cg2d: Sum(rhs),rhsMax =  -5.21757023306041E+01  1.34357600720088E+00
(PID.TID 0000.0001)  ploadbar=  1.01093721757725E+05
 cg2d: Sum(rhs),rhsMax =  -5.22298319901807E+01  1.34254465029971E+00
(PID.TID 0000.0001)  ploadbar=  1.01093439188160E+05
 cg2d: Sum(rhs),rhsMax =  -5.22880679283849E+01  1.34144046695007E+00
(PID.TID 0000.0001)  ploadbar=  1.01093156618594E+05
 cg2d: Sum(rhs),rhsMax =  -5.23610747653796E+01  1.33993596294732E+00
(PID.TID 0000.0001)  ploadbar=  1.01092282058910E+05
 cg2d: Sum(rhs),rhsMax =  -5.24314732137805E+01  1.33847534005289E+00
(PID.TID 0000.0001)  ploadbar=  1.01091407499225E+05
 cg2d: Sum(rhs),rhsMax =  -5.25028410494612E+01  1.33696726138854E+00
(PID.TID 0000.0001)  ploadbar=  1.01090532939541E+05
 cg2d: Sum(rhs),rhsMax =  -5.25724421741141E+01  1.33548030336618E+00
(PID.TID 0000.0001)  ploadbar=  1.01089658379856E+05
 cg2d: Sum(rhs),rhsMax =  -5.26382717670300E+01  1.33406147552055E+00
(PID.TID 0000.0001)  ploadbar=  1.01088783820172E+05
 cg2d: Sum(rhs),rhsMax =  -5.26998024131097E+01  1.33271981088826E+00
(PID.TID 0000.0001)  ploadbar=  1.01087909260487E+05
 cg2d: Sum(rhs),rhsMax =  -5.27806508862697E+01  1.33096549966193E+00
(PID.TID 0000.0001)  ploadbar=  1.01087889430784E+05
 cg2d: Sum(rhs),rhsMax =  -5.28723343419458E+01  1.32901043634175E+00
(PID.TID 0000.0001)  ploadbar=  1.01087869601081E+05
 cg2d: Sum(rhs),rhsMax =  -5.29677120324931E+01  1.32703008232243E+00
(PID.TID 0000.0001)  ploadbar=  1.01087849771378E+05
 cg2d: Sum(rhs),rhsMax =  -5.30703147621417E+01  1.32493161654032E+00
(PID.TID 0000.0001)  ploadbar=  1.01087829941675E+05
 cg2d: Sum(rhs),rhsMax =  -5.31803090247739E+01  1.32270910127767E+00
(PID.TID 0000.0001)  ploadbar=  1.01087810111972E+05
 cg2d: Sum(rhs),rhsMax =  -5.32961743349256E+01  1.32040014889596E+00
(PID.TID 0000.0001)  ploadbar=  1.01087790282268E+05
 cg2d: Sum(rhs),rhsMax =  -5.34093428144233E+01  1.31814184945449E+00
(PID.TID 0000.0001)  ploadbar=  1.01087577088551E+05
 cg2d: Sum(rhs),rhsMax =  -5.35170492963383E+01  1.31600102601833E+00
(PID.TID 0000.0001)  ploadbar=  1.01087363894833E+05
 cg2d: Sum(rhs),rhsMax =  -5.36203955401593E+01  1.31394981751456E+00
(PID.TID 0000.0001)  ploadbar=  1.01087150701116E+05
 cg2d: Sum(rhs),rhsMax =  -5.37193249085251E+01  1.31198730295546E+00
(PID.TID 0000.0001)  ploadbar=  1.01086937507398E+05
 cg2d: Sum(rhs),rhsMax =  -5.38128660335886E+01  1.31013879965611E+00
(PID.TID 0000.0001)  ploadbar=  1.01086724313681E+05
 cg2d: Sum(rhs),rhsMax =  -5.39007331625412E+01  1.30841141469562E+00
(PID.TID 0000.0001)  ploadbar=  1.01086511119963E+05
 cg2d: Sum(rhs),rhsMax =  -5.39826515853064E+01  1.30684957546650E+00
(PID.TID 0000.0001)  ploadbar=  1.01086662358758E+05
 cg2d: Sum(rhs),rhsMax =  -5.40571416750606E+01  1.30547597278115E+00
(PID.TID 0000.0001)  ploadbar=  1.01086813597554E+05
 cg2d: Sum(rhs),rhsMax =  -5.41281164044382E+01  1.30419320813767E+00
(PID.TID 0000.0001)  ploadbar=  1.01086964836350E+05
 cg2d: Sum(rhs),rhsMax =  -5.41959159133383E+01  1.30298693817586E+00
(PID.TID 0000.0001)  ploadbar=  1.01087116075145E+05
 cg2d: Sum(rhs),rhsMax =  -5.42587564606007E+01  1.30189477934027E+00
(PID.TID 0000.0001)  ploadbar=  1.01087267313941E+05
 cg2d: Sum(rhs),rhsMax =  -5.43154071317734E+01  1.30094258311756E+00
(PID.TID 0000.0001)  ploadbar=  1.01087418552736E+05
 cg2d: Sum(rhs),rhsMax =  -5.43540721227674E+01  1.30035428850563E+00
(PID.TID 0000.0001)  ploadbar=  1.01086925843731E+05
 cg2d: Sum(rhs),rhsMax =  -5.43746001899940E+01  1.30013162210297E+00
(PID.TID 0000.0001)  ploadbar=  1.01086433134726E+05
 cg2d: Sum(rhs),rhsMax =  -5.43805818350604E+01  1.30019238591565E+00
(PID.TID 0000.0001)  ploadbar=  1.01085940425721E+05
 cg2d: Sum(rhs),rhsMax =  -5.43701900317218E+01  1.30057944649785E+00
(PID.TID 0000.0001)  ploadbar=  1.01085447716715E+05
 cg2d: Sum(rhs),rhsMax =  -5.43440043171734E+01  1.30127857954362E+00
(PID.TID 0000.0001)  ploadbar=  1.01084955007710E+05
 cg2d: Sum(rhs),rhsMax =  -5.43019026508556E+01  1.30229086731394E+00
(PID.TID 0000.0001)  ploadbar=  1.01084462298705E+05
 cg2d: Sum(rhs),rhsMax =  -5.42619009853685E+01  1.30332408712783E+00
(PID.TID 0000.0001)  ploadbar=  1.01085652597166E+05
 cg2d: Sum(rhs),rhsMax =  -5.42283289850943E+01  1.30426900291580E+00
(PID.TID 0000.0001)  ploadbar=  1.01086842895626E+05
 cg2d: Sum(rhs),rhsMax =  -5.42079832963133E+01  1.30495666187725E+00
(PID.TID 0000.0001)  ploadbar=  1.01088033194087E+05
 cg2d: Sum(rhs),rhsMax =  -5.41996463921109E+01  1.30541195002770E+00
(PID.TID 0000.0001)  ploadbar=  1.01089223492547E+05
 cg2d: Sum(rhs),rhsMax =  -5.42022122198348E+01  1.30565702324287E+00
(PID.TID 0000.0001)  ploadbar=  1.01090413791008E+05
 cg2d: Sum(rhs),rhsMax =  -5.42144204707561E+01  1.30572127348776E+00
(PID.TID 0000.0001)  ploadbar=  1.01091604089469E+05
 cg2d: Sum(rhs),rhsMax =  -5.42315009723844E+01  1.30564003693885E+00
(PID.TID 0000.0001)  ploadbar=  1.01092146991045E+05
 cg2d: Sum(rhs),rhsMax =  -5.42484442705405E+01  1.30553592133544E+00
(PID.TID 0000.0001)  ploadbar=  1.01092689892622E+05
 cg2d: Sum(rhs),rhsMax =  -5.42648046577054E+01  1.30542399767887E+00
(PID.TID 0000.0001)  ploadbar=  1.01093232794198E+05
 cg2d: Sum(rhs),rhsMax =  -5.42791904343181E+01  1.30534053298616E+00
(PID.TID 0000.0001)  ploadbar=  1.01093775695775E+05
 cg2d: Sum(rhs),rhsMax =  -5.42931714585776E+01  1.30524563928591E+00
(PID.TID 0000.0001)  ploadbar=  1.01094318597351E+05
 cg2d: Sum(rhs),rhsMax =  -5.43095952032747E+01  1.30507347430715E+00
(PID.TID 0000.0001)  ploadbar=  1.01094861498928E+05
 cg2d: Sum(rhs),rhsMax =  -5.43335362646179E+01  1.30473316687421E+00
(PID.TID 0000.0001)  ploadbar=  1.01095396221748E+05
 cg2d: Sum(rhs),rhsMax =  -5.43682879671343E+01  1.30413793211219E+00
(PID.TID 0000.0001)  ploadbar=  1.01095930944568E+05
 cg2d: Sum(rhs),rhsMax =  -5.44098262657111E+01  1.30338246563734E+00
(PID.TID 0000.0001)  ploadbar=  1.01096465667388E+05
 cg2d: Sum(rhs),rhsMax =  -5.44577971207590E+01  1.30247034287019E+00
(PID.TID 0000.0001)  ploadbar=  1.01097000390208E+05
 cg2d: Sum(rhs),rhsMax =  -5.45150843624937E+01  1.30132982805805E+00
(PID.TID 0000.0001)  ploadbar=  1.01097535113028E+05
 cg2d: Sum(rhs),rhsMax =  -5.45820809982741E+01  1.29995068399638E+00
(PID.TID 0000.0001)  ploadbar=  1.01098069835848E+05
 cg2d: Sum(rhs),rhsMax =  -5.46428224609535E+01  1.29865407048713E+00
(PID.TID 0000.0001)  ploadbar=  1.01098097603229E+05
 cg2d: Sum(rhs),rhsMax =  -5.47052950706061E+01  1.29724744240065E+00
(PID.TID 0000.0001)  ploadbar=  1.01098125370610E+05
 cg2d: Sum(rhs),rhsMax =  -5.47685041964259E+01  1.29575706337648E+00
(PID.TID 0000.0001)  ploadbar=  1.01098153137991E+05
 cg2d: Sum(rhs),rhsMax =  -5.48325821540075E+01  1.29418269001342E+00
(PID.TID 0000.0001)  ploadbar=  1.01098180905372E+05
 cg2d: Sum(rhs),rhsMax =  -5.48972492116539E+01  1.29253063310900E+00
(PID.TID 0000.0001)  ploadbar=  1.01098208672753E+05
 cg2d: Sum(rhs),rhsMax =  -5.49614832976575E+01  1.29082279863014E+00
(PID.TID 0000.0001)  ploadbar=  1.01098236440134E+05
 cg2d: Sum(rhs),rhsMax =  -5.50193199225491E+01  1.28933612223444E+00
(PID.TID 0000.0001)  ploadbar=  1.01098459720794E+05
 cg2d: Sum(rhs),rhsMax =  -5.50786552987215E+01  1.28788048415820E+00
(PID.TID 0000.0001)  ploadbar=  1.01098683001455E+05
 cg2d: Sum(rhs),rhsMax =  -5.51410901684864E+01  1.28641230422645E+00
(PID.TID 0000.0001)  ploadbar=  1.01098906282115E+05
 cg2d: Sum(rhs),rhsMax =  -5.52058370091743E+01  1.28494366071635E+00
(PID.TID 0000.0001)  ploadbar=  1.01099129562775E+05
 cg2d: Sum(rhs),rhsMax =  -5.52722307051936E+01  1.28348763425506E+00
(PID.TID 0000.0001)  ploadbar=  1.01099352843436E+05
 cg2d: Sum(rhs),rhsMax =  -5.53395180193377E+01  1.28205737021350E+00
(PID.TID 0000.0001)  ploadbar=  1.01099576124096E+05
 cg2d: Sum(rhs),rhsMax =  -5.54139263952738E+01  1.28046358784288E+00
(PID.TID 0000.0001)  ploadbar=  1.01100041516929E+05
 cg2d: Sum(rhs),rhsMax =  -5.54885563743232E+01  1.27886831836932E+00
(PID.TID 0000.0001)  ploadbar=  1.01100506909762E+05
 cg2d: Sum(rhs),rhsMax =  -5.55632194268374E+01  1.27727779941278E+00
(PID.TID 0000.0001)  ploadbar=  1.01100972302595E+05
 cg2d: Sum(rhs),rhsMax =  -5.56395171459424E+01  1.27566089178414E+00
(PID.TID 0000.0001)  ploadbar=  1.01101437695428E+05
 cg2d: Sum(rhs),rhsMax =  -5.57177741826449E+01  1.27401259961644E+00
(PID.TID 0000.0001)  ploadbar=  1.01101903088261E+05
 cg2d: Sum(rhs),rhsMax =  -5.57978100131896E+01  1.27233742759165E+00
(PID.TID 0000.0001)  ploadbar=  1.01102368481094E+05
 cg2d: Sum(rhs),rhsMax =  -5.58859946129470E+01  1.27052107034309E+00
(PID.TID 0000.0001)  ploadbar=  1.01104177464967E+05
 cg2d: Sum(rhs),rhsMax =  -5.59800722645425E+01  1.26860971292162E+00
(PID.TID 0000.0001)  ploadbar=  1.01105986448840E+05
 cg2d: Sum(rhs),rhsMax =  -5.60751355105646E+01  1.26671175359114E+00
(PID.TID 0000.0001)  ploadbar=  1.01107795432712E+05
 cg2d: Sum(rhs),rhsMax =  -5.61715042839191E+01  1.26481780742413E+00
(PID.TID 0000.0001)  ploadbar=  1.01109604416585E+05
 cg2d: Sum(rhs),rhsMax =  -5.62701374774616E+01  1.26290369156800E+00
(PID.TID 0000.0001)  ploadbar=  1.01111413400458E+05
 cg2d: Sum(rhs),rhsMax =  -5.63712328773370E+01  1.26096186233253E+00
(PID.TID 0000.0001)  ploadbar=  1.01113222384331E+05
 cg2d: Sum(rhs),rhsMax =  -5.64810560375347E+01  1.25880659503177E+00
(PID.TID 0000.0001)  ploadbar=  1.01113846226508E+05
 cg2d: Sum(rhs),rhsMax =  -5.65935623982003E+01  1.25657531054517E+00
(PID.TID 0000.0001)  ploadbar=  1.01114470068685E+05
 cg2d: Sum(rhs),rhsMax =  -5.67070083654580E+01  1.25430890288612E+00
(PID.TID 0000.0001)  ploadbar=  1.01115093910862E+05
 cg2d: Sum(rhs),rhsMax =  -5.68222847144764E+01  1.25198625397438E+00
(PID.TID 0000.0001)  ploadbar=  1.01115717753039E+05
 cg2d: Sum(rhs),rhsMax =  -5.69398876317736E+01  1.24959553716498E+00
(PID.TID 0000.0001)  ploadbar=  1.01116341595216E+05
 cg2d: Sum(rhs),rhsMax =  -5.70601744653123E+01  1.24712913560517E+00
(PID.TID 0000.0001)  ploadbar=  1.01116965437393E+05
 cg2d: Sum(rhs),rhsMax =  -5.71756815564709E+01  1.24482190179329E+00
(PID.TID 0000.0001)  ploadbar=  1.01116356365828E+05
 cg2d: Sum(rhs),rhsMax =  -5.72958134656413E+01  1.24246325823667E+00
(PID.TID 0000.0001)  ploadbar=  1.01115747294262E+05
 cg2d: Sum(rhs),rhsMax =  -5.74191879826060E+01  1.24007671975874E+00
(PID.TID 0000.0001)  ploadbar=  1.01115138222696E+05
 cg2d: Sum(rhs),rhsMax =  -5.75462119766170E+01  1.23764844278342E+00
(PID.TID 0000.0001)  ploadbar=  1.01114529151131E+05
 cg2d: Sum(rhs),rhsMax =  -5.76771450950062E+01  1.23517041562949E+00
(PID.TID 0000.0001)  ploadbar=  1.01113920079565E+05
 cg2d: Sum(rhs),rhsMax =  -5.78113893408143E+01  1.23265416126978E+00
(PID.TID 0000.0001)  ploadbar=  1.01113311008000E+05
 cg2d: Sum(rhs),rhsMax =  -5.79514418734925E+01  1.23002935885922E+00
(PID.TID 0000.0001)  ploadbar=  1.01113924325722E+05
 cg2d: Sum(rhs),rhsMax =  -5.80932433666481E+01  1.22738199455414E+00
(PID.TID 0000.0001)  ploadbar=  1.01114537643445E+05
 cg2d: Sum(rhs),rhsMax =  -5.82364991346453E+01  1.22471812751155E+00
(PID.TID 0000.0001)  ploadbar=  1.01115150961167E+05
 cg2d: Sum(rhs),rhsMax =  -5.83814554083764E+01  1.22203087132641E+00
(PID.TID 0000.0001)  ploadbar=  1.01115764278890E+05
 cg2d: Sum(rhs),rhsMax =  -5.85275121355847E+01  1.21933174712233E+00
(PID.TID 0000.0001)  ploadbar=  1.01116377596612E+05
 cg2d: Sum(rhs),rhsMax =  -5.86740088674085E+01  1.21663349134618E+00
(PID.TID 0000.0001)  ploadbar=  1.01116990914335E+05
 cg2d: Sum(rhs),rhsMax =  -5.88193513563870E+01  1.21396099639321E+00
(PID.TID 0000.0001)  ploadbar=  1.01118610553216E+05
 cg2d: Sum(rhs),rhsMax =  -5.89631652422397E+01  1.21130833380473E+00
(PID.TID 0000.0001)  ploadbar=  1.01120230192097E+05
 cg2d: Sum(rhs),rhsMax =  -5.91032143444427E+01  1.20872037787513E+00
(PID.TID 0000.0001)  ploadbar=  1.01121849830978E+05
 cg2d: Sum(rhs),rhsMax =  -5.92409300811934E+01  1.20616260872655E+00
(PID.TID 0000.0001)  ploadbar=  1.01123469469859E+05
 cg2d: Sum(rhs),rhsMax =  -5.93771156580606E+01  1.20361575260487E+00
(PID.TID 0000.0001)  ploadbar=  1.01125089108740E+05
 cg2d: Sum(rhs),rhsMax =  -5.95122037919610E+01  1.20106938066253E+00
(PID.TID 0000.0001)  ploadbar=  1.01126708747621E+05
 cg2d: Sum(rhs),rhsMax =  -5.96427141004048E+01  1.19858644927530E+00
(PID.TID 0000.0001)  ploadbar=  1.01126895798885E+05
 cg2d: Sum(rhs),rhsMax =  -5.97692954212834E+01  1.19615557758211E+00
(PID.TID 0000.0001)  ploadbar=  1.01127082850149E+05
 cg2d: Sum(rhs),rhsMax =  -5.98949059338872E+01  1.19371902223798E+00
(PID.TID 0000.0001)  ploadbar=  1.01127269901414E+05
 cg2d: Sum(rhs),rhsMax =  -6.00183081323904E+01  1.19129756590556E+00
(PID.TID 0000.0001)  ploadbar=  1.01127456952678E+05
 cg2d: Sum(rhs),rhsMax =  -6.01399897606440E+01  1.18888207276589E+00
(PID.TID 0000.0001)  ploadbar=  1.01127644003943E+05
 cg2d: Sum(rhs),rhsMax =  -6.02608852169286E+01  1.18645132182563E+00
(PID.TID 0000.0001)  ploadbar=  1.01127831055207E+05
 cg2d: Sum(rhs),rhsMax =  -6.03842255307669E+01  1.18404630456664E+00
(PID.TID 0000.0001)  ploadbar=  1.01128326962921E+05
 cg2d: Sum(rhs),rhsMax =  -6.05108490247105E+01  1.18164341859701E+00
(PID.TID 0000.0001)  ploadbar=  1.01128822870634E+05
 cg2d: Sum(rhs),rhsMax =  -6.06399986407249E+01  1.17925163109080E+00
(PID.TID 0000.0001)  ploadbar=  1.01129318778348E+05
 cg2d: Sum(rhs),rhsMax =  -6.07709798974957E+01  1.17687956558977E+00
(PID.TID 0000.0001)  ploadbar=  1.01129814686061E+05
 cg2d: Sum(rhs),rhsMax =  -6.09039098486297E+01  1.17452849638648E+00
(PID.TID 0000.0001)  ploadbar=  1.01130310593775E+05
 cg2d: Sum(rhs),rhsMax =  -6.10377756298182E+01  1.17221754871183E+00
(PID.TID 0000.0001)  ploadbar=  1.01130806501488E+05
 cg2d: Sum(rhs),rhsMax =  -6.11697409385898E+01  1.16998939110614E+00
(PID.TID 0000.0001)  ploadbar=  1.01130469125908E+05
 cg2d: Sum(rhs),rhsMax =  -6.12985135662348E+01  1.16786657061475E+00
(PID.TID 0000.0001)  ploadbar=  1.01130131750328E+05
 cg2d: Sum(rhs),rhsMax =  -6.14253186911000E+01  1.16582689658841E+00
(PID.TID 0000.0001)  ploadbar=  1.01129794374747E+05
 cg2d: Sum(rhs),rhsMax =  -6.15503419927165E+01  1.16386225396794E+00
(PID.TID 0000.0001)  ploadbar=  1.01129456999167E+05
 cg2d: Sum(rhs),rhsMax =  -6.16738781826901E+01  1.16196151198092E+00
(PID.TID 0000.0001)  ploadbar=  1.01129119623587E+05
 cg2d: Sum(rhs),rhsMax =  -6.17961979960019E+01  1.16011758306061E+00
(PID.TID 0000.0001)  ploadbar=  1.01128782248007E+05
 cg2d: Sum(rhs),rhsMax =  -6.19203504437485E+01  1.15821023341814E+00
(PID.TID 0000.0001)  ploadbar=  1.01128775944982E+05
 cg2d: Sum(rhs),rhsMax =  -6.20426570872264E+01  1.15630062651788E+00
(PID.TID 0000.0001)  ploadbar=  1.01128769641957E+05
 cg2d: Sum(rhs),rhsMax =  -6.21610498701031E+01  1.15442542043358E+00
(PID.TID 0000.0001)  ploadbar=  1.01128763338932E+05
 cg2d: Sum(rhs),rhsMax =  -6.22753788532627E+01  1.15258375467761E+00
(PID.TID 0000.0001)  ploadbar=  1.01128757035907E+05
 cg2d: Sum(rhs),rhsMax =  -6.23850489793165E+01  1.15078481146459E+00
(PID.TID 0000.0001)  ploadbar=  1.01128750732882E+05
 cg2d: Sum(rhs),rhsMax =  -6.24906328258959E+01  1.14901998458822E+00
(PID.TID 0000.0001)  ploadbar=  1.01128744429857E+05
 cg2d: Sum(rhs),rhsMax =  -6.25925855032298E+01  1.14728905262311E+00
(PID.TID 0000.0001)  ploadbar=  1.01128783070213E+05
 cg2d: Sum(rhs),rhsMax =  -6.26877056725765E+01  1.14565098406185E+00
(PID.TID 0000.0001)  ploadbar=  1.01128821710570E+05
 cg2d: Sum(rhs),rhsMax =  -6.27794837211936E+01  1.14404108687807E+00
(PID.TID 0000.0001)  ploadbar=  1.01128860350926E+05
 cg2d: Sum(rhs),rhsMax =  -6.28678376968313E+01  1.14245813210251E+00
(PID.TID 0000.0001)  ploadbar=  1.01128898991283E+05
 cg2d: Sum(rhs),rhsMax =  -6.29518297461430E+01  1.14091662771644E+00
(PID.TID 0000.0001)  ploadbar=  1.01128937631639E+05
 cg2d: Sum(rhs),rhsMax =  -6.30315783780760E+01  1.13941513654711E+00
(PID.TID 0000.0001)  ploadbar=  1.01128976271996E+05
 cg2d: Sum(rhs),rhsMax =  -6.31071571901339E+01  1.13803607701425E+00
(PID.TID 0000.0001)  ploadbar=  1.01130213066014E+05
 cg2d: Sum(rhs),rhsMax =  -6.31819253138521E+01  1.13671259185787E+00
(PID.TID 0000.0001)  ploadbar=  1.01131449860033E+05
 cg2d: Sum(rhs),rhsMax =  -6.32537102016267E+01  1.13548045703820E+00
(PID.TID 0000.0001)  ploadbar=  1.01132686654051E+05
 cg2d: Sum(rhs),rhsMax =  -6.22377307268379E+01  1.15410908110068E+00
(PID.TID 0000.0001)  ploadbar=  1.01133923448070E+05
 cg2d: Sum(rhs),rhsMax =  -6.13213107932915E+01  1.17148348653794E+00
(PID.TID 0000.0001)  ploadbar=  1.01135160242088E+05
 cg2d: Sum(rhs),rhsMax =  -6.04903176820827E+01  1.18773820632600E+00
(PID.TID 0000.0001)  ploadbar=  1.01136397036106E+05
 cg2d: Sum(rhs),rhsMax =  -5.97501411832184E+01  1.20264554124854E+00
(PID.TID 0000.0001)  ploadbar=  1.01137543880325E+05
 cg2d: Sum(rhs),rhsMax =  -5.90828299942488E+01  1.21645505303309E+00
(PID.TID 0000.0001)  ploadbar=  1.01138690724543E+05
 cg2d: Sum(rhs),rhsMax =  -5.84839942483071E+01  1.22916783773949E+00
(PID.TID 0000.0001)  ploadbar=  1.01139837568762E+05
 cg2d: Sum(rhs),rhsMax =  -5.79541844004232E+01  1.24069511007621E+00
(PID.TID 0000.0001)  ploadbar=  1.01140984412980E+05
 cg2d: Sum(rhs),rhsMax =  -5.74987697910595E+01  1.25084726753741E+00
(PID.TID 0000.0001)  ploadbar=  1.01142131257199E+05
 cg2d: Sum(rhs),rhsMax =  -5.71174980370869E+01  1.25955417292260E+00
(PID.TID 0000.0001)  ploadbar=  1.01143278101417E+05
 cg2d: Sum(rhs),rhsMax =  -5.68683553427790E+01  1.26541292284637E+00
(PID.TID 0000.0001)  ploadbar=  1.01143532985608E+05
 cg2d: Sum(rhs),rhsMax =  -5.67044164787627E+01  1.26938343249591E+00
(PID.TID 0000.0001)  ploadbar=  1.01143787869799E+05
 cg2d: Sum(rhs),rhsMax =  -5.66112222874210E+01  1.27175622274534E+00
(PID.TID 0000.0001)  ploadbar=  1.01144042753990E+05
 cg2d: Sum(rhs),rhsMax =  -5.65771304507007E+01  1.27277355208005E+00
(PID.TID 0000.0001)  ploadbar=  1.01144297638180E+05
 cg2d: Sum(rhs),rhsMax =  -5.65901333216004E+01  1.27269670087030E+00
(PID.TID 0000.0001)  ploadbar=  1.01144552522371E+05
 cg2d: Sum(rhs),rhsMax =  -5.66343730194826E+01  1.27188156126889E+00
(PID.TID 0000.0001)  ploadbar=  1.01144807406562E+05
 cg2d: Sum(rhs),rhsMax =  -5.66934289992867E+01  1.27071169588260E+00
(PID.TID 0000.0001)  ploadbar=  1.01145770654111E+05
 cg2d: Sum(rhs),rhsMax =  -5.68039365937769E+01  1.26836904151074E+00
(PID.TID 0000.0001)  ploadbar=  1.01146733901661E+05
 cg2d: Sum(rhs),rhsMax =  -5.69519815516595E+01  1.26517343640155E+00
(PID.TID 0000.0001)  ploadbar=  1.01147697149210E+05
 cg2d: Sum(rhs),rhsMax =  -5.71338471900306E+01  1.26121893063401E+00
(PID.TID 0000.0001)  ploadbar=  1.01148660396760E+05
 cg2d: Sum(rhs),rhsMax =  -5.73475139612537E+01  1.25656487913097E+00
(PID.TID 0000.0001)  ploadbar=  1.01149623644309E+05
 cg2d: Sum(rhs),rhsMax =  -5.75389716727940E+01  1.25240042065885E+00
(PID.TID 0000.0001)  ploadbar=  1.01150586891859E+05
 cg2d: Sum(rhs),rhsMax =  -5.80325175266942E+01  1.24183263826982E+00
(PID.TID 0000.0001)  ploadbar=  1.01152275664687E+05
 cg2d: Sum(rhs),rhsMax =  -5.87290252562442E+01  1.22724381303290E+00
(PID.TID 0000.0001)  ploadbar=  1.01153964437516E+05
 cg2d: Sum(rhs),rhsMax =  -5.94243700180897E+01  1.21307607354182E+00
(PID.TID 0000.0001)  ploadbar=  1.01155653210344E+05
 cg2d: Sum(rhs),rhsMax =  -5.99966537704268E+01  1.20174868909313E+00
(PID.TID 0000.0001)  ploadbar=  1.01157341983172E+05
 cg2d: Sum(rhs),rhsMax =  -6.05399024091618E+01  1.19125794382642E+00
(PID.TID 0000.0001)  ploadbar=  1.01159030756001E+05
 cg2d: Sum(rhs),rhsMax =  -6.10884728286984E+01  1.18090159364266E+00
(PID.TID 0000.0001)  ploadbar=  1.01160719528829E+05
 cg2d: Sum(rhs),rhsMax =  -6.16057331116172E+01  1.17132237993543E+00
(PID.TID 0000.0001)  ploadbar=  1.01161255343380E+05
 cg2d: Sum(rhs),rhsMax =  -6.20995260391660E+01  1.16234044992991E+00
(PID.TID 0000.0001)  ploadbar=  1.01161791157931E+05
 cg2d: Sum(rhs),rhsMax =  -6.25645116121808E+01  1.15402814917002E+00
(PID.TID 0000.0001)  ploadbar=  1.01162326972482E+05
 cg2d: Sum(rhs),rhsMax =  -6.30004718569176E+01  1.14636586217808E+00
(PID.TID 0000.0001)  ploadbar=  1.01162862787033E+05
 cg2d: Sum(rhs),rhsMax =  -6.34063530360006E+01  1.13934923844413E+00
(PID.TID 0000.0001)  ploadbar=  1.01163398601584E+05
 cg2d: Sum(rhs),rhsMax =  -6.37825992054048E+01  1.13294650096961E+00
(PID.TID 0000.0001)  ploadbar=  1.01163934416135E+05
 cg2d: Sum(rhs),rhsMax =  -6.41197269088366E+01  1.12732849489331E+00
(PID.TID 0000.0001)  ploadbar=  1.01163522678446E+05
 cg2d: Sum(rhs),rhsMax =  -6.44522104196517E+01  1.12186680038422E+00
(PID.TID 0000.0001)  ploadbar=  1.01163110940757E+05
 cg2d: Sum(rhs),rhsMax =  -6.47869992258769E+01  1.11643558288406E+00
(PID.TID 0000.0001)  ploadbar=  1.01162699203068E+05
 cg2d: Sum(rhs),rhsMax =  -6.51180091190565E+01  1.11113807568523E+00
(PID.TID 0000.0001)  ploadbar=  1.01162287465378E+05
 cg2d: Sum(rhs),rhsMax =  -6.54462566699095E+01  1.10595271807053E+00
(PID.TID 0000.0001)  ploadbar=  1.01161875727689E+05
 cg2d: Sum(rhs),rhsMax =  -6.57686180885521E+01  1.10092871422058E+00
(PID.TID 0000.0001)  ploadbar=  1.01161463990000E+05
 cg2d: Sum(rhs),rhsMax =  -6.60254421014894E+01  1.09702638682097E+00
(PID.TID 0000.0001)  ploadbar=  1.01161852158020E+05
 cg2d: Sum(rhs),rhsMax =  -6.62569370369366E+01  1.09355647493466E+00
(PID.TID 0000.0001)  ploadbar=  1.01162240326040E+05
 cg2d: Sum(rhs),rhsMax =  -6.64743533304372E+01  1.09032684730396E+00
(PID.TID 0000.0001)  ploadbar=  1.01162628494060E+05
 cg2d: Sum(rhs),rhsMax =  -6.66741007547358E+01  1.08739245412668E+00
(PID.TID 0000.0001)  ploadbar=  1.01163016662079E+05
 cg2d: Sum(rhs),rhsMax =  -6.68580138987866E+01  1.08471831369171E+00
(PID.TID 0000.0001)  ploadbar=  1.01163404830099E+05
 cg2d: Sum(rhs),rhsMax =  -6.70262335165757E+01  1.08229390169049E+00
(PID.TID 0000.0001)  ploadbar=  1.01163792998119E+05
 cg2d: Sum(rhs),rhsMax =  -6.72425455225952E+01  1.07916670500074E+00
(PID.TID 0000.0001)  ploadbar=  1.01164204793378E+05
 cg2d: Sum(rhs),rhsMax =  -6.74467290522897E+01  1.07630341563733E+00
(PID.TID 0000.0001)  ploadbar=  1.01164616588636E+05
 cg2d: Sum(rhs),rhsMax =  -6.75599083291061E+01  1.07495141192839E+00
(PID.TID 0000.0001)  ploadbar=  1.01165028383895E+05
 cg2d: Sum(rhs),rhsMax =  -6.74741226984130E+01  1.07681714039355E+00
(PID.TID 0000.0001)  ploadbar=  1.01165440179154E+05
 cg2d: Sum(rhs),rhsMax =  -6.73905562689708E+01  1.07869901055468E+00
(PID.TID 0000.0001)  ploadbar=  1.01165851974412E+05
 cg2d: Sum(rhs),rhsMax =  -6.73083876417483E+01  1.08060617448529E+00
(PID.TID 0000.0001)  ploadbar=  1.01166263769671E+05
 cg2d: Sum(rhs),rhsMax =  -6.73251334526851E+01  1.08091514900103E+00
(PID.TID 0000.0001)  ploadbar=  1.01165586578630E+05
 cg2d: Sum(rhs),rhsMax =  -6.73431344557952E+01  1.08119367752026E+00
(PID.TID 0000.0001)  ploadbar=  1.01164909387590E+05
 cg2d: Sum(rhs),rhsMax =  -6.73562783463273E+01  1.08154255899634E+00
(PID.TID 0000.0001)  ploadbar=  1.01164232196549E+05
 cg2d: Sum(rhs),rhsMax =  -6.73683549045560E+01  1.08190190515283E+00
(PID.TID 0000.0001)  ploadbar=  1.01163555005509E+05
 cg2d: Sum(rhs),rhsMax =  -6.73772464255250E+01  1.08230929605402E+00
(PID.TID 0000.0001)  ploadbar=  1.01162877814468E+05
 cg2d: Sum(rhs),rhsMax =  -6.73820787216963E+01  1.08277741728788E+00
(PID.TID 0000.0001)  ploadbar=  1.01162200623428E+05
 cg2d: Sum(rhs),rhsMax =  -6.73265547398492E+01  1.08421562808000E+00
(PID.TID 0000.0001)  ploadbar=  1.01164084759865E+05
 cg2d: Sum(rhs),rhsMax =  -6.72723010693981E+01  1.08562881115225E+00
(PID.TID 0000.0001)  ploadbar=  1.01165968896302E+05
 cg2d: Sum(rhs),rhsMax =  -6.72188725747840E+01  1.08702302838722E+00
(PID.TID 0000.0001)  ploadbar=  1.01167853032739E+05
 cg2d: Sum(rhs),rhsMax =  -6.71625999888065E+01  1.08845844047944E+00
(PID.TID 0000.0001)  ploadbar=  1.01169737169176E+05
 cg2d: Sum(rhs),rhsMax =  -6.71056168002092E+01  1.08990142037211E+00
(PID.TID 0000.0001)  ploadbar=  1.01171621305612E+05
 cg2d: Sum(rhs),rhsMax =  -6.70587150371425E+01  1.09117594335630E+00
(PID.TID 0000.0001)  ploadbar=  1.01173505442049E+05
 cg2d: Sum(rhs),rhsMax =  -6.69372283368218E+01  1.09359184255615E+00
(PID.TID 0000.0001)  ploadbar=  1.01173393311036E+05
 cg2d: Sum(rhs),rhsMax =  -6.68779432911656E+01  1.09491932595800E+00
(PID.TID 0000.0001)  ploadbar=  1.01173281180023E+05
 cg2d: Sum(rhs),rhsMax =  -6.68154353039479E+01  1.09622534530388E+00
(PID.TID 0000.0001)  ploadbar=  1.01173169049010E+05
 cg2d: Sum(rhs),rhsMax =  -6.67511876278799E+01  1.09748792027364E+00
(PID.TID 0000.0001)  ploadbar=  1.01173056917997E+05
 cg2d: Sum(rhs),rhsMax =  -6.66843222538136E+01  1.09872622401359E+00
(PID.TID 0000.0001)  ploadbar=  1.01172944786984E+05
 cg2d: Sum(rhs),rhsMax =  -6.66158935148525E+01  1.09992727354969E+00
(PID.TID 0000.0001)  ploadbar=  1.01172832655971E+05
 cg2d: Sum(rhs),rhsMax =  -6.66196141827174E+01  1.10000271300781E+00
(PID.TID 0000.0001)  ploadbar=  1.01171310163931E+05
 cg2d: Sum(rhs),rhsMax =  -6.66270433521760E+01  1.10007134628896E+00
(PID.TID 0000.0001)  ploadbar=  1.01169787671892E+05
 cg2d: Sum(rhs),rhsMax =  -6.66403751506585E+01  1.10009442742340E+00
(PID.TID 0000.0001)  ploadbar=  1.01168265179853E+05
 cg2d: Sum(rhs),rhsMax =  -6.66592122789780E+01  1.10007921544318E+00
(PID.TID 0000.0001)  ploadbar=  1.01166742687813E+05
 cg2d: Sum(rhs),rhsMax =  -6.66821250525045E+01  1.10004933094238E+00
(PID.TID 0000.0001)  ploadbar=  1.01165220195774E+05
 cg2d: Sum(rhs),rhsMax =  -6.67088041646974E+01  1.10000970888818E+00
(PID.TID 0000.0001)  ploadbar=  1.01163697703735E+05
 cg2d: Sum(rhs),rhsMax =  -6.66343674218773E+01  1.10161986727667E+00
(PID.TID 0000.0001)  ploadbar=  1.01163175687182E+05
 cg2d: Sum(rhs),rhsMax =  -6.65565513482526E+01  1.10327219081816E+00
(PID.TID 0000.0001)  ploadbar=  1.01162653670629E+05
 cg2d: Sum(rhs),rhsMax =  -6.64838230998798E+01  1.10482965898489E+00
(PID.TID 0000.0001)  ploadbar=  1.01162131654076E+05
 cg2d: Sum(rhs),rhsMax =  -6.64114420808373E+01  1.10637264617418E+00
(PID.TID 0000.0001)  ploadbar=  1.01161609637523E+05
 cg2d: Sum(rhs),rhsMax =  -6.63412981850002E+01  1.10787183759350E+00
(PID.TID 0000.0001)  ploadbar=  1.01161087620971E+05
 cg2d: Sum(rhs),rhsMax =  -6.59297783533349E+01  1.11511028867003E+00
(PID.TID 0000.0001)  ploadbar=  1.01160565604418E+05
 cg2d: Sum(rhs),rhsMax =  -6.49002798207896E+01  1.13312669144927E+00
(PID.TID 0000.0001)  ploadbar=  1.01160688590245E+05
 cg2d: Sum(rhs),rhsMax =  -6.41308606485436E+01  1.14704583513536E+00
(PID.TID 0000.0001)  ploadbar=  1.01160811576073E+05
 cg2d: Sum(rhs),rhsMax =  -6.36307233050140E+01  1.15638202676629E+00
(PID.TID 0000.0001)  ploadbar=  1.01160934561900E+05
 cg2d: Sum(rhs),rhsMax =  -6.33736540445264E+01  1.16138748758241E+00
(PID.TID 0000.0001)  ploadbar=  1.01161057547728E+05
 cg2d: Sum(rhs),rhsMax =  -6.33232322958714E+01  1.16261989576869E+00
(PID.TID 0000.0001)  ploadbar=  1.01161180533555E+05
 cg2d: Sum(rhs),rhsMax =  -6.34417679165375E+01  1.16074750678766E+00
(PID.TID 0000.0001)  ploadbar=  1.01161303519383E+05
 cg2d: Sum(rhs),rhsMax =  -6.37148685096696E+01  1.15603621831288E+00
(PID.TID 0000.0001)  ploadbar=  1.01160695258641E+05
 cg2d: Sum(rhs),rhsMax =  -6.40425054854174E+01  1.15034922804972E+00
(PID.TID 0000.0001)  ploadbar=  1.01160086997898E+05
 cg2d: Sum(rhs),rhsMax =  -6.44336495243272E+01  1.14355696179916E+00
(PID.TID 0000.0001)  ploadbar=  1.01159478737156E+05
 cg2d: Sum(rhs),rhsMax =  -6.48796379577063E+01  1.13585116924833E+00
(PID.TID 0000.0001)  ploadbar=  1.01158870476413E+05
 cg2d: Sum(rhs),rhsMax =  -6.51674259906402E+01  1.13095862231664E+00
(PID.TID 0000.0001)  ploadbar=  1.01158262215671E+05
 cg2d: Sum(rhs),rhsMax =  -6.50814326530198E+01  1.13255614810909E+00
(PID.TID 0000.0001)  ploadbar=  1.01157653954929E+05
 cg2d: Sum(rhs),rhsMax =  -6.50335972181565E+01  1.13354723399333E+00
(PID.TID 0000.0001)  ploadbar=  1.01157574998182E+05
 cg2d: Sum(rhs),rhsMax =  -6.49855792651611E+01  1.13458937354660E+00
(PID.TID 0000.0001)  ploadbar=  1.01157496041436E+05
 cg2d: Sum(rhs),rhsMax =  -6.49378489031710E+01  1.13567375260985E+00
(PID.TID 0000.0001)  ploadbar=  1.01157417084690E+05
 cg2d: Sum(rhs),rhsMax =  -6.48940345131505E+01  1.13673648748221E+00
(PID.TID 0000.0001)  ploadbar=  1.01157338127944E+05
 cg2d: Sum(rhs),rhsMax =  -6.48532609064837E+01  1.13779287837408E+00
(PID.TID 0000.0001)  ploadbar=  1.01157259171198E+05
 cg2d: Sum(rhs),rhsMax =  -6.48161022927440E+01  1.13883417165074E+00
(PID.TID 0000.0001)  ploadbar=  1.01157180214452E+05
 cg2d: Sum(rhs),rhsMax =  -6.47855818414126E+01  1.13974823390108E+00
(PID.TID 0000.0001)  ploadbar=  1.01156524695254E+05
 cg2d: Sum(rhs),rhsMax =  -6.47589487066168E+01  1.14058405216097E+00
(PID.TID 0000.0001)  ploadbar=  1.01155869176056E+05
 cg2d: Sum(rhs),rhsMax =  -6.47380625243698E+01  1.14131172998918E+00
(PID.TID 0000.0001)  ploadbar=  1.01155213656858E+05
 cg2d: Sum(rhs),rhsMax =  -6.47205579768121E+01  1.14197280046956E+00
(PID.TID 0000.0001)  ploadbar=  1.01154558137660E+05
 cg2d: Sum(rhs),rhsMax =  -6.47068803058564E+01  1.14256197869010E+00
(PID.TID 0000.0001)  ploadbar=  1.01153902618462E+05
 cg2d: Sum(rhs),rhsMax =  -6.46967439078628E+01  1.14308801757191E+00
(PID.TID 0000.0001)  ploadbar=  1.01153247099264E+05
 cg2d: Sum(rhs),rhsMax =  -6.46794682354086E+01  1.14376883293899E+00
(PID.TID 0000.0001)  ploadbar=  1.01153499378328E+05
 cg2d: Sum(rhs),rhsMax =  -6.46659952977168E+01  1.14440374661113E+00
(PID.TID 0000.0001)  ploadbar=  1.01153751657392E+05
 cg2d: Sum(rhs),rhsMax =  -6.46537693111240E+01  1.14503699813958E+00
(PID.TID 0000.0001)  ploadbar=  1.01154003936456E+05
 cg2d: Sum(rhs),rhsMax =  -6.46451831039489E+01  1.14562590267665E+00
(PID.TID 0000.0001)  ploadbar=  1.01154256215520E+05
 cg2d: Sum(rhs),rhsMax =  -6.46416835122634E+01  1.14614284050491E+00
(PID.TID 0000.0001)  ploadbar=  1.01154508494584E+05
 cg2d: Sum(rhs),rhsMax =  -6.46436978329361E+01  1.14658068864596E+00
(PID.TID 0000.0001)  ploadbar=  1.01154760773647E+05
 cg2d: Sum(rhs),rhsMax =  -6.46908054849934E+01  1.14616888168243E+00
(PID.TID 0000.0001)  ploadbar=  1.01154460225129E+05
 cg2d: Sum(rhs),rhsMax =  -6.47431669945421E+01  1.14561363422968E+00
(PID.TID 0000.0001)  ploadbar=  1.01154159676610E+05
 cg2d: Sum(rhs),rhsMax =  -6.47900365686530E+01  1.14510386735351E+00
(PID.TID 0000.0001)  ploadbar=  1.01153859128091E+05
 cg2d: Sum(rhs),rhsMax =  -6.48357359982721E+01  1.14456528016555E+00
(PID.TID 0000.0001)  ploadbar=  1.01153558579572E+05
 cg2d: Sum(rhs),rhsMax =  -6.48789761542456E+01  1.14402617252406E+00
(PID.TID 0000.0001)  ploadbar=  1.01153258031054E+05
 cg2d: Sum(rhs),rhsMax =  -6.49190479195774E+01  1.14350291021472E+00
(PID.TID 0000.0001)  ploadbar=  1.01152957482535E+05
 cg2d: Sum(rhs),rhsMax =  -6.49414444777583E+01  1.14334653114164E+00
(PID.TID 0000.0001)  ploadbar=  1.01153334510533E+05
 cg2d: Sum(rhs),rhsMax =  -6.49734808879305E+01  1.14307074227771E+00
(PID.TID 0000.0001)  ploadbar=  1.01153711538532E+05
 cg2d: Sum(rhs),rhsMax =  -6.50020942452110E+01  1.14290387503107E+00
(PID.TID 0000.0001)  ploadbar=  1.01154088566530E+05
 cg2d: Sum(rhs),rhsMax =  -6.50312559932893E+01  1.14277553093482E+00
(PID.TID 0000.0001)  ploadbar=  1.01154465594529E+05
 cg2d: Sum(rhs),rhsMax =  -6.50647746546423E+01  1.14261840146213E+00
(PID.TID 0000.0001)  ploadbar=  1.01154842622527E+05
 cg2d: Sum(rhs),rhsMax =  -6.51034602572737E+01  1.14241852348908E+00
(PID.TID 0000.0001)  ploadbar=  1.01155219650526E+05
 cg2d: Sum(rhs),rhsMax =  -6.51542875155753E+01  1.14197656549544E+00
(PID.TID 0000.0001)  ploadbar=  1.01155943507714E+05
 cg2d: Sum(rhs),rhsMax =  -6.52066229548699E+01  1.14148137579658E+00
(PID.TID 0000.0001)  ploadbar=  1.01156667364902E+05
 cg2d: Sum(rhs),rhsMax =  -6.52609650153841E+01  1.14092684561055E+00
(PID.TID 0000.0001)  ploadbar=  1.01157391222090E+05
 cg2d: Sum(rhs),rhsMax =  -6.53161605019309E+01  1.14033468658028E+00
(PID.TID 0000.0001)  ploadbar=  1.01158115079278E+05
 cg2d: Sum(rhs),rhsMax =  -6.53721181361293E+01  1.13970844209817E+00
(PID.TID 0000.0001)  ploadbar=  1.01158838936466E+05
 cg2d: Sum(rhs),rhsMax =  -6.54290440192742E+01  1.13904459072333E+00
(PID.TID 0000.0001)  ploadbar=  1.01159562793654E+05
 cg2d: Sum(rhs),rhsMax =  -6.54699864351892E+01  1.13869565115784E+00
(PID.TID 0000.0001)  ploadbar=  1.01159096612119E+05
 cg2d: Sum(rhs),rhsMax =  -6.55150420763673E+01  1.13830362082656E+00
(PID.TID 0000.0001)  ploadbar=  1.01158630430583E+05
 cg2d: Sum(rhs),rhsMax =  -6.55541023986089E+01  1.13804169877116E+00
(PID.TID 0000.0001)  ploadbar=  1.01158164249047E+05
 cg2d: Sum(rhs),rhsMax =  -6.53998651652166E+01  1.14116679790865E+00
(PID.TID 0000.0001)  ploadbar=  1.01157698067512E+05
 cg2d: Sum(rhs),rhsMax =  -6.50979045722598E+01  1.14692586288232E+00
(PID.TID 0000.0001)  ploadbar=  1.01157231885976E+05
 cg2d: Sum(rhs),rhsMax =  -6.48344680040490E+01  1.15207405944541E+00
(PID.TID 0000.0001)  ploadbar=  1.01156765704440E+05
 cg2d: Sum(rhs),rhsMax =  -6.46043662569982E+01  1.15661181684376E+00
(PID.TID 0000.0001)  ploadbar=  1.01156863320821E+05
 cg2d: Sum(rhs),rhsMax =  -6.44176063943070E+01  1.16034423654930E+00
(PID.TID 0000.0001)  ploadbar=  1.01156960937202E+05
 cg2d: Sum(rhs),rhsMax =  -6.42746892997906E+01  1.16325068459312E+00
(PID.TID 0000.0001)  ploadbar=  1.01157058553583E+05
 cg2d: Sum(rhs),rhsMax =  -6.41855095191755E+01  1.16514084369320E+00
(PID.TID 0000.0001)  ploadbar=  1.01157156169965E+05
 cg2d: Sum(rhs),rhsMax =  -6.41449390239053E+01  1.16610199699747E+00
(PID.TID 0000.0001)  ploadbar=  1.01157253786346E+05
 cg2d: Sum(rhs),rhsMax =  -6.41506975850479E+01  1.16617508980972E+00
(PID.TID 0000.0001)  ploadbar=  1.01157351402727E+05
 cg2d: Sum(rhs),rhsMax =  -6.42131666663404E+01  1.16524561885635E+00
(PID.TID 0000.0001)  ploadbar=  1.01157277045410E+05
 cg2d: Sum(rhs),rhsMax =  -6.43339197617666E+01  1.16328789843584E+00
(PID.TID 0000.0001)  ploadbar=  1.01157202688093E+05
 cg2d: Sum(rhs),rhsMax =  -6.45149492188907E+01  1.16027786839107E+00
(PID.TID 0000.0001)  ploadbar=  1.01157128330776E+05
 cg2d: Sum(rhs),rhsMax =  -6.47560704192614E+01  1.15623570052589E+00
(PID.TID 0000.0001)  ploadbar=  1.01157053973459E+05
 cg2d: Sum(rhs),rhsMax =  -6.50512091842145E+01  1.15129336174298E+00
(PID.TID 0000.0001)  ploadbar=  1.01156979616142E+05
 cg2d: Sum(rhs),rhsMax =  -6.53920850356756E+01  1.14562244897789E+00
(PID.TID 0000.0001)  ploadbar=  1.01156905258825E+05
 cg2d: Sum(rhs),rhsMax =  -6.55252277455279E+01  1.14358571374316E+00
(PID.TID 0000.0001)  ploadbar=  1.01156662755822E+05
 cg2d: Sum(rhs),rhsMax =  -6.54999354879930E+01  1.14427946364923E+00
(PID.TID 0000.0001)  ploadbar=  1.01156420252818E+05
 cg2d: Sum(rhs),rhsMax =  -6.54808579207070E+01  1.14482885700415E+00
(PID.TID 0000.0001)  ploadbar=  1.01156177749815E+05
 cg2d: Sum(rhs),rhsMax =  -6.54647005776211E+01  1.14529922747598E+00
(PID.TID 0000.0001)  ploadbar=  1.01155935246811E+05
 cg2d: Sum(rhs),rhsMax =  -6.54504977155332E+01  1.14571049328386E+00
(PID.TID 0000.0001)  ploadbar=  1.01155692743807E+05
 cg2d: Sum(rhs),rhsMax =  -6.54396975884609E+01  1.14603606519090E+00
(PID.TID 0000.0001)  ploadbar=  1.01155450240804E+05
 cg2d: Sum(rhs),rhsMax =  -6.54330289391115E+01  1.14629457124100E+00
(PID.TID 0000.0001)  ploadbar=  1.01155554108176E+05
 cg2d: Sum(rhs),rhsMax =  -6.54257213052462E+01  1.14656241697721E+00
(PID.TID 0000.0001)  ploadbar=  1.01155657975549E+05
 cg2d: Sum(rhs),rhsMax =  -6.54234825885523E+01  1.14673740788535E+00
(PID.TID 0000.0001)  ploadbar=  1.01155761842921E+05
 cg2d: Sum(rhs),rhsMax =  -6.54213235455345E+01  1.14690546849099E+00
(PID.TID 0000.0001)  ploadbar=  1.01155865710294E+05
 cg2d: Sum(rhs),rhsMax =  -6.54189583472831E+01  1.14707192475771E+00
(PID.TID 0000.0001)  ploadbar=  1.01155969577667E+05
 cg2d: Sum(rhs),rhsMax =  -6.54196709155186E+01  1.14717782897050E+00
(PID.TID 0000.0001)  ploadbar=  1.01156073445039E+05
 cg2d: Sum(rhs),rhsMax =  -6.54515454683309E+01  1.14670144022109E+00
(PID.TID 0000.0001)  ploadbar=  1.01154966788462E+05
 cg2d: Sum(rhs),rhsMax =  -6.54871790807374E+01  1.14612278301159E+00
(PID.TID 0000.0001)  ploadbar=  1.01153860131885E+05
 cg2d: Sum(rhs),rhsMax =  -6.55272172906641E+01  1.14542998745350E+00
(PID.TID 0000.0001)  ploadbar=  1.01152753475308E+05
 cg2d: Sum(rhs),rhsMax =  -6.55675082510903E+01  1.14469433573370E+00
(PID.TID 0000.0001)  ploadbar=  1.01151646818731E+05
 cg2d: Sum(rhs),rhsMax =  -6.56041266991724E+01  1.14398925755616E+00
(PID.TID 0000.0001)  ploadbar=  1.01150540162154E+05
 cg2d: Sum(rhs),rhsMax =  -6.56354925247621E+01  1.14334605082762E+00
(PID.TID 0000.0001)  ploadbar=  1.01149433505577E+05
 cg2d: Sum(rhs),rhsMax =  -6.56645948950816E+01  1.14282392748234E+00
(PID.TID 0000.0001)  ploadbar=  1.01147846206732E+05
 cg2d: Sum(rhs),rhsMax =  -6.56973186078447E+01  1.14231568212743E+00
(PID.TID 0000.0001)  ploadbar=  1.01146258907886E+05
 cg2d: Sum(rhs),rhsMax =  -6.57305662237410E+01  1.14187463270141E+00
(PID.TID 0000.0001)  ploadbar=  1.01144671609040E+05
 cg2d: Sum(rhs),rhsMax =  -6.57629801168582E+01  1.14152402950179E+00
(PID.TID 0000.0001)  ploadbar=  1.01143084310195E+05
 cg2d: Sum(rhs),rhsMax =  -6.57943371586712E+01  1.14126760109997E+00
(PID.TID 0000.0001)  ploadbar=  1.01141497011349E+05
 cg2d: Sum(rhs),rhsMax =  -6.58251152800123E+01  1.14109684111266E+00
(PID.TID 0000.0001)  ploadbar=  1.01139909712504E+05
 cg2d: Sum(rhs),rhsMax =  -6.58642583865994E+01  1.14079018111450E+00
(PID.TID 0000.0001)  ploadbar=  1.01138328414534E+05
 cg2d: Sum(rhs),rhsMax =  -6.59056091970495E+01  1.14045146460050E+00
(PID.TID 0000.0001)      cg2d_init_res =   3.07617973842637E-01
(PID.TID 0000.0001)      cg2d_iters(min,last) =      -1     149
(PID.TID 0000.0001)      cg2d_last_res =   9.78618761545975E-08
(PID.TID 0000.0001) // =======================================================
(PID.TID 0000.0001) // Begin MONITOR dynamic field statistics
(PID.TID 0000.0001) // =======================================================
(PID.TID 0000.0001) %MON time_tsnumber                =                 12264
(PID.TID 0000.0001) %MON time_secondsf                =   4.4150400000000E+07
(PID.TID 0000.0001) %MON dynstat_eta_max              =   1.1592432368707E+00
(PID.TID 0000.0001) %MON dynstat_eta_min              =  -5.9732064470429E+00
(PID.TID 0000.0001) %MON dynstat_eta_mean             =   3.8041900961765E-02
(PID.TID 0000.0001) %MON dynstat_eta_sd               =   7.9259596706008E-01
(PID.TID 0000.0001) %MON dynstat_eta_del2             =   2.6134303138755E-04
(PID.TID 0000.0001) %MON dynstat_uvel_max             =   7.9530123510031E-01
(PID.TID 0000.0001) %MON dynstat_uvel_min             =  -9.4639853071072E-01
(PID.TID 0000.0001) %MON dynstat_uvel_mean            =   1.4477557115248E-03
(PID.TID 0000.0001) %MON dynstat_uvel_sd              =   2.0658831137859E-02
(PID.TID 0000.0001) %MON dynstat_uvel_del2            =   8.3874850182576E-06
(PID.TID 0000.0001) %MON dynstat_vvel_max             =   8.6080496316034E-01
(PID.TID 0000.0001) %MON dynstat_vvel_min             =  -9.9107454565511E-01
(PID.TID 0000.0001) %MON dynstat_vvel_mean            =   1.1511918238698E-03
(PID.TID 0000.0001) %MON dynstat_vvel_sd              =   2.1051784228151E-02
(PID.TID 0000.0001) %MON dynstat_vvel_del2            =   8.7422953391722E-06
(PID.TID 0000.0001) %MON dynstat_wvel_max             =   9.9044555926482E-04
(PID.TID 0000.0001) %MON dynstat_wvel_min             =  -8.5197379485821E-04
(PID.TID 0000.0001) %MON dynstat_wvel_mean            =  -2.6879413390791E-09
(PID.TID 0000.0001) %MON dynstat_wvel_sd              =   1.9264947677768E-05
(PID.TID 0000.0001) %MON dynstat_wvel_del2            =   1.5463227805210E-08
(PID.TID 0000.0001) %MON dynstat_theta_max            =   3.1954680976924E+01
(PID.TID 0000.0001) %MON dynstat_theta_min            =  -1.9824732925525E+00
(PID.TID 0000.0001) %MON dynstat_theta_mean           =   3.5851196568714E+00
(PID.TID 0000.0001) %MON dynstat_theta_sd             =   4.4406446723381E+00
(PID.TID 0000.0001) %MON dynstat_theta_del2           =   8.6983745496757E-05
(PID.TID 0000.0001) %MON dynstat_salt_max             =   4.0647919883154E+01
(PID.TID 0000.0001) %MON dynstat_salt_min             =   2.1799005449473E+01
(PID.TID 0000.0001) %MON dynstat_salt_mean            =   3.4727271574129E+01
(PID.TID 0000.0001) %MON dynstat_salt_sd              =   3.7557599927244E-01
(PID.TID 0000.0001) %MON dynstat_salt_del2            =   1.8917118642626E-05
(PID.TID 0000.0001) %MON dynstat_sst_max              =   3.1954680976924E+01
(PID.TID 0000.0001) %MON dynstat_sst_min              =  -1.9607569723475E+00
(PID.TID 0000.0001) %MON dynstat_sst_mean             =   1.8210076370414E+01
(PID.TID 0000.0001) %MON dynstat_sst_sd               =   1.0430763476782E+01
(PID.TID 0000.0001) %MON dynstat_sst_del2             =   6.0816089537242E-04
(PID.TID 0000.0001) %MON dynstat_sss_max              =   3.9476238191645E+01
(PID.TID 0000.0001) %MON dynstat_sss_min              =   2.1799005449473E+01
(PID.TID 0000.0001) %MON dynstat_sss_mean             =   3.4755449777772E+01
(PID.TID 0000.0001) %MON dynstat_sss_sd               =   1.1611343261308E+00
(PID.TID 0000.0001) %MON dynstat_sss_del2             =   3.0158702982602E-04
(PID.TID 0000.0001) %MON forcing_qnet_max             =   8.9696684127082E+02
(PID.TID 0000.0001) %MON forcing_qnet_min             =  -5.6742084571825E+02
(PID.TID 0000.0001) %MON forcing_qnet_mean            =   4.2017020355530E+01
(PID.TID 0000.0001) %MON forcing_qnet_sd              =   1.6354134522440E+02
(PID.TID 0000.0001) %MON forcing_qnet_del2            =   8.8323294018617E-02
(PID.TID 0000.0001) %MON forcing_qsw_max              =   4.9634133928860E+01
(PID.TID 0000.0001) %MON forcing_qsw_min              =  -6.8962575688705E+02
(PID.TID 0000.0001) %MON forcing_qsw_mean             =  -1.1566149296829E+02
(PID.TID 0000.0001) %MON forcing_qsw_sd               =   1.4593793304305E+02
(PID.TID 0000.0001) %MON forcing_qsw_del2             =   5.4278491211989E-02
(PID.TID 0000.0001) %MON forcing_empmr_max            =   2.2951395292495E-03
(PID.TID 0000.0001) %MON forcing_empmr_min            =  -3.1695469985212E-03
(PID.TID 0000.0001) %MON forcing_empmr_mean           =  -3.5949240066035E-06
(PID.TID 0000.0001) %MON forcing_empmr_sd             =   9.8956377741196E-05
(PID.TID 0000.0001) %MON forcing_empmr_del2           =   2.6109430195692E-07
(PID.TID 0000.0001) %MON forcing_fu_max               =   1.2695122758547E+00
(PID.TID 0000.0001) %MON forcing_fu_min               =  -6.8735981980960E-01
(PID.TID 0000.0001) %MON forcing_fu_mean              =   6.3256469927369E-03
(PID.TID 0000.0001) %MON forcing_fu_sd                =   1.3385423582483E-01
(PID.TID 0000.0001) %MON forcing_fu_del2              =   6.2854192728586E-05
(PID.TID 0000.0001) %MON forcing_fv_max               =   7.0823139050776E-01
(PID.TID 0000.0001) %MON forcing_fv_min               =  -5.6532067060471E-01
(PID.TID 0000.0001) %MON forcing_fv_mean              =   2.5868103547649E-03
(PID.TID 0000.0001) %MON forcing_fv_sd                =   1.1175086850798E-01
(PID.TID 0000.0001) %MON forcing_fv_del2              =   6.0536087831661E-05
(PID.TID 0000.0001) %MON trAdv_CFL_u_max              =   5.5008465216336E-02
(PID.TID 0000.0001) %MON trAdv_CFL_v_max              =   6.0862756091845E-02
(PID.TID 0000.0001) %MON trAdv_CFL_w_max              =   1.2359429333406E-01
(PID.TID 0000.0001) %MON advcfl_uvel_max              =   4.7157005916035E-02
(PID.TID 0000.0001) %MON advcfl_vvel_max              =   6.3481290163939E-02
(PID.TID 0000.0001) %MON advcfl_wvel_max              =   1.0608420026081E-01
(PID.TID 0000.0001) %MON advcfl_W_hf_max              =   1.1123449938199E-01
(PID.TID 0000.0001) %MON pe_b_mean                    =   1.3333916832780E-03
(PID.TID 0000.0001) %MON ke_max                       =   5.3654536628802E-01
(PID.TID 0000.0001) %MON ke_mean                      =   4.2114022193185E-04
(PID.TID 0000.0001) %MON ke_vol                       =   1.3350114919644E+18
(PID.TID 0000.0001) %MON vort_r_min                   =  -2.3587559493401E-05
(PID.TID 0000.0001) %MON vort_r_max                   =   2.2458880790760E-05
(PID.TID 0000.0001) %MON vort_a_mean                  =  -1.9727864647440E-05
(PID.TID 0000.0001) %MON vort_a_sd                    =   7.4543083972286E-05
(PID.TID 0000.0001) %MON vort_p_mean                  =  -2.1760293965620E-05
(PID.TID 0000.0001) %MON vort_p_sd                    =   9.7248760083360E-05
(PID.TID 0000.0001) %MON surfExpan_theta_mean         =  -1.6230708441815E-07
(PID.TID 0000.0001) %MON surfExpan_salt_mean          =   3.3783342815198E-08
(PID.TID 0000.0001) // =======================================================
(PID.TID 0000.0001) // End MONITOR dynamic field statistics
(PID.TID 0000.0001) // =======================================================
(PID.TID 0000.0001)  ploadbar=  1.01136747116564E+05
(PID.TID 0000.0001) %SBO sbo_mass                     =   1.3737574961064E+21
(PID.TID 0000.0001) %SBO sbo_mass_fw                  =   4.4680735846288E+16
(PID.TID 0000.0001) %SBO sbo_zoamc                    =   1.1857374669301E+25
(PID.TID 0000.0001) %SBO sbo_zoamp                    =   2.9276657921540E+30
(PID.TID 0000.0001) // =======================================================
(PID.TID 0000.0001) // Begin MONITOR SEAICE statistics
(PID.TID 0000.0001) // =======================================================
(PID.TID 0000.0001) %MON seaice_tsnumber              =                 12264
(PID.TID 0000.0001) %MON seaice_time_sec              =   4.4150400000000E+07
(PID.TID 0000.0001) %MON seaice_uice_max              =   4.0000000000000E-01
(PID.TID 0000.0001) %MON seaice_uice_min              =  -4.0000000000000E-01
(PID.TID 0000.0001) %MON seaice_uice_mean             =  -5.6948438189307E-03
(PID.TID 0000.0001) %MON seaice_uice_sd               =   1.8121135605472E-01
(PID.TID 0000.0001) %MON seaice_uice_del2             =   1.4151818810998E-04
(PID.TID 0000.0001) %MON seaice_vice_max              =   4.0000000000000E-01
(PID.TID 0000.0001) %MON seaice_vice_min              =  -4.0000000000000E-01
(PID.TID 0000.0001) %MON seaice_vice_mean             =  -1.2222908560712E-02
(PID.TID 0000.0001) %MON seaice_vice_sd               =   1.8074245009947E-01
(PID.TID 0000.0001) %MON seaice_vice_del2             =   1.4315783157694E-04
(PID.TID 0000.0001) %MON seaice_area_max              =   9.7000000000000E-01
(PID.TID 0000.0001) %MON seaice_area_min              =   0.0000000000000E+00
(PID.TID 0000.0001) %MON seaice_area_mean             =   6.2608695067278E-02
(PID.TID 0000.0001) %MON seaice_area_sd               =   2.2929709629400E-01
(PID.TID 0000.0001) %MON seaice_area_del2             =   2.1194944958891E-04
(PID.TID 0000.0001) %MON seaice_heff_max              =   5.8032247380128E+00
(PID.TID 0000.0001) %MON seaice_heff_min              =   0.0000000000000E+00
(PID.TID 0000.0001) %MON seaice_heff_mean             =   8.9649193616127E-02
(PID.TID 0000.0001) %MON seaice_heff_sd               =   4.2285600034366E-01
(PID.TID 0000.0001) %MON seaice_heff_del2             =   2.7886484402312E-04
(PID.TID 0000.0001) %MON seaice_hsnow_max             =   1.2292999429480E+00
(PID.TID 0000.0001) %MON seaice_hsnow_min             =  -4.2908696845193E-05
(PID.TID 0000.0001) %MON seaice_hsnow_mean            =   1.2350940367507E-02
(PID.TID 0000.0001) %MON seaice_hsnow_sd              =   5.9731799998660E-02
(PID.TID 0000.0001) %MON seaice_hsnow_del2            =   5.1129284278030E-05
(PID.TID 0000.0001) // =======================================================
(PID.TID 0000.0001) // End MONITOR SEAICE statistics
(PID.TID 0000.0001) // =======================================================
(PID.TID 0000.0001) // =======================================================
(PID.TID 0000.0001) // Begin MONITOR EXF statistics
(PID.TID 0000.0001) // =======================================================
(PID.TID 0000.0001) %MON exf_tsnumber                 =                 12264
(PID.TID 0000.0001) %MON exf_time_sec                 =   4.4150400000000E+07
(PID.TID 0000.0001) %MON exf_ustress_max              =   1.2865241765976E+00
(PID.TID 0000.0001) %MON exf_ustress_min              =  -8.1635534763336E-01
(PID.TID 0000.0001) %MON exf_ustress_mean             =   5.9774967967754E-03
(PID.TID 0000.0001) %MON exf_ustress_sd               =   1.3468711429316E-01
(PID.TID 0000.0001) %MON exf_ustress_del2             =   8.0390285477207E-05
(PID.TID 0000.0001) %MON exf_vstress_max              =   9.0066087764781E-01
(PID.TID 0000.0001) %MON exf_vstress_min              =  -5.9247130155563E-01
(PID.TID 0000.0001) %MON exf_vstress_mean             =   2.5268524573670E-03
(PID.TID 0000.0001) %MON exf_vstress_sd               =   1.1121150225391E-01
(PID.TID 0000.0001) %MON exf_vstress_del2             =   7.5919952459886E-05
(PID.TID 0000.0001) %MON exf_hflux_max                =   1.2851339939822E+03
(PID.TID 0000.0001) %MON exf_hflux_min                =  -5.3385249779618E+02
(PID.TID 0000.0001) %MON exf_hflux_mean               =   4.3377565758309E+01
(PID.TID 0000.0001) %MON exf_hflux_sd                 =   1.8569056707705E+02
(PID.TID 0000.0001) %MON exf_hflux_del2               =   3.2803890218732E-01
(PID.TID 0000.0001) %MON exf_sflux_max                =   2.0645153711190E-07
(PID.TID 0000.0001) %MON exf_sflux_min                =  -3.1590253198284E-06
(PID.TID 0000.0001) %MON exf_sflux_mean               =  -2.6174133071116E-09
(PID.TID 0000.0001) %MON exf_sflux_sd                 =   8.7211532652015E-08
(PID.TID 0000.0001) %MON exf_sflux_del2               =   1.7962097299532E-10
(PID.TID 0000.0001) %MON exf_wspeed_max               =   2.1071719169617E+01
(PID.TID 0000.0001) %MON exf_wspeed_min               =   5.4447671771049E-01
(PID.TID 0000.0001) %MON exf_wspeed_mean              =   7.3060564547231E+00
(PID.TID 0000.0001) %MON exf_wspeed_sd                =   3.2609362541269E+00
(PID.TID 0000.0001) %MON exf_wspeed_del2              =   1.2662712687901E-02
(PID.TID 0000.0001) %MON exf_atemp_max                =   3.1236984863281E+02
(PID.TID 0000.0001) %MON exf_atemp_min                =   2.2243785896301E+02
(PID.TID 0000.0001) %MON exf_atemp_mean               =   2.8988432183719E+02
(PID.TID 0000.0001) %MON exf_atemp_sd                 =   1.1282403598058E+01
(PID.TID 0000.0001) %MON exf_atemp_del2               =   2.4630722200302E-02
(PID.TID 0000.0001) %MON exf_aqh_max                  =   2.5599951855838E-02
(PID.TID 0000.0001) %MON exf_aqh_min                  =  -8.1001237504097E-06
(PID.TID 0000.0001) %MON exf_aqh_mean                 =   1.1203668068331E-02
(PID.TID 0000.0001) %MON exf_aqh_sd                   =   5.7744294866076E-03
(PID.TID 0000.0001) %MON exf_aqh_del2                 =   1.5124505992486E-05
(PID.TID 0000.0001) %MON exf_lwflux_max               =   2.2107581847152E+02
(PID.TID 0000.0001) %MON exf_lwflux_min               =  -5.0175932481582E+01
(PID.TID 0000.0001) %MON exf_lwflux_mean              =   4.3381534448533E+01
(PID.TID 0000.0001) %MON exf_lwflux_sd                =   2.4858703304247E+01
(PID.TID 0000.0001) %MON exf_lwflux_del2              =   7.6597613490506E-02
(PID.TID 0000.0001) %MON exf_evap_max                 =   2.7231878810893E-07
(PID.TID 0000.0001) %MON exf_evap_min                 =  -2.2073256710862E-08
(PID.TID 0000.0001) %MON exf_evap_mean                =   4.2401952378335E-08
(PID.TID 0000.0001) %MON exf_evap_sd                  =   2.9503416519705E-08
(PID.TID 0000.0001) %MON exf_evap_del2                =   7.0431492034093E-11
(PID.TID 0000.0001) %MON exf_precip_max               =   1.5121862020351E-06
(PID.TID 0000.0001) %MON exf_precip_min               =  -2.6223814231230E-08
(PID.TID 0000.0001) %MON exf_precip_mean              =   4.0368094811504E-08
(PID.TID 0000.0001) %MON exf_precip_sd                =   7.0632203047813E-08
(PID.TID 0000.0001) %MON exf_precip_del2              =   1.7307305419307E-10
(PID.TID 0000.0001) %MON exf_swflux_max               =   5.2556553562368E+01
(PID.TID 0000.0001) %MON exf_swflux_min               =  -6.2813253172984E+02
(PID.TID 0000.0001) %MON exf_swflux_mean              =  -1.2635579363569E+02
(PID.TID 0000.0001) %MON exf_swflux_sd                =   1.4801263704396E+02
(PID.TID 0000.0001) %MON exf_swflux_del2              =   2.6292786883738E-01
(PID.TID 0000.0001) %MON exf_swdown_max               =   6.7794329833984E+02
(PID.TID 0000.0001) %MON exf_swdown_min               =  -6.6663272857666E+01
(PID.TID 0000.0001) %MON exf_swdown_mean              =   1.3737213459820E+02
(PID.TID 0000.0001) %MON exf_swdown_sd                =   1.6009932505260E+02
(PID.TID 0000.0001) %MON exf_swdown_del2              =   2.8631434767802E-01
(PID.TID 0000.0001) %MON exf_lwdown_max               =   4.7118644714355E+02
(PID.TID 0000.0001) %MON exf_lwdown_min               =   7.9124198913574E+01
(PID.TID 0000.0001) %MON exf_lwdown_mean              =   3.6697663210888E+02
(PID.TID 0000.0001) %MON exf_lwdown_sd                =   5.8464628006844E+01
(PID.TID 0000.0001) %MON exf_lwdown_del2              =   4.9729580925130E-01
(PID.TID 0000.0001) %MON exf_apressure_max            =   1.0354763671875E+05
(PID.TID 0000.0001) %MON exf_apressure_min            =   9.4401535156250E+04
(PID.TID 0000.0001) %MON exf_apressure_mean           =   1.0113516581859E+05
(PID.TID 0000.0001) %MON exf_apressure_sd             =   1.1485221914056E+03
(PID.TID 0000.0001) %MON exf_apressure_del2           =   1.4513235780347E+02
(PID.TID 0000.0001) %MON exf_runoff_max               =   3.1856565641885E-06
(PID.TID 0000.0001) %MON exf_runoff_min               =   0.0000000000000E+00
(PID.TID 0000.0001) %MON exf_runoff_mean              =   4.6512708739432E-09
(PID.TID 0000.0001) %MON exf_runoff_sd                =   4.0722969529259E-08
(PID.TID 0000.0001) %MON exf_runoff_del2              =   4.7846032036813E-11
(PID.TID 0000.0001) // =======================================================
(PID.TID 0000.0001) // End MONITOR EXF statistics
(PID.TID 0000.0001) // =======================================================
 cg2d: Sum(rhs),rhsMax =  -6.59441512044111E+01  1.14017166955719E+00
(PID.TID 0000.0001)  ploadbar=  1.01135165818595E+05
 cg2d: Sum(rhs),rhsMax =  -6.59822138631142E+01  1.13991220372407E+00
(PID.TID 0000.0001)  ploadbar=  1.01133584520625E+05
 cg2d: Sum(rhs),rhsMax =  -6.60206798637146E+01  1.13965946651371E+00
(PID.TID 0000.0001)  ploadbar=  1.01132003222655E+05
 cg2d: Sum(rhs),rhsMax =  -6.60606532917147E+01  1.13939456986446E+00
(PID.TID 0000.0001)  ploadbar=  1.01130421924686E+05
 cg2d: Sum(rhs),rhsMax =  -6.60307697469035E+01  1.14034844088278E+00
(PID.TID 0000.0001)  ploadbar=  1.01127996405599E+05
 cg2d: Sum(rhs),rhsMax =  -6.60064373000207E+01  1.14121297495363E+00
(PID.TID 0000.0001)  ploadbar=  1.01125570886512E+05
 cg2d: Sum(rhs),rhsMax =  -6.59810215725123E+01  1.14210176994708E+00
(PID.TID 0000.0001)  ploadbar=  1.01123145367425E+05
 cg2d: Sum(rhs),rhsMax =  -6.59572588086683E+01  1.14296529522019E+00
(PID.TID 0000.0001)  ploadbar=  1.01120719848338E+05
 cg2d: Sum(rhs),rhsMax =  -6.59373877913351E+01  1.14376378372084E+00
(PID.TID 0000.0001)  ploadbar=  1.01118294329252E+05
 cg2d: Sum(rhs),rhsMax =  -6.59194384658820E+01  1.14452880319911E+00
(PID.TID 0000.0001)  ploadbar=  1.01115868810165E+05
 cg2d: Sum(rhs),rhsMax =  -6.58879809974777E+01  1.14548524906523E+00
(PID.TID 0000.0001)  ploadbar=  1.01113846276836E+05
 cg2d: Sum(rhs),rhsMax =  -6.58508002754513E+01  1.14649703111843E+00
(PID.TID 0000.0001)  ploadbar=  1.01111823743507E+05
 cg2d: Sum(rhs),rhsMax =  -6.58077533608719E+01  1.14756648760078E+00
(PID.TID 0000.0001)  ploadbar=  1.01109801210178E+05
 cg2d: Sum(rhs),rhsMax =  -6.57593107752794E+01  1.14868564729682E+00
(PID.TID 0000.0001)  ploadbar=  1.01107778676849E+05
 cg2d: Sum(rhs),rhsMax =  -6.57058432261840E+01  1.14985402703044E+00
(PID.TID 0000.0001)  ploadbar=  1.01105756143520E+05
 cg2d: Sum(rhs),rhsMax =  -6.00927748209270E+01  1.25747362604483E+00
(PID.TID 0000.0001)  ploadbar=  1.01103733610192E+05
 cg2d: Sum(rhs),rhsMax =  -5.34343767727525E+01  1.41450092853083E+00
(PID.TID 0000.0001)  ploadbar=  1.01101930753521E+05
 cg2d: Sum(rhs),rhsMax =  -4.75035159428214E+01  1.59157755568287E+00
(PID.TID 0000.0001)  ploadbar=  1.01100127896850E+05
 cg2d: Sum(rhs),rhsMax =  -4.36884701941231E+01  1.73118137088208E+00
(PID.TID 0000.0001)  ploadbar=  1.01098325040179E+05
 cg2d: Sum(rhs),rhsMax =  -4.07081479817529E+01  1.85870404991163E+00
(PID.TID 0000.0001)  ploadbar=  1.01096522183508E+05
 cg2d: Sum(rhs),rhsMax =  -3.82941422630866E+01  1.97682398792038E+00
(PID.TID 0000.0001)  ploadbar=  1.01094719326837E+05
 cg2d: Sum(rhs),rhsMax =  -3.63338295988545E+01  2.08460895038768E+00
(PID.TID 0000.0001)  ploadbar=  1.01092916470166E+05
 cg2d: Sum(rhs),rhsMax =  -3.47721638108652E+01  2.17939750225330E+00
(PID.TID 0000.0001)  ploadbar=  1.01092494637980E+05
 cg2d: Sum(rhs),rhsMax =  -3.34672357056429E+01  2.26556470525130E+00
(PID.TID 0000.0001)  ploadbar=  1.01092072805793E+05
 cg2d: Sum(rhs),rhsMax =  -3.24179923413121E+01  2.34010416366943E+00
(PID.TID 0000.0001)  ploadbar=  1.01091650973606E+05
 cg2d: Sum(rhs),rhsMax =  -3.15775860756760E+01  2.40362353456166E+00
(PID.TID 0000.0001)  ploadbar=  1.01091229141420E+05
 cg2d: Sum(rhs),rhsMax =  -3.09171475715214E+01  2.45623362321050E+00
(PID.TID 0000.0001)  ploadbar=  1.01090807309233E+05
 cg2d: Sum(rhs),rhsMax =  -3.04138059806532E+01  2.49816400442538E+00
(PID.TID 0000.0001)  ploadbar=  1.01090385477047E+05
 cg2d: Sum(rhs),rhsMax =  -3.00538911236277E+01  2.52936757055473E+00
(PID.TID 0000.0001)  ploadbar=  1.01090068061489E+05
 cg2d: Sum(rhs),rhsMax =  -2.97622676486419E+01  2.55542987727377E+00
(PID.TID 0000.0001)  ploadbar=  1.01089750645932E+05
 cg2d: Sum(rhs),rhsMax =  -2.95272472088313E+01  2.57703447987340E+00
(PID.TID 0000.0001)  ploadbar=  1.01089433230375E+05
 cg2d: Sum(rhs),rhsMax =  -2.93597708763250E+01  2.59298003676054E+00
(PID.TID 0000.0001)  ploadbar=  1.01089115814817E+05
 cg2d: Sum(rhs),rhsMax =  -2.92593340193270E+01  2.60310283669981E+00
(PID.TID 0000.0001)  ploadbar=  1.01088798399260E+05
 cg2d: Sum(rhs),rhsMax =  -2.92263078845016E+01  2.60723709249223E+00
(PID.TID 0000.0001)  ploadbar=  1.01088480983703E+05
 cg2d: Sum(rhs),rhsMax =  -2.92350208666922E+01  2.60746419973919E+00
(PID.TID 0000.0001)  ploadbar=  1.01088112261271E+05
 cg2d: Sum(rhs),rhsMax =  -2.92924022395849E+01  2.60316941415333E+00
(PID.TID 0000.0001)  ploadbar=  1.01087743538840E+05
 cg2d: Sum(rhs),rhsMax =  -2.93883205265182E+01  2.59530187496494E+00
(PID.TID 0000.0001)  ploadbar=  1.01087374816409E+05
 cg2d: Sum(rhs),rhsMax =  -2.95172501778585E+01  2.58442190856290E+00
(PID.TID 0000.0001)  ploadbar=  1.01087006093977E+05
 cg2d: Sum(rhs),rhsMax =  -2.96928573182993E+01  2.56942832944926E+00
(PID.TID 0000.0001)  ploadbar=  1.01086637371546E+05
 cg2d: Sum(rhs),rhsMax =  -3.00605440931608E+01  2.53813283297441E+00
(PID.TID 0000.0001)  ploadbar=  1.01086268649114E+05
 cg2d: Sum(rhs),rhsMax =  -3.05241469937518E+01  2.49980223971560E+00
(PID.TID 0000.0001)  ploadbar=  1.01086035524303E+05
 cg2d: Sum(rhs),rhsMax =  -3.10785106251177E+01  2.45551105417001E+00
(PID.TID 0000.0001)  ploadbar=  1.01085802399491E+05
 cg2d: Sum(rhs),rhsMax =  -3.17012008372798E+01  2.40765442842538E+00
(PID.TID 0000.0001)  ploadbar=  1.01085569274679E+05
 cg2d: Sum(rhs),rhsMax =  -3.24320182928353E+01  2.35384992415467E+00
(PID.TID 0000.0001)  ploadbar=  1.01085336149867E+05
 cg2d: Sum(rhs),rhsMax =  -3.32482638847416E+01  2.29658312128693E+00
(PID.TID 0000.0001)  ploadbar=  1.01085103025056E+05
 cg2d: Sum(rhs),rhsMax =  -3.40388528270175E+01  2.24383313483998E+00
(PID.TID 0000.0001)  ploadbar=  1.01084869900244E+05
 cg2d: Sum(rhs),rhsMax =  -3.48279873457629E+01  2.19350620380778E+00
(PID.TID 0000.0001)  ploadbar=  1.01085249468662E+05
 cg2d: Sum(rhs),rhsMax =  -3.56154306107344E+01  2.14544398303355E+00
(PID.TID 0000.0001)  ploadbar=  1.01085629037079E+05
 cg2d: Sum(rhs),rhsMax =  -3.63928144330578E+01  2.09997770940093E+00
(PID.TID 0000.0001)  ploadbar=  1.01086008605497E+05
 cg2d: Sum(rhs),rhsMax =  -3.69434946688131E+01  2.06897166730286E+00
(PID.TID 0000.0001)  ploadbar=  1.01086388173915E+05
 cg2d: Sum(rhs),rhsMax =  -3.73503675954445E+01  2.04667038724884E+00
(PID.TID 0000.0001)  ploadbar=  1.01086767742332E+05
 cg2d: Sum(rhs),rhsMax =  -3.79019906042901E+01  2.01706207035625E+00
(PID.TID 0000.0001)  ploadbar=  1.01087147310750E+05
 cg2d: Sum(rhs),rhsMax =  -3.84311894489596E+01  1.98949042578114E+00
(PID.TID 0000.0001)  ploadbar=  1.01087972061712E+05
 cg2d: Sum(rhs),rhsMax =  -3.83731059958580E+01  1.99271862971704E+00
(PID.TID 0000.0001)  ploadbar=  1.01088796812674E+05
 cg2d: Sum(rhs),rhsMax =  -3.83246609184113E+01  1.99546549457175E+00
(PID.TID 0000.0001)  ploadbar=  1.01089621563636E+05
 cg2d: Sum(rhs),rhsMax =  -3.83233869311645E+01  1.99577235429434E+00
(PID.TID 0000.0001)  ploadbar=  1.01090446314598E+05
 cg2d: Sum(rhs),rhsMax =  -3.83381190697948E+01  1.99526301930120E+00
(PID.TID 0000.0001)  ploadbar=  1.01091271065560E+05
 cg2d: Sum(rhs),rhsMax =  -3.83815782531207E+01  1.99327754233614E+00
(PID.TID 0000.0001)  ploadbar=  1.01092095816521E+05
 cg2d: Sum(rhs),rhsMax =  -3.83931974157948E+01  1.99284810143998E+00
(PID.TID 0000.0001)  ploadbar=  1.01092457622035E+05
 cg2d: Sum(rhs),rhsMax =  -3.83710152212699E+01  1.99406525543172E+00
(PID.TID 0000.0001)  ploadbar=  1.01092819427548E+05
 cg2d: Sum(rhs),rhsMax =  -3.83170383991688E+01  1.99683271357436E+00
(PID.TID 0000.0001)  ploadbar=  1.01093181233061E+05
 cg2d: Sum(rhs),rhsMax =  -3.82209953261744E+01  2.00170305683145E+00
(PID.TID 0000.0001)  ploadbar=  1.01093543038574E+05
 cg2d: Sum(rhs),rhsMax =  -3.81097033558901E+01  2.00730111862798E+00
(PID.TID 0000.0001)  ploadbar=  1.01093904844087E+05
 cg2d: Sum(rhs),rhsMax =  -3.79903485236133E+01  2.01326613225487E+00
(PID.TID 0000.0001)  ploadbar=  1.01094266649601E+05
 cg2d: Sum(rhs),rhsMax =  -3.78822294217921E+01  2.01881130492169E+00
(PID.TID 0000.0001)  ploadbar=  1.01093969936669E+05
 cg2d: Sum(rhs),rhsMax =  -3.77921656256728E+01  2.02355161925102E+00
(PID.TID 0000.0001)  ploadbar=  1.01093673223737E+05
 cg2d: Sum(rhs),rhsMax =  -3.77259803329664E+01  2.02716117328583E+00
(PID.TID 0000.0001)  ploadbar=  1.01093376510805E+05
 cg2d: Sum(rhs),rhsMax =  -3.76907646950458E+01  2.02924659963258E+00
(PID.TID 0000.0001)  ploadbar=  1.01093079797873E+05
 cg2d: Sum(rhs),rhsMax =  -3.76912680508951E+01  2.02954227692079E+00
(PID.TID 0000.0001)  ploadbar=  1.01092783084941E+05
 cg2d: Sum(rhs),rhsMax =  -3.77261102052899E+01  2.02812110920478E+00
(PID.TID 0000.0001)  ploadbar=  1.01092486372009E+05
 cg2d: Sum(rhs),rhsMax =  -3.77883121306085E+01  2.02524078751206E+00
(PID.TID 0000.0001)  ploadbar=  1.01092940804430E+05
 cg2d: Sum(rhs),rhsMax =  -3.78828295850654E+01  2.02064411713691E+00
(PID.TID 0000.0001)  ploadbar=  1.01093395236851E+05
 cg2d: Sum(rhs),rhsMax =  -3.80049072967529E+01  2.01460885009132E+00
(PID.TID 0000.0001)  ploadbar=  1.01093849669272E+05
 cg2d: Sum(rhs),rhsMax =  -3.81434958536439E+01  2.00774972912000E+00
(PID.TID 0000.0001)  ploadbar=  1.01094304101693E+05
 cg2d: Sum(rhs),rhsMax =  -3.82905834454344E+01  2.00050518973611E+00
(PID.TID 0000.0001)  ploadbar=  1.01094758534114E+05
 cg2d: Sum(rhs),rhsMax =  -3.84396554096442E+01  1.99322902857752E+00
(PID.TID 0000.0001)  ploadbar=  1.01095212966534E+05
 cg2d: Sum(rhs),rhsMax =  -3.85645266554786E+01  1.98734396529490E+00
(PID.TID 0000.0001)  ploadbar=  1.01096361813528E+05
 cg2d: Sum(rhs),rhsMax =  -3.86793661610100E+01  1.98208866045282E+00
(PID.TID 0000.0001)  ploadbar=  1.01097510660522E+05
 cg2d: Sum(rhs),rhsMax =  -3.88054655814372E+01  1.97636806009969E+00
(PID.TID 0000.0001)  ploadbar=  1.01098659507516E+05
 cg2d: Sum(rhs),rhsMax =  -3.89304515853815E+01  1.97082167704187E+00
(PID.TID 0000.0001)  ploadbar=  1.01099808354509E+05
 cg2d: Sum(rhs),rhsMax =  -3.91013869631376E+01  1.96308660514259E+00
(PID.TID 0000.0001)  ploadbar=  1.01100957201503E+05
 cg2d: Sum(rhs),rhsMax =  -3.93250799464163E+01  1.95289094872588E+00
(PID.TID 0000.0001)  ploadbar=  1.01102106048497E+05
 cg2d: Sum(rhs),rhsMax =  -3.95883855222579E+01  1.94071211925051E+00
(PID.TID 0000.0001)  ploadbar=  1.01102552006912E+05
 cg2d: Sum(rhs),rhsMax =  -3.99317093640973E+01  1.92466629004546E+00
(PID.TID 0000.0001)  ploadbar=  1.01102997965326E+05
 cg2d: Sum(rhs),rhsMax =  -4.03768892396209E+01  1.90391808130372E+00
(PID.TID 0000.0001)  ploadbar=  1.01103443923741E+05
 cg2d: Sum(rhs),rhsMax =  -4.09091145584804E+01  1.87945848716914E+00
(PID.TID 0000.0001)  ploadbar=  1.01103889882156E+05
 cg2d: Sum(rhs),rhsMax =  -4.15230705275251E+01  1.85182618389058E+00
(PID.TID 0000.0001)  ploadbar=  1.01104335840571E+05
 cg2d: Sum(rhs),rhsMax =  -4.22152476923164E+01  1.82147027056596E+00
(PID.TID 0000.0001)  ploadbar=  1.01104781798986E+05
 cg2d: Sum(rhs),rhsMax =  -4.30051423496196E+01  1.78808480536832E+00
(PID.TID 0000.0001)  ploadbar=  1.01104262247216E+05
 cg2d: Sum(rhs),rhsMax =  -4.38933269306166E+01  1.75203257458869E+00
(PID.TID 0000.0001)  ploadbar=  1.01103742695446E+05
 cg2d: Sum(rhs),rhsMax =  -4.48656391665186E+01  1.71425204240687E+00
(PID.TID 0000.0001)  ploadbar=  1.01103223143676E+05
 cg2d: Sum(rhs),rhsMax =  -4.58922555614261E+01  1.67615105190203E+00
(PID.TID 0000.0001)  ploadbar=  1.01102703591906E+05
 cg2d: Sum(rhs),rhsMax =  -4.69315473792985E+01  1.63934269707267E+00
(PID.TID 0000.0001)  ploadbar=  1.01102184040136E+05
 cg2d: Sum(rhs),rhsMax =  -4.79358073233876E+01  1.60537931190485E+00
(PID.TID 0000.0001)  ploadbar=  1.01101664488365E+05
 cg2d: Sum(rhs),rhsMax =  -4.88757456310512E+01  1.57486303124055E+00
(PID.TID 0000.0001)  ploadbar=  1.01100879470202E+05
 cg2d: Sum(rhs),rhsMax =  -4.96865970691323E+01  1.54949020716513E+00
(PID.TID 0000.0001)  ploadbar=  1.01100094452038E+05
 cg2d: Sum(rhs),rhsMax =  -5.03285115970887E+01  1.53003404422792E+00
(PID.TID 0000.0001)  ploadbar=  1.01099309433874E+05
 cg2d: Sum(rhs),rhsMax =  -5.07827081390921E+01  1.51664419514657E+00
(PID.TID 0000.0001)  ploadbar=  1.01098524415710E+05
 cg2d: Sum(rhs),rhsMax =  -5.10571547572151E+01  1.50878208185639E+00
(PID.TID 0000.0001)  ploadbar=  1.01097739397546E+05
 cg2d: Sum(rhs),rhsMax =  -5.11882200654392E+01  1.50520719081140E+00
(PID.TID 0000.0001)  ploadbar=  1.01096954379382E+05
 cg2d: Sum(rhs),rhsMax =  -5.12318930180637E+01  1.50427089421233E+00
(PID.TID 0000.0001)  ploadbar=  1.01097866247728E+05
 cg2d: Sum(rhs),rhsMax =  -5.12083135783441E+01  1.50536122704774E+00
(PID.TID 0000.0001)  ploadbar=  1.01098778116075E+05
 cg2d: Sum(rhs),rhsMax =  -5.11582226118621E+01  1.50728798421620E+00
(PID.TID 0000.0001)  ploadbar=  1.01099689984422E+05
 cg2d: Sum(rhs),rhsMax =  -5.13380163613905E+01  1.50251652595655E+00
(PID.TID 0000.0001)  ploadbar=  1.01100601852768E+05
 cg2d: Sum(rhs),rhsMax =  -5.15428758972382E+01  1.49710621394604E+00
(PID.TID 0000.0001)  ploadbar=  1.01101513721115E+05
 cg2d: Sum(rhs),rhsMax =  -5.17821580500429E+01  1.49080681028702E+00
(PID.TID 0000.0001)  ploadbar=  1.01102425589462E+05
 cg2d: Sum(rhs),rhsMax =  -5.20472226343740E+01  1.48376878963850E+00
(PID.TID 0000.0001)  ploadbar=  1.01101447620318E+05
 cg2d: Sum(rhs),rhsMax =  -5.23423707154623E+01  1.47589072020638E+00
(PID.TID 0000.0001)  ploadbar=  1.01100469651175E+05
 cg2d: Sum(rhs),rhsMax =  -5.26630561650990E+01  1.46732979446910E+00
(PID.TID 0000.0001)  ploadbar=  1.01099491682031E+05
 cg2d: Sum(rhs),rhsMax =  -5.29854885204553E+01  1.45876677710804E+00
(PID.TID 0000.0001)  ploadbar=  1.01098513712887E+05
 cg2d: Sum(rhs),rhsMax =  -5.24270726074931E+01  1.47462020960878E+00
(PID.TID 0000.0001)  ploadbar=  1.01097535743744E+05
 cg2d: Sum(rhs),rhsMax =  -5.14937509431349E+01  1.50161656176124E+00
(PID.TID 0000.0001)  ploadbar=  1.01096557774600E+05
 cg2d: Sum(rhs),rhsMax =  -5.06653548792266E+01  1.52648804033800E+00
(PID.TID 0000.0001)  ploadbar=  1.01095417408052E+05
 cg2d: Sum(rhs),rhsMax =  -4.99002428746171E+01  1.55025512060549E+00
(PID.TID 0000.0001)  ploadbar=  1.01094277041503E+05
 cg2d: Sum(rhs),rhsMax =  -4.91789846835149E+01  1.57339620258352E+00
(PID.TID 0000.0001)  ploadbar=  1.01093136674955E+05
 cg2d: Sum(rhs),rhsMax =  -4.85402981927098E+01  1.59454643054178E+00
(PID.TID 0000.0001)  ploadbar=  1.01091996308407E+05
 cg2d: Sum(rhs),rhsMax =  -4.79732455713110E+01  1.61388877797848E+00
(PID.TID 0000.0001)  ploadbar=  1.01090855941858E+05
 cg2d: Sum(rhs),rhsMax =  -4.74566005319705E+01  1.63200368261677E+00
(PID.TID 0000.0001)  ploadbar=  1.01089715575310E+05
 cg2d: Sum(rhs),rhsMax =  -4.70146563803255E+01  1.64784840856393E+00
(PID.TID 0000.0001)  ploadbar=  1.01088917077108E+05
 cg2d: Sum(rhs),rhsMax =  -4.66327226939530E+01  1.66180320441894E+00
(PID.TID 0000.0001)  ploadbar=  1.01088118578905E+05
 cg2d: Sum(rhs),rhsMax =  -4.63240278512281E+01  1.67329503656280E+00
(PID.TID 0000.0001)  ploadbar=  1.01087320080703E+05
 cg2d: Sum(rhs),rhsMax =  -4.60776893831229E+01  1.68262254792204E+00
(PID.TID 0000.0001)  ploadbar=  1.01086521582501E+05
 cg2d: Sum(rhs),rhsMax =  -4.58950027653250E+01  1.68967050355961E+00
(PID.TID 0000.0001)  ploadbar=  1.01085723084299E+05
 cg2d: Sum(rhs),rhsMax =  -4.57831001499210E+01  1.69412183116433E+00
(PID.TID 0000.0001)  ploadbar=  1.01084924586097E+05
 cg2d: Sum(rhs),rhsMax =  -4.59226575746054E+01  1.68934146807880E+00
(PID.TID 0000.0001)  ploadbar=  1.01084589394568E+05
 cg2d: Sum(rhs),rhsMax =  -4.62025868705511E+01  1.67951137061844E+00
(PID.TID 0000.0001)  ploadbar=  1.01084254203040E+05
 cg2d: Sum(rhs),rhsMax =  -4.65955133085635E+01  1.66579030636227E+00
(PID.TID 0000.0001)  ploadbar=  1.01083919011511E+05
 cg2d: Sum(rhs),rhsMax =  -4.70550736728198E+01  1.65000153919512E+00
(PID.TID 0000.0001)  ploadbar=  1.01083583819983E+05
 cg2d: Sum(rhs),rhsMax =  -4.70124059296569E+01  1.65202324570659E+00
(PID.TID 0000.0001)  ploadbar=  1.01083248628454E+05
 cg2d: Sum(rhs),rhsMax =  -4.70071301748298E+01  1.65278251890055E+00
(PID.TID 0000.0001)  ploadbar=  1.01082913436925E+05
 cg2d: Sum(rhs),rhsMax =  -4.70581670891998E+01  1.65146703379080E+00
(PID.TID 0000.0001)  ploadbar=  1.01082497616806E+05
 cg2d: Sum(rhs),rhsMax =  -4.71342611197197E+01  1.64916984213520E+00
(PID.TID 0000.0001)  ploadbar=  1.01082081796687E+05
 cg2d: Sum(rhs),rhsMax =  -4.72639403282312E+01  1.64490948008427E+00
(PID.TID 0000.0001)  ploadbar=  1.01081665976568E+05
 cg2d: Sum(rhs),rhsMax =  -4.74021828692175E+01  1.64027863184182E+00
(PID.TID 0000.0001)  ploadbar=  1.01081250156449E+05
 cg2d: Sum(rhs),rhsMax =  -4.75282553806415E+01  1.63600012008771E+00
(PID.TID 0000.0001)  ploadbar=  1.01080834336329E+05
 cg2d: Sum(rhs),rhsMax =  -4.76504089139701E+01  1.63178394932202E+00
(PID.TID 0000.0001)  ploadbar=  1.01080418516210E+05
 cg2d: Sum(rhs),rhsMax =  -4.77785798863542E+01  1.62750071312824E+00
(PID.TID 0000.0001)  ploadbar=  1.01079408454039E+05
 cg2d: Sum(rhs),rhsMax =  -4.79254635213219E+01  1.62271154907700E+00
(PID.TID 0000.0001)  ploadbar=  1.01078398391868E+05
 cg2d: Sum(rhs),rhsMax =  -4.80604314883188E+01  1.61845443801058E+00
(PID.TID 0000.0001)  ploadbar=  1.01077388329697E+05
 cg2d: Sum(rhs),rhsMax =  -4.81906585458354E+01  1.61448428910435E+00
(PID.TID 0000.0001)  ploadbar=  1.01076378267526E+05
 cg2d: Sum(rhs),rhsMax =  -4.83220316035100E+01  1.61060795113104E+00
(PID.TID 0000.0001)  ploadbar=  1.01075368205355E+05
 cg2d: Sum(rhs),rhsMax =  -4.84565753445354E+01  1.60675823706571E+00
(PID.TID 0000.0001)  ploadbar=  1.01074358143184E+05
 cg2d: Sum(rhs),rhsMax =  -4.85691987126237E+01  1.60360744322741E+00
(PID.TID 0000.0001)  ploadbar=  1.01074003273582E+05
 cg2d: Sum(rhs),rhsMax =  -4.86932275898914E+01  1.60004717595375E+00
(PID.TID 0000.0001)  ploadbar=  1.01073648403980E+05
 cg2d: Sum(rhs),rhsMax =  -4.88111070973714E+01  1.59666177694169E+00
(PID.TID 0000.0001)  ploadbar=  1.01073293534379E+05
 cg2d: Sum(rhs),rhsMax =  -4.89207551650361E+01  1.59352218132728E+00
(PID.TID 0000.0001)  ploadbar=  1.01072938664777E+05
 cg2d: Sum(rhs),rhsMax =  -4.90289557532212E+01  1.59041348196948E+00
(PID.TID 0000.0001)  ploadbar=  1.01072583795175E+05
 cg2d: Sum(rhs),rhsMax =  -4.91308172703357E+01  1.58749687032767E+00
(PID.TID 0000.0001)  ploadbar=  1.01072228925573E+05
 cg2d: Sum(rhs),rhsMax =  -4.92388244146563E+01  1.58444943795325E+00
(PID.TID 0000.0001)  ploadbar=  1.01071869444184E+05
 cg2d: Sum(rhs),rhsMax =  -4.93459853616100E+01  1.58148855892113E+00
(PID.TID 0000.0001)  ploadbar=  1.01071509962796E+05
 cg2d: Sum(rhs),rhsMax =  -4.94438293023761E+01  1.57888168449915E+00
(PID.TID 0000.0001)  ploadbar=  1.01071150481408E+05
 cg2d: Sum(rhs),rhsMax =  -4.95322759702714E+01  1.57663073953092E+00
(PID.TID 0000.0001)  ploadbar=  1.01070791000019E+05
 cg2d: Sum(rhs),rhsMax =  -4.96136446020995E+01  1.57465954902742E+00
(PID.TID 0000.0001)  ploadbar=  1.01070431518631E+05
 cg2d: Sum(rhs),rhsMax =  -4.96918192066606E+01  1.57284565597829E+00
(PID.TID 0000.0001)  ploadbar=  1.01070072037242E+05
 cg2d: Sum(rhs),rhsMax =  -4.97431347895107E+01  1.57177006616086E+00
(PID.TID 0000.0001)  ploadbar=  1.01070701613365E+05
 cg2d: Sum(rhs),rhsMax =  -4.97944515860553E+01  1.57057679334636E+00
(PID.TID 0000.0001)  ploadbar=  1.01071331189489E+05
 cg2d: Sum(rhs),rhsMax =  -4.98417581397474E+01  1.56939678161835E+00
(PID.TID 0000.0001)  ploadbar=  1.01071960765612E+05
 cg2d: Sum(rhs),rhsMax =  -4.98850388849145E+01  1.56823592510407E+00
(PID.TID 0000.0001)  ploadbar=  1.01072590341735E+05
 cg2d: Sum(rhs),rhsMax =  -4.99239719580849E+01  1.56711182404769E+00
(PID.TID 0000.0001)  ploadbar=  1.01073219917859E+05
 cg2d: Sum(rhs),rhsMax =  -4.99563666923732E+01  1.56608730560483E+00
(PID.TID 0000.0001)  ploadbar=  1.01073849493982E+05
 cg2d: Sum(rhs),rhsMax =  -4.99885551388528E+01  1.56515758722340E+00
(PID.TID 0000.0001)  ploadbar=  1.01076294616213E+05
 cg2d: Sum(rhs),rhsMax =  -5.00226565958628E+01  1.56425118339005E+00
(PID.TID 0000.0001)  ploadbar=  1.01078739738443E+05
 cg2d: Sum(rhs),rhsMax =  -4.99293581068164E+01  1.56741639178237E+00
(PID.TID 0000.0001)  ploadbar=  1.01081184860673E+05
 cg2d: Sum(rhs),rhsMax =  -4.98021684946482E+01  1.57174719391522E+00
(PID.TID 0000.0001)  ploadbar=  1.01083629982904E+05
 cg2d: Sum(rhs),rhsMax =  -4.96749756714244E+01  1.57618399475062E+00
(PID.TID 0000.0001)  ploadbar=  1.01086075105134E+05
 cg2d: Sum(rhs),rhsMax =  -4.95546073522301E+01  1.58051474404734E+00
(PID.TID 0000.0001)  ploadbar=  1.01088520227365E+05
 cg2d: Sum(rhs),rhsMax =  -4.94446765699229E+01  1.58450905510868E+00
(PID.TID 0000.0001)  ploadbar=  1.01089976672272E+05
 cg2d: Sum(rhs),rhsMax =  -4.93353163113662E+01  1.58847769221905E+00
(PID.TID 0000.0001)  ploadbar=  1.01091433117179E+05
 cg2d: Sum(rhs),rhsMax =  -4.92274225168948E+01  1.59239427594064E+00
(PID.TID 0000.0001)  ploadbar=  1.01092889562086E+05
 cg2d: Sum(rhs),rhsMax =  -4.91222170181529E+01  1.59622810095725E+00
(PID.TID 0000.0001)  ploadbar=  1.01094346006993E+05
 cg2d: Sum(rhs),rhsMax =  -4.90209385998763E+01  1.59995564604506E+00
(PID.TID 0000.0001)  ploadbar=  1.01095802451901E+05
 cg2d: Sum(rhs),rhsMax =  -4.89237834746022E+01  1.60357422871305E+00
(PID.TID 0000.0001)  ploadbar=  1.01097258896808E+05
 cg2d: Sum(rhs),rhsMax =  -4.88479578861792E+01  1.60650925980135E+00
(PID.TID 0000.0001)  ploadbar=  1.01098826128281E+05
 cg2d: Sum(rhs),rhsMax =  -4.87802119319690E+01  1.60917990698202E+00
(PID.TID 0000.0001)  ploadbar=  1.01100393359753E+05
 cg2d: Sum(rhs),rhsMax =  -4.87251897435426E+01  1.61143442677995E+00
(PID.TID 0000.0001)  ploadbar=  1.01101960591226E+05
 cg2d: Sum(rhs),rhsMax =  -4.86812698327134E+01  1.61332903105374E+00
(PID.TID 0000.0001)  ploadbar=  1.01103527822699E+05
 cg2d: Sum(rhs),rhsMax =  -4.86485472319922E+01  1.61486452498134E+00
(PID.TID 0000.0001)  ploadbar=  1.01105095054172E+05
 cg2d: Sum(rhs),rhsMax =  -4.86280736242253E+01  1.61600947494335E+00
(PID.TID 0000.0001)  ploadbar=  1.01106662285644E+05
 cg2d: Sum(rhs),rhsMax =  -4.85914366510424E+01  1.61760840163389E+00
(PID.TID 0000.0001)  ploadbar=  1.01107711162489E+05
 cg2d: Sum(rhs),rhsMax =  -4.85390430976851E+01  1.61964357773928E+00
(PID.TID 0000.0001)  ploadbar=  1.01108760039333E+05
 cg2d: Sum(rhs),rhsMax =  -4.84643467090326E+01  1.62233787074373E+00
(PID.TID 0000.0001)  ploadbar=  1.01109808916177E+05
 cg2d: Sum(rhs),rhsMax =  -4.83638366735063E+01  1.62582148338781E+00
(PID.TID 0000.0001)  ploadbar=  1.01110857793021E+05
 cg2d: Sum(rhs),rhsMax =  -4.82386453520215E+01  1.63007096608820E+00
(PID.TID 0000.0001)  ploadbar=  1.01111906669866E+05
 cg2d: Sum(rhs),rhsMax =  -4.80883231840487E+01  1.63511415883088E+00
(PID.TID 0000.0001)  ploadbar=  1.01112955546710E+05
 cg2d: Sum(rhs),rhsMax =  -4.79451470542421E+01  1.64000875969118E+00
(PID.TID 0000.0001)  ploadbar=  1.01114218170925E+05
 cg2d: Sum(rhs),rhsMax =  -4.78119175553486E+01  1.64464608941391E+00
(PID.TID 0000.0001)  ploadbar=  1.01115480795141E+05
 cg2d: Sum(rhs),rhsMax =  -4.76960057112885E+01  1.64876326240170E+00
(PID.TID 0000.0001)  ploadbar=  1.01116743419357E+05
 cg2d: Sum(rhs),rhsMax =  -4.76025816032373E+01  1.65216728168633E+00
(PID.TID 0000.0001)  ploadbar=  1.01118006043573E+05
 cg2d: Sum(rhs),rhsMax =  -4.75391524078135E+01  1.65458337506601E+00
(PID.TID 0000.0001)  ploadbar=  1.01119268667788E+05
 cg2d: Sum(rhs),rhsMax =  -4.75094904576606E+01  1.65586965505755E+00
(PID.TID 0000.0001)  ploadbar=  1.01120531292004E+05
 cg2d: Sum(rhs),rhsMax =  -4.75491078150446E+01  1.65472710480136E+00
(PID.TID 0000.0001)  ploadbar=  1.01120968236857E+05
 cg2d: Sum(rhs),rhsMax =  -4.76349072303114E+01  1.65197265239553E+00
(PID.TID 0000.0001)  ploadbar=  1.01121405181711E+05
 cg2d: Sum(rhs),rhsMax =  -4.77458063796251E+01  1.64835998123338E+00
(PID.TID 0000.0001)  ploadbar=  1.01121842126565E+05
 cg2d: Sum(rhs),rhsMax =  -4.78876893279782E+01  1.64370984466906E+00
(PID.TID 0000.0001)  ploadbar=  1.01122279071418E+05
 cg2d: Sum(rhs),rhsMax =  -4.80616658122864E+01  1.63800700763531E+00
(PID.TID 0000.0001)  ploadbar=  1.01122716016272E+05
 cg2d: Sum(rhs),rhsMax =  -4.78931791449067E+01  1.64403105023961E+00
(PID.TID 0000.0001)  ploadbar=  1.01123152961125E+05
 cg2d: Sum(rhs),rhsMax =  -4.74939634157532E+01  1.65815732960799E+00
(PID.TID 0000.0001)  ploadbar=  1.01123125084198E+05
 cg2d: Sum(rhs),rhsMax =  -4.71409281408930E+01  1.67091582651394E+00
(PID.TID 0000.0001)  ploadbar=  1.01123097207271E+05
 cg2d: Sum(rhs),rhsMax =  -4.68268143581042E+01  1.68249751508988E+00
(PID.TID 0000.0001)  ploadbar=  1.01123069330344E+05
 cg2d: Sum(rhs),rhsMax =  -4.65509977925462E+01  1.69287599775142E+00
(PID.TID 0000.0001)  ploadbar=  1.01123041453417E+05
 cg2d: Sum(rhs),rhsMax =  -4.63074889677179E+01  1.70222932932866E+00
(PID.TID 0000.0001)  ploadbar=  1.01123013576490E+05
 cg2d: Sum(rhs),rhsMax =  -4.60863858865891E+01  1.71088969372474E+00
(PID.TID 0000.0001)  ploadbar=  1.01122985699563E+05
 cg2d: Sum(rhs),rhsMax =  -4.58740738626040E+01  1.71925519355237E+00
(PID.TID 0000.0001)  ploadbar=  1.01123429544169E+05
 cg2d: Sum(rhs),rhsMax =  -4.56858127712305E+01  1.72673060996563E+00
(PID.TID 0000.0001)  ploadbar=  1.01123873388774E+05
 cg2d: Sum(rhs),rhsMax =  -4.55233502916671E+01  1.73322733496240E+00
(PID.TID 0000.0001)  ploadbar=  1.01124317233379E+05
 cg2d: Sum(rhs),rhsMax =  -4.54138709319353E+01  1.73768546769283E+00
(PID.TID 0000.0001)  ploadbar=  1.01124761077985E+05
 cg2d: Sum(rhs),rhsMax =  -4.53697591927876E+01  1.73960686720439E+00
(PID.TID 0000.0001)  ploadbar=  1.01125204922590E+05
 cg2d: Sum(rhs),rhsMax =  -4.53829394979124E+01  1.73929104528576E+00
(PID.TID 0000.0001)  ploadbar=  1.01125648767196E+05
 cg2d: Sum(rhs),rhsMax =  -4.54295710763643E+01  1.73776097931928E+00
(PID.TID 0000.0001)  ploadbar=  1.01126114728581E+05
 cg2d: Sum(rhs),rhsMax =  -4.54953669533748E+01  1.73556248655422E+00
(PID.TID 0000.0001)  ploadbar=  1.01126580689967E+05
 cg2d: Sum(rhs),rhsMax =  -4.55705584462086E+01  1.73307284113849E+00
(PID.TID 0000.0001)  ploadbar=  1.01127046651352E+05
 cg2d: Sum(rhs),rhsMax =  -4.56527507806347E+01  1.73038615499939E+00
(PID.TID 0000.0001)  ploadbar=  1.01127512612738E+05
 cg2d: Sum(rhs),rhsMax =  -4.57434628315121E+01  1.72744778418430E+00
(PID.TID 0000.0001)  ploadbar=  1.01127978574123E+05
 cg2d: Sum(rhs),rhsMax =  -4.58387074563516E+01  1.72440897097676E+00
(PID.TID 0000.0001)  ploadbar=  1.01128444535509E+05
 cg2d: Sum(rhs),rhsMax =  -4.59237568219429E+01  1.72174818451518E+00
(PID.TID 0000.0001)  ploadbar=  1.01127869212134E+05
 cg2d: Sum(rhs),rhsMax =  -4.60048096476115E+01  1.71923273279007E+00
(PID.TID 0000.0001)  ploadbar=  1.01127293888759E+05
 cg2d: Sum(rhs),rhsMax =  -4.60791918323712E+01  1.71696920352533E+00
(PID.TID 0000.0001)  ploadbar=  1.01126718565384E+05
 cg2d: Sum(rhs),rhsMax =  -4.61476774661773E+01  1.71493070150334E+00
(PID.TID 0000.0001)  ploadbar=  1.01126143242009E+05
 cg2d: Sum(rhs),rhsMax =  -4.62097703514237E+01  1.71313696626432E+00
(PID.TID 0000.0001)  ploadbar=  1.01125567918635E+05
 cg2d: Sum(rhs),rhsMax =  -4.62640651997312E+01  1.71164079032733E+00
(PID.TID 0000.0001)  ploadbar=  1.01124992595260E+05
 cg2d: Sum(rhs),rhsMax =  -4.62888399890322E+01  1.71130887801852E+00
(PID.TID 0000.0001)  ploadbar=  1.01123889703643E+05
 cg2d: Sum(rhs),rhsMax =  -4.63008352039735E+01  1.71151415088988E+00
(PID.TID 0000.0001)  ploadbar=  1.01122786812026E+05
 cg2d: Sum(rhs),rhsMax =  -4.62947840933850E+01  1.71245849481518E+00
(PID.TID 0000.0001)  ploadbar=  1.01121683920409E+05
 cg2d: Sum(rhs),rhsMax =  -4.62687976330466E+01  1.71421495426073E+00
(PID.TID 0000.0001)  ploadbar=  1.01120581028792E+05
 cg2d: Sum(rhs),rhsMax =  -4.62228498849400E+01  1.71678415220516E+00
(PID.TID 0000.0001)  ploadbar=  1.01119478137175E+05
 cg2d: Sum(rhs),rhsMax =  -4.55162293363111E+01  1.74438887644864E+00
(PID.TID 0000.0001)  ploadbar=  1.01118375245558E+05
 cg2d: Sum(rhs),rhsMax =  -4.43690000432670E+01  1.79039058255327E+00
(PID.TID 0000.0001)  ploadbar=  1.01117530520058E+05
 cg2d: Sum(rhs),rhsMax =  -4.31417367945884E+01  1.84215535507841E+00
(PID.TID 0000.0001)  ploadbar=  1.01116685794558E+05
 cg2d: Sum(rhs),rhsMax =  -4.19917678022338E+01  1.89337004882725E+00
(PID.TID 0000.0001)  ploadbar=  1.01115841069058E+05
 cg2d: Sum(rhs),rhsMax =  -4.09513052459298E+01  1.94217156392279E+00
(PID.TID 0000.0001)  ploadbar=  1.01114996343558E+05
 cg2d: Sum(rhs),rhsMax =  -3.99990018951219E+01  1.98903692686400E+00
(PID.TID 0000.0001)  ploadbar=  1.01114151618058E+05
 cg2d: Sum(rhs),rhsMax =  -3.91241441061275E+01  2.03406803396552E+00
(PID.TID 0000.0001)  ploadbar=  1.01113306892558E+05
 cg2d: Sum(rhs),rhsMax =  -3.83278164911329E+01  2.07700863953782E+00
(PID.TID 0000.0001)  ploadbar=  1.01113344777366E+05
 cg2d: Sum(rhs),rhsMax =  -3.75982131902938E+01  2.11811496060489E+00
(PID.TID 0000.0001)  ploadbar=  1.01113382662175E+05
 cg2d: Sum(rhs),rhsMax =  -3.68506483214030E+01  2.16201024080796E+00
(PID.TID 0000.0001)  ploadbar=  1.01113420546984E+05
 cg2d: Sum(rhs),rhsMax =  -3.60513046930521E+01  2.21100487389709E+00
(PID.TID 0000.0001)  ploadbar=  1.01113458431793E+05
 cg2d: Sum(rhs),rhsMax =  -3.52403297577598E+01  2.26307851057484E+00
(PID.TID 0000.0001)  ploadbar=  1.01113496316602E+05
 cg2d: Sum(rhs),rhsMax =  -3.44464410135928E+01  2.31657457373306E+00
(PID.TID 0000.0001)  ploadbar=  1.01113534201411E+05
 cg2d: Sum(rhs),rhsMax =  -3.32978967763803E+01  2.39778724599383E+00
(PID.TID 0000.0001)  ploadbar=  1.01114002183040E+05
 cg2d: Sum(rhs),rhsMax =  -3.17986054192444E+01  2.51213739065044E+00
(PID.TID 0000.0001)  ploadbar=  1.01114470164668E+05
 cg2d: Sum(rhs),rhsMax =  -3.02044387855742E+01  2.64602629813450E+00
(PID.TID 0000.0001)  ploadbar=  1.01114938146297E+05
 cg2d: Sum(rhs),rhsMax =  -2.86267376448486E+01  2.79317113902914E+00
(PID.TID 0000.0001)  ploadbar=  1.01115406127925E+05
 cg2d: Sum(rhs),rhsMax =  -2.71829073395698E+01  2.94286676836524E+00
(PID.TID 0000.0001)  ploadbar=  1.01115874109554E+05
 cg2d: Sum(rhs),rhsMax =  -2.59478918058613E+01  3.08428350112120E+00
(PID.TID 0000.0001)  ploadbar=  1.01116342091183E+05
 cg2d: Sum(rhs),rhsMax =  -2.48393952925098E+01  3.22335715749440E+00
(PID.TID 0000.0001)  ploadbar=  1.01116283101739E+05
 cg2d: Sum(rhs),rhsMax =  -2.37888494337969E+01  3.36721820510931E+00
(PID.TID 0000.0001)  ploadbar=  1.01116224112295E+05
 cg2d: Sum(rhs),rhsMax =  -2.28564354286413E+01  3.50619116746359E+00
(PID.TID 0000.0001)  ploadbar=  1.01116165122852E+05
 cg2d: Sum(rhs),rhsMax =  -2.20283490432220E+01  3.63971759683163E+00
(PID.TID 0000.0001)  ploadbar=  1.01116106133408E+05
 cg2d: Sum(rhs),rhsMax =  -2.12888372840456E+01  3.76799905219890E+00
(PID.TID 0000.0001)  ploadbar=  1.01116047143965E+05
 cg2d: Sum(rhs),rhsMax =  -2.06219860646391E+01  3.89182598067509E+00
(PID.TID 0000.0001)  ploadbar=  1.01115988154521E+05
 cg2d: Sum(rhs),rhsMax =  -1.99699329094512E+01  4.02069085898776E+00
(PID.TID 0000.0001)  ploadbar=  1.01116445435245E+05
 cg2d: Sum(rhs),rhsMax =  -1.93386973471544E+01  4.15349347357796E+00
(PID.TID 0000.0001)  ploadbar=  1.01116902715969E+05
 cg2d: Sum(rhs),rhsMax =  -1.87538108192906E+01  4.28435897332626E+00
(PID.TID 0000.0001)  ploadbar=  1.01117359996694E+05
 cg2d: Sum(rhs),rhsMax =  -1.88005284634887E+01  4.27477353023774E+00
(PID.TID 0000.0001)  ploadbar=  1.01117817277418E+05
 cg2d: Sum(rhs),rhsMax =  -1.90933775849882E+01  4.20999783416073E+00
(PID.TID 0000.0001)  ploadbar=  1.01118274558142E+05
 cg2d: Sum(rhs),rhsMax =  -1.95078599175012E+01  4.12108100475700E+00
(PID.TID 0000.0001)  ploadbar=  1.01118731838866E+05
 cg2d: Sum(rhs),rhsMax =  -1.99538896317793E+01  4.02973448465850E+00
(PID.TID 0000.0001)  ploadbar=  1.01118599986065E+05
 cg2d: Sum(rhs),rhsMax =  -2.04004023915122E+01  3.94253517938037E+00
(PID.TID 0000.0001)  ploadbar=  1.01118468133263E+05
 cg2d: Sum(rhs),rhsMax =  -2.08161314707483E+01  3.86502355787278E+00
(PID.TID 0000.0001)  ploadbar=  1.01118336280462E+05
 cg2d: Sum(rhs),rhsMax =  -2.12142431734140E+01  3.79393984957830E+00
(PID.TID 0000.0001)  ploadbar=  1.01118204427660E+05
 cg2d: Sum(rhs),rhsMax =  -2.15631151516347E+01  3.73423480375102E+00
(PID.TID 0000.0001)  ploadbar=  1.01118072574858E+05
 cg2d: Sum(rhs),rhsMax =  -2.18530325470061E+01  3.68661176410798E+00
(PID.TID 0000.0001)  ploadbar=  1.01117940722057E+05
 cg2d: Sum(rhs),rhsMax =  -2.20698108287172E+01  3.65218240997676E+00
(PID.TID 0000.0001)  ploadbar=  1.01118639590080E+05
 cg2d: Sum(rhs),rhsMax =  -2.22536666470790E+01  3.62367048000383E+00
(PID.TID 0000.0001)  ploadbar=  1.01119338458104E+05
 cg2d: Sum(rhs),rhsMax =  -2.24182523531272E+01  3.59863528219142E+00
(PID.TID 0000.0001)  ploadbar=  1.01120037326127E+05
 cg2d: Sum(rhs),rhsMax =  -2.25689052408914E+01  3.57609878690376E+00
(PID.TID 0000.0001)  ploadbar=  1.01120736194151E+05
 cg2d: Sum(rhs),rhsMax =  -2.27133574008817E+01  3.55476583633398E+00
(PID.TID 0000.0001)  ploadbar=  1.01121435062174E+05
 cg2d: Sum(rhs),rhsMax =  -2.28568724694287E+01  3.53378754117062E+00
(PID.TID 0000.0001)  ploadbar=  1.01122133930198E+05
 cg2d: Sum(rhs),rhsMax =  -2.30009381771496E+01  3.51300254516144E+00
(PID.TID 0000.0001)  ploadbar=  1.01123269075583E+05
 cg2d: Sum(rhs),rhsMax =  -2.31482912004090E+01  3.49198521756978E+00
(PID.TID 0000.0001)  ploadbar=  1.01124404220968E+05
 cg2d: Sum(rhs),rhsMax =  -2.32976026229483E+01  3.47095235641297E+00
(PID.TID 0000.0001)  ploadbar=  1.01125539366354E+05
 cg2d: Sum(rhs),rhsMax =  -2.34465702818797E+01  3.45026015935136E+00
(PID.TID 0000.0001)  ploadbar=  1.01126674511739E+05
 cg2d: Sum(rhs),rhsMax =  -2.35920238396099E+01  3.43037470299864E+00
(PID.TID 0000.0001)  ploadbar=  1.01127809657124E+05
 cg2d: Sum(rhs),rhsMax =  -2.37333634639462E+01  3.41136472127974E+00
(PID.TID 0000.0001)  ploadbar=  1.01128944802510E+05
 cg2d: Sum(rhs),rhsMax =  -2.38729763228091E+01  3.39260309166747E+00
(PID.TID 0000.0001)  ploadbar=  1.01129292402712E+05
 cg2d: Sum(rhs),rhsMax =  -2.40083726320908E+01  3.37442353574705E+00
(PID.TID 0000.0001)  ploadbar=  1.01129640002914E+05
 cg2d: Sum(rhs),rhsMax =  -2.41400841264015E+01  3.35674218047711E+00
(PID.TID 0000.0001)  ploadbar=  1.01129987603116E+05
 cg2d: Sum(rhs),rhsMax =  -2.42694696488234E+01  3.33936792075766E+00
(PID.TID 0000.0001)  ploadbar=  1.01130335203318E+05
 cg2d: Sum(rhs),rhsMax =  -2.43976507326239E+01  3.32216165262517E+00
(PID.TID 0000.0001)  ploadbar=  1.01130682803520E+05
 cg2d: Sum(rhs),rhsMax =  -2.45249223196931E+01  3.30507722350747E+00
(PID.TID 0000.0001)  ploadbar=  1.01131030403723E+05
 cg2d: Sum(rhs),rhsMax =  -2.46525460971055E+01  3.28822444857233E+00
(PID.TID 0000.0001)  ploadbar=  1.01131474366870E+05
 cg2d: Sum(rhs),rhsMax =  -2.47789406006076E+01  3.27180339815607E+00
(PID.TID 0000.0001)  ploadbar=  1.01131918330018E+05
 cg2d: Sum(rhs),rhsMax =  -2.49024042232040E+01  3.25603106902391E+00
(PID.TID 0000.0001)  ploadbar=  1.01132362293166E+05
 cg2d: Sum(rhs),rhsMax =  -2.50232447752841E+01  3.24085229353076E+00
(PID.TID 0000.0001)  ploadbar=  1.01132806256313E+05
 cg2d: Sum(rhs),rhsMax =  -2.51419362028219E+01  3.22620149959437E+00
(PID.TID 0000.0001)  ploadbar=  1.01133250219461E+05
 cg2d: Sum(rhs),rhsMax =  -2.52590883765299E+01  3.21199478822118E+00
(PID.TID 0000.0001)  ploadbar=  1.01133694182609E+05
 cg2d: Sum(rhs),rhsMax =  -2.53741287033014E+01  3.19811378348133E+00
(PID.TID 0000.0001)  ploadbar=  1.01133512208237E+05
 cg2d: Sum(rhs),rhsMax =  -2.54906172429780E+01  3.18410794835890E+00
(PID.TID 0000.0001)  ploadbar=  1.01133330233864E+05
 cg2d: Sum(rhs),rhsMax =  -2.56120832923080E+01  3.16956053064379E+00
(PID.TID 0000.0001)  ploadbar=  1.01133148259492E+05
 cg2d: Sum(rhs),rhsMax =  -2.57402098186788E+01  3.15429608215256E+00
(PID.TID 0000.0001)  ploadbar=  1.01132966285120E+05
 cg2d: Sum(rhs),rhsMax =  -2.58768689819478E+01  3.13811924038922E+00
(PID.TID 0000.0001)  ploadbar=  1.01132784310748E+05
 cg2d: Sum(rhs),rhsMax =  -2.60240858192350E+01  3.12083228099278E+00
(PID.TID 0000.0001)  ploadbar=  1.01132602336376E+05
 cg2d: Sum(rhs),rhsMax =  -2.61837449903801E+01  3.10233669065873E+00
(PID.TID 0000.0001)  ploadbar=  1.01131281307556E+05
 cg2d: Sum(rhs),rhsMax =  -2.63554830184433E+01  3.08271020160435E+00
(PID.TID 0000.0001)  ploadbar=  1.01129960278736E+05
 cg2d: Sum(rhs),rhsMax =  -2.65419291989817E+01  3.06169899099929E+00
(PID.TID 0000.0001)  ploadbar=  1.01128639249916E+05
 cg2d: Sum(rhs),rhsMax =  -2.67444761346662E+01  3.03920678962870E+00
(PID.TID 0000.0001)  ploadbar=  1.01127318221096E+05
 cg2d: Sum(rhs),rhsMax =  -2.69644773572657E+01  3.01516155831063E+00
(PID.TID 0000.0001)  ploadbar=  1.01125997192276E+05
 cg2d: Sum(rhs),rhsMax =  -2.72042098448926E+01  2.98939982908212E+00
(PID.TID 0000.0001)  ploadbar=  1.01124676163456E+05
 cg2d: Sum(rhs),rhsMax =  -2.74653687232332E+01  2.96164780564869E+00
(PID.TID 0000.0001)  ploadbar=  1.01123539818722E+05
 cg2d: Sum(rhs),rhsMax =  -2.77469342117038E+01  2.93212256004518E+00
(PID.TID 0000.0001)  ploadbar=  1.01122403473989E+05
 cg2d: Sum(rhs),rhsMax =  -2.80464016632529E+01  2.90120496205516E+00
(PID.TID 0000.0001)  ploadbar=  1.01121267129255E+05
 cg2d: Sum(rhs),rhsMax =  -2.83579147534162E+01  2.86959927177521E+00
(PID.TID 0000.0001)  ploadbar=  1.01120130784522E+05
 cg2d: Sum(rhs),rhsMax =  -2.86719529831373E+01  2.83831967525846E+00
(PID.TID 0000.0001)  ploadbar=  1.01118994439788E+05
 cg2d: Sum(rhs),rhsMax =  -2.89808741726835E+01  2.80810518048318E+00
(PID.TID 0000.0001)  ploadbar=  1.01117858095055E+05
 cg2d: Sum(rhs),rhsMax =  -2.92827460595538E+01  2.77926964954687E+00
(PID.TID 0000.0001)  ploadbar=  1.01116993746516E+05
 cg2d: Sum(rhs),rhsMax =  -2.95869350873115E+01  2.75087848165131E+00
(PID.TID 0000.0001)  ploadbar=  1.01116129397977E+05
 cg2d: Sum(rhs),rhsMax =  -2.98926495565962E+01  2.72299258965320E+00
(PID.TID 0000.0001)  ploadbar=  1.01115265049438E+05
 cg2d: Sum(rhs),rhsMax =  -3.02019183723999E+01  2.69541968929561E+00
(PID.TID 0000.0001)  ploadbar=  1.01114400700899E+05
 cg2d: Sum(rhs),rhsMax =  -3.05207320407261E+01  2.66763866965785E+00
(PID.TID 0000.0001)  ploadbar=  1.01113536352360E+05
 cg2d: Sum(rhs),rhsMax =  -3.08554423216727E+01  2.63913870161571E+00
(PID.TID 0000.0001)  ploadbar=  1.01112672003821E+05
 cg2d: Sum(rhs),rhsMax =  -3.11994469346943E+01  2.61044579401610E+00
(PID.TID 0000.0001)  ploadbar=  1.01111492015899E+05
 cg2d: Sum(rhs),rhsMax =  -3.15549592179717E+01  2.58141026434219E+00
(PID.TID 0000.0001)  ploadbar=  1.01110312027978E+05
 cg2d: Sum(rhs),rhsMax =  -3.19183771296080E+01  2.55236688227858E+00
(PID.TID 0000.0001)  ploadbar=  1.01109132040056E+05
 cg2d: Sum(rhs),rhsMax =  -3.22873761424908E+01  2.52352872625781E+00
(PID.TID 0000.0001)  ploadbar=  1.01107952052135E+05
 cg2d: Sum(rhs),rhsMax =  -3.26602994532377E+01  2.49503646680571E+00
(PID.TID 0000.0001)  ploadbar=  1.01106772064214E+05
 cg2d: Sum(rhs),rhsMax =  -3.30331817511809E+01  2.46718804333636E+00
(PID.TID 0000.0001)  ploadbar=  1.01105592076292E+05
 cg2d: Sum(rhs),rhsMax =  -3.34015937310161E+01  2.44037795461558E+00
(PID.TID 0000.0001)  ploadbar=  1.01104364193072E+05
 cg2d: Sum(rhs),rhsMax =  -3.37738653084326E+01  2.41395685350261E+00
(PID.TID 0000.0001)  ploadbar=  1.01103136309851E+05
 cg2d: Sum(rhs),rhsMax =  -3.34653180197674E+01  2.43678109356473E+00
(PID.TID 0000.0001)  ploadbar=  1.01101908426631E+05
 cg2d: Sum(rhs),rhsMax =  -3.28286472907093E+01  2.48471431368461E+00
(PID.TID 0000.0001)  ploadbar=  1.01100680543411E+05
 cg2d: Sum(rhs),rhsMax =  -3.22531705655544E+01  2.52983885901414E+00
(PID.TID 0000.0001)  ploadbar=  1.01099452660190E+05
 cg2d: Sum(rhs),rhsMax =  -3.17301583175403E+01  2.57245072386606E+00
(PID.TID 0000.0001)  ploadbar=  1.01098224776970E+05
 cg2d: Sum(rhs),rhsMax =  -3.12547095024162E+01  2.61246016309746E+00
(PID.TID 0000.0001)  ploadbar=  1.01096716500334E+05
 cg2d: Sum(rhs),rhsMax =  -3.08111665873287E+01  2.65089145123574E+00
(PID.TID 0000.0001)  ploadbar=  1.01095208223698E+05
 cg2d: Sum(rhs),rhsMax =  -3.04238445422766E+01  2.68541080019419E+00
(PID.TID 0000.0001)  ploadbar=  1.01093699947062E+05
 cg2d: Sum(rhs),rhsMax =  -3.01122921568034E+01  2.71391123828075E+00
(PID.TID 0000.0001)  ploadbar=  1.01092191670426E+05
 cg2d: Sum(rhs),rhsMax =  -2.98799342196400E+01  2.73569072401720E+00
(PID.TID 0000.0001)  ploadbar=  1.01090683393790E+05
 cg2d: Sum(rhs),rhsMax =  -2.97229652154596E+01  2.75077669100198E+00
(PID.TID 0000.0001)  ploadbar=  1.01089175117154E+05
 cg2d: Sum(rhs),rhsMax =  -2.96083910660809E+01  2.76220693141697E+00
(PID.TID 0000.0001)  ploadbar=  1.01088780239865E+05
 cg2d: Sum(rhs),rhsMax =  -2.96194811654992E+01  2.76209098914130E+00
(PID.TID 0000.0001)  ploadbar=  1.01088385362577E+05
 cg2d: Sum(rhs),rhsMax =  -2.97904821224428E+01  2.74728221935190E+00
(PID.TID 0000.0001)  ploadbar=  1.01087990485288E+05
 cg2d: Sum(rhs),rhsMax =  -3.00538850670923E+01  2.72437208843313E+00
(PID.TID 0000.0001)  ploadbar=  1.01087595607999E+05
 cg2d: Sum(rhs),rhsMax =  -3.04838842818192E+01  2.68722759548388E+00
(PID.TID 0000.0001)  ploadbar=  1.01087200730710E+05
 cg2d: Sum(rhs),rhsMax =  -3.11419909209129E+01  2.63182865802100E+00
(PID.TID 0000.0001)  ploadbar=  1.01086805853421E+05
 cg2d: Sum(rhs),rhsMax =  -3.18764641386644E+01  2.57246335187228E+00
(PID.TID 0000.0001)  ploadbar=  1.01085710255702E+05
 cg2d: Sum(rhs),rhsMax =  -3.26977551338070E+01  2.50901750998729E+00
(PID.TID 0000.0001)  ploadbar=  1.01084614657983E+05
 cg2d: Sum(rhs),rhsMax =  -3.35643265821681E+01  2.44531363732987E+00
(PID.TID 0000.0001)  ploadbar=  1.01083519060263E+05
 cg2d: Sum(rhs),rhsMax =  -3.44266519469728E+01  2.38505337908890E+00
(PID.TID 0000.0001)  ploadbar=  1.01082423462544E+05
 cg2d: Sum(rhs),rhsMax =  -3.52738543905302E+01  2.32869066716896E+00
(PID.TID 0000.0001)  ploadbar=  1.01081327864824E+05
 cg2d: Sum(rhs),rhsMax =  -3.60975176796819E+01  2.27640719351888E+00
(PID.TID 0000.0001)  ploadbar=  1.01080232267105E+05
 cg2d: Sum(rhs),rhsMax =  -3.69408334056382E+01  2.22529941283047E+00
(PID.TID 0000.0001)  ploadbar=  1.01079555452000E+05
 cg2d: Sum(rhs),rhsMax =  -3.71190765917545E+01  2.21548370151264E+00
(PID.TID 0000.0001)  ploadbar=  1.01078878636896E+05
 cg2d: Sum(rhs),rhsMax =  -3.71160387683248E+01  2.21655255811674E+00
(PID.TID 0000.0001)  ploadbar=  1.01078201821791E+05
 cg2d: Sum(rhs),rhsMax =  -3.71404801402795E+01  2.21599807751430E+00
(PID.TID 0000.0001)  ploadbar=  1.01077525006687E+05
 cg2d: Sum(rhs),rhsMax =  -3.71894971246026E+01  2.21399897186184E+00
(PID.TID 0000.0001)  ploadbar=  1.01076848191582E+05
 cg2d: Sum(rhs),rhsMax =  -3.72605955783157E+01  2.21071857317366E+00
(PID.TID 0000.0001)  ploadbar=  1.01076171376478E+05
 cg2d: Sum(rhs),rhsMax =  -3.73785293399331E+01  2.20458386737172E+00
(PID.TID 0000.0001)  ploadbar=  1.01075932462180E+05
 cg2d: Sum(rhs),rhsMax =  -3.75397919657438E+01  2.19584076473931E+00
(PID.TID 0000.0001)  ploadbar=  1.01075693547882E+05
 cg2d: Sum(rhs),rhsMax =  -3.77433662186138E+01  2.18461025340905E+00
(PID.TID 0000.0001)  ploadbar=  1.01075454633584E+05
 cg2d: Sum(rhs),rhsMax =  -3.79898615537516E+01  2.17093991095360E+00
(PID.TID 0000.0001)  ploadbar=  1.01075215719286E+05
 cg2d: Sum(rhs),rhsMax =  -3.82796305487650E+01  2.15491188572272E+00
(PID.TID 0000.0001)  ploadbar=  1.01074976804988E+05
 cg2d: Sum(rhs),rhsMax =  -3.86122093545588E+01  2.13666821173144E+00
(PID.TID 0000.0001)  ploadbar=  1.01074737890690E+05
 cg2d: Sum(rhs),rhsMax =  -3.89693703644856E+01  2.11748278042153E+00
(PID.TID 0000.0001)  ploadbar=  1.01073456500818E+05
 cg2d: Sum(rhs),rhsMax =  -3.93724837341846E+01  2.09626978244262E+00
(PID.TID 0000.0001)  ploadbar=  1.01072175110946E+05
 cg2d: Sum(rhs),rhsMax =  -3.98463253603231E+01  2.07187915251525E+00
(PID.TID 0000.0001)  ploadbar=  1.01070893721074E+05
 cg2d: Sum(rhs),rhsMax =  -4.03820054451783E+01  2.04500632547815E+00
(PID.TID 0000.0001)  ploadbar=  1.01069612331203E+05
 cg2d: Sum(rhs),rhsMax =  -4.09763102651385E+01  2.01603213660871E+00
(PID.TID 0000.0001)  ploadbar=  1.01068330941331E+05
 cg2d: Sum(rhs),rhsMax =  -4.16294697148467E+01  1.98516291834251E+00
(PID.TID 0000.0001)  ploadbar=  1.01067049551459E+05
 cg2d: Sum(rhs),rhsMax =  -4.23326735772971E+01  1.95286995443962E+00
(PID.TID 0000.0001)  ploadbar=  1.01067179073403E+05
 cg2d: Sum(rhs),rhsMax =  -4.30868015415300E+01  1.91929576584514E+00
(PID.TID 0000.0001)  ploadbar=  1.01067308595347E+05
 cg2d: Sum(rhs),rhsMax =  -4.38867401496793E+01  1.88484748724935E+00
(PID.TID 0000.0001)  ploadbar=  1.01067438117291E+05
 cg2d: Sum(rhs),rhsMax =  -4.42037550841002E+01  1.87180778897265E+00
(PID.TID 0000.0001)  ploadbar=  1.01067567639235E+05
 cg2d: Sum(rhs),rhsMax =  -4.39611824298910E+01  1.88256907526965E+00
(PID.TID 0000.0001)  ploadbar=  1.01067697161179E+05
 cg2d: Sum(rhs),rhsMax =  -4.37140756899901E+01  1.89360185843018E+00
(PID.TID 0000.0001)  ploadbar=  1.01067826683123E+05
 cg2d: Sum(rhs),rhsMax =  -4.34803866933677E+01  1.90424776728896E+00
(PID.TID 0000.0001)  ploadbar=  1.01069447931434E+05
 cg2d: Sum(rhs),rhsMax =  -4.33269929338719E+01  1.91152809840324E+00
(PID.TID 0000.0001)  ploadbar=  1.01071069179744E+05
 cg2d: Sum(rhs),rhsMax =  -4.32565633363076E+01  1.91525493087495E+00
(PID.TID 0000.0001)  ploadbar=  1.01072690428055E+05
 cg2d: Sum(rhs),rhsMax =  -4.32525622862075E+01  1.91612440379335E+00
(PID.TID 0000.0001)  ploadbar=  1.01074311676366E+05
 cg2d: Sum(rhs),rhsMax =  -4.33048990778315E+01  1.91458368463512E+00
(PID.TID 0000.0001)  ploadbar=  1.01075932924677E+05
 cg2d: Sum(rhs),rhsMax =  -4.34113874041807E+01  1.91074841348056E+00
(PID.TID 0000.0001)  ploadbar=  1.01077554172988E+05
 cg2d: Sum(rhs),rhsMax =  -4.36227866882084E+01  1.90223074201707E+00
(PID.TID 0000.0001)  ploadbar=  1.01079207543851E+05
 cg2d: Sum(rhs),rhsMax =  -4.38641610882053E+01  1.89238663181924E+00
(PID.TID 0000.0001)  ploadbar=  1.01080860914713E+05
 cg2d: Sum(rhs),rhsMax =  -4.41342463852320E+01  1.88131531956646E+00
(PID.TID 0000.0001)  ploadbar=  1.01082514285576E+05
 cg2d: Sum(rhs),rhsMax =  -4.44303858880086E+01  1.86917829788409E+00
(PID.TID 0000.0001)  ploadbar=  1.01084167656439E+05
 cg2d: Sum(rhs),rhsMax =  -4.47691676535876E+01  1.85533696414372E+00
(PID.TID 0000.0001)  ploadbar=  1.01085821027302E+05
 cg2d: Sum(rhs),rhsMax =  -4.51836173710852E+01  1.83852779446645E+00
(PID.TID 0000.0001)  ploadbar=  1.01087474398164E+05
 cg2d: Sum(rhs),rhsMax =  -4.56473865313907E+01  1.82008430710083E+00
(PID.TID 0000.0001)  ploadbar=  1.01088536244371E+05
 cg2d: Sum(rhs),rhsMax =  -4.60762222534393E+01  1.80340561923909E+00
(PID.TID 0000.0001)  ploadbar=  1.01089598090578E+05
 cg2d: Sum(rhs),rhsMax =  -4.64070094320183E+01  1.79084013724222E+00
(PID.TID 0000.0001)  ploadbar=  1.01090659936785E+05
 cg2d: Sum(rhs),rhsMax =  -4.66146361299296E+01  1.78318207583283E+00
(PID.TID 0000.0001)  ploadbar=  1.01091721782991E+05
 cg2d: Sum(rhs),rhsMax =  -4.66799505823826E+01  1.78104332234134E+00
(PID.TID 0000.0001)  ploadbar=  1.01092783629198E+05
 cg2d: Sum(rhs),rhsMax =  -4.66111386379868E+01  1.78407025372196E+00
(PID.TID 0000.0001)  ploadbar=  1.01093845475405E+05
 cg2d: Sum(rhs),rhsMax =  -4.63745142059389E+01  1.79357469184620E+00
(PID.TID 0000.0001)  ploadbar=  1.01095812883927E+05
 cg2d: Sum(rhs),rhsMax =  -4.61097567399445E+01  1.80427903252791E+00
(PID.TID 0000.0001)  ploadbar=  1.01097780292449E+05
 cg2d: Sum(rhs),rhsMax =  -4.58394742433222E+01  1.81533367248588E+00
(PID.TID 0000.0001)  ploadbar=  1.01099747700971E+05
 cg2d: Sum(rhs),rhsMax =  -4.55831608121908E+01  1.82597215447155E+00
(PID.TID 0000.0001)  ploadbar=  1.01101715109494E+05
 cg2d: Sum(rhs),rhsMax =  -4.53556243502592E+01  1.83558136095789E+00
(PID.TID 0000.0001)  ploadbar=  1.01103682518016E+05
 cg2d: Sum(rhs),rhsMax =  -4.51656648728949E+01  1.84377189647792E+00
(PID.TID 0000.0001)  ploadbar=  1.01105649926538E+05
 cg2d: Sum(rhs),rhsMax =  -4.50157632112156E+01  1.85047501254671E+00
(PID.TID 0000.0001)  ploadbar=  1.01107899705279E+05
 cg2d: Sum(rhs),rhsMax =  -4.49231334973121E+01  1.85494400999094E+00
(PID.TID 0000.0001)  ploadbar=  1.01110149484020E+05
 cg2d: Sum(rhs),rhsMax =  -4.49507224538635E+01  1.85455759783232E+00
(PID.TID 0000.0001)  ploadbar=  1.01112399262761E+05
 cg2d: Sum(rhs),rhsMax =  -4.50931265400219E+01  1.84955200301637E+00
(PID.TID 0000.0001)  ploadbar=  1.01114649041502E+05
 cg2d: Sum(rhs),rhsMax =  -4.53385996952907E+01  1.84049030329869E+00
(PID.TID 0000.0001)  ploadbar=  1.01116898820243E+05
 cg2d: Sum(rhs),rhsMax =  -4.56753944335761E+01  1.82796540369285E+00
(PID.TID 0000.0001)  ploadbar=  1.01119148598985E+05
 cg2d: Sum(rhs),rhsMax =  -4.62087006877590E+01  1.80780460912198E+00
(PID.TID 0000.0001)  ploadbar=  1.01120885302175E+05
 cg2d: Sum(rhs),rhsMax =  -4.68917887093222E+01  1.78229280131638E+00
(PID.TID 0000.0001)  ploadbar=  1.01122622005365E+05
 cg2d: Sum(rhs),rhsMax =  -4.66530589559749E+01  1.79214121316842E+00
(PID.TID 0000.0001)  ploadbar=  1.01124358708555E+05
 cg2d: Sum(rhs),rhsMax =  -4.71810574809219E+01  1.77271103312307E+00
(PID.TID 0000.0001)  ploadbar=  1.01126095411746E+05
 cg2d: Sum(rhs),rhsMax =  -4.78848992734588E+01  1.74718312335602E+00
(PID.TID 0000.0001)  ploadbar=  1.01127832114936E+05
 cg2d: Sum(rhs),rhsMax =  -4.87186158280752E+01  1.71771766851594E+00
(PID.TID 0000.0001)  ploadbar=  1.01129568818126E+05
 cg2d: Sum(rhs),rhsMax =  -4.97034965341491E+01  1.68414947767599E+00
(PID.TID 0000.0001)  ploadbar=  1.01130105117164E+05
 cg2d: Sum(rhs),rhsMax =  -5.08781024850420E+01  1.64576620016547E+00
(PID.TID 0000.0001)  ploadbar=  1.01130641416202E+05
 cg2d: Sum(rhs),rhsMax =  -5.22029114020254E+01  1.60452577874540E+00
(PID.TID 0000.0001)  ploadbar=  1.01131177715239E+05
 cg2d: Sum(rhs),rhsMax =  -5.25243420406061E+01  1.59526477786195E+00
(PID.TID 0000.0001)  ploadbar=  1.01131714014277E+05
 cg2d: Sum(rhs),rhsMax =  -5.08248532962757E+01  1.64921272204180E+00
(PID.TID 0000.0001)  ploadbar=  1.01132250313314E+05
 cg2d: Sum(rhs),rhsMax =  -4.74127156716357E+01  1.76857161025785E+00
(PID.TID 0000.0001)  ploadbar=  1.01132786612352E+05
 cg2d: Sum(rhs),rhsMax =  -4.47049446583451E+01  1.87635694352108E+00
(PID.TID 0000.0001)  ploadbar=  1.01133755086817E+05
 cg2d: Sum(rhs),rhsMax =  -4.30411866068995E+01  1.94952454185123E+00
(PID.TID 0000.0001)  ploadbar=  1.01134723561282E+05
 cg2d: Sum(rhs),rhsMax =  -4.16924236984394E+01  2.01320353242497E+00
(PID.TID 0000.0001)  ploadbar=  1.01135692035747E+05
 cg2d: Sum(rhs),rhsMax =  -4.06159847295155E+01  2.06713919053554E+00
(PID.TID 0000.0001)  ploadbar=  1.01136660510212E+05
 cg2d: Sum(rhs),rhsMax =  -3.97916325250204E+01  2.11050716049046E+00
(PID.TID 0000.0001)  ploadbar=  1.01137628984676E+05
 cg2d: Sum(rhs),rhsMax =  -3.92130300445863E+01  2.14214954214745E+00
(PID.TID 0000.0001)  ploadbar=  1.01138597459141E+05
 cg2d: Sum(rhs),rhsMax =  -3.89162090768831E+01  2.15906621683518E+00
(PID.TID 0000.0001)  ploadbar=  1.01139760065705E+05
 cg2d: Sum(rhs),rhsMax =  -3.89405670666330E+01  2.15836243220286E+00
(PID.TID 0000.0001)  ploadbar=  1.01140922672269E+05
 cg2d: Sum(rhs),rhsMax =  -3.90553464380852E+01  2.15273127968590E+00
(PID.TID 0000.0001)  ploadbar=  1.01142085278833E+05
 cg2d: Sum(rhs),rhsMax =  -3.89644769882504E+01  2.15854061151904E+00
(PID.TID 0000.0001)  ploadbar=  1.01143247885397E+05
 cg2d: Sum(rhs),rhsMax =  -3.87063460569572E+01  2.17380534514264E+00
(PID.TID 0000.0001)  ploadbar=  1.01144410491961E+05
 cg2d: Sum(rhs),rhsMax =  -3.87981524385625E+01  2.16960713799813E+00
(PID.TID 0000.0001)  ploadbar=  1.01145573098525E+05
 cg2d: Sum(rhs),rhsMax =  -3.90459373712567E+01  2.15671267096424E+00
(PID.TID 0000.0001)  ploadbar=  1.01146941831443E+05
 cg2d: Sum(rhs),rhsMax =  -3.93398906881151E+01  2.14139329208524E+00
(PID.TID 0000.0001)  ploadbar=  1.01148310564361E+05
 cg2d: Sum(rhs),rhsMax =  -3.95876063255321E+01  2.12871769552732E+00
(PID.TID 0000.0001)  ploadbar=  1.01149679297279E+05
 cg2d: Sum(rhs),rhsMax =  -3.97750103388820E+01  2.11934682676067E+00
(PID.TID 0000.0001)  ploadbar=  1.01151048030197E+05
 cg2d: Sum(rhs),rhsMax =  -3.99917497620746E+01  2.10845783150523E+00
(PID.TID 0000.0001)  ploadbar=  1.01152416763115E+05
 cg2d: Sum(rhs),rhsMax =  -4.01563788063872E+01  2.10034514531623E+00
(PID.TID 0000.0001)  ploadbar=  1.01153785496033E+05
 cg2d: Sum(rhs),rhsMax =  -4.03066259501215E+01  2.09314051100674E+00
(PID.TID 0000.0001)  ploadbar=  1.01154108005937E+05
 cg2d: Sum(rhs),rhsMax =  -4.04800975489755E+01  2.08488842871931E+00
(PID.TID 0000.0001)  ploadbar=  1.01154430515842E+05
 cg2d: Sum(rhs),rhsMax =  -4.07071201298218E+01  2.07407131628809E+00
(PID.TID 0000.0001)  ploadbar=  1.01154753025747E+05
 cg2d: Sum(rhs),rhsMax =  -4.09941102079519E+01  2.06045350824991E+00
(PID.TID 0000.0001)  ploadbar=  1.01155075535652E+05
 cg2d: Sum(rhs),rhsMax =  -4.13240960773267E+01  2.04499429963146E+00
(PID.TID 0000.0001)  ploadbar=  1.01155398045557E+05
 cg2d: Sum(rhs),rhsMax =  -4.16617047289717E+01  2.02951009003671E+00
(PID.TID 0000.0001)  ploadbar=  1.01155720555461E+05
 cg2d: Sum(rhs),rhsMax =  -4.17008443251110E+01  2.02862981846678E+00
(PID.TID 0000.0001)  ploadbar=  1.01155021205440E+05
 cg2d: Sum(rhs),rhsMax =  -4.14428843176774E+01  2.04222384014217E+00
(PID.TID 0000.0001)  ploadbar=  1.01154321855418E+05
 cg2d: Sum(rhs),rhsMax =  -4.08940316646947E+01  2.07055864390926E+00
(PID.TID 0000.0001)  ploadbar=  1.01153622505397E+05
 cg2d: Sum(rhs),rhsMax =  -4.07649539321920E+01  2.07799159944908E+00
(PID.TID 0000.0001)  ploadbar=  1.01152923155375E+05
 cg2d: Sum(rhs),rhsMax =  -4.14483444103086E+01  2.04455057475710E+00
(PID.TID 0000.0001)  ploadbar=  1.01152223805354E+05
 cg2d: Sum(rhs),rhsMax =  -4.19292928830682E+01  2.02187126083825E+00
(PID.TID 0000.0001)  ploadbar=  1.01151524455332E+05
 cg2d: Sum(rhs),rhsMax =  -4.22919949341198E+01  2.00533286853790E+00
(PID.TID 0000.0001)  ploadbar=  1.01151413204330E+05
 cg2d: Sum(rhs),rhsMax =  -4.26961485550563E+01  1.98718110715834E+00
(PID.TID 0000.0001)  ploadbar=  1.01151301953328E+05
 cg2d: Sum(rhs),rhsMax =  -4.30714538991414E+01  1.97073306961470E+00
(PID.TID 0000.0001)  ploadbar=  1.01151190702325E+05
 cg2d: Sum(rhs),rhsMax =  -4.34012463594203E+01  1.95667005255706E+00
(PID.TID 0000.0001)  ploadbar=  1.01151079451323E+05
 cg2d: Sum(rhs),rhsMax =  -4.36828926545651E+01  1.94501239721322E+00
(PID.TID 0000.0001)  ploadbar=  1.01150968200321E+05
 cg2d: Sum(rhs),rhsMax =  -4.39169469266981E+01  1.93565373530283E+00
(PID.TID 0000.0001)  ploadbar=  1.01150856949319E+05
 cg2d: Sum(rhs),rhsMax =  -4.40111788801954E+01  1.93238541657462E+00
(PID.TID 0000.0001)  ploadbar=  1.01150933448049E+05
 cg2d: Sum(rhs),rhsMax =  -4.41130629647078E+01  1.92866548584698E+00
(PID.TID 0000.0001)  ploadbar=  1.01151009946780E+05
 cg2d: Sum(rhs),rhsMax =  -4.42213572883457E+01  1.92455633217584E+00
(PID.TID 0000.0001)  ploadbar=  1.01151086445511E+05
 cg2d: Sum(rhs),rhsMax =  -4.43222218977275E+01  1.92066665527176E+00
(PID.TID 0000.0001)  ploadbar=  1.01151162944242E+05
 cg2d: Sum(rhs),rhsMax =  -4.44137625184919E+01  1.91708206015218E+00
(PID.TID 0000.0001)  ploadbar=  1.01151239442973E+05
 cg2d: Sum(rhs),rhsMax =  -4.44652125036893E+01  1.91512867453954E+00
(PID.TID 0000.0001)  ploadbar=  1.01151315941703E+05
 cg2d: Sum(rhs),rhsMax =  -4.45232827227863E+01  1.91295750175668E+00
(PID.TID 0000.0001)  ploadbar=  1.01151207335566E+05
 cg2d: Sum(rhs),rhsMax =  -4.45487677653661E+01  1.91225036974938E+00
(PID.TID 0000.0001)  ploadbar=  1.01151098729429E+05
 cg2d: Sum(rhs),rhsMax =  -4.45551210620813E+01  1.91242807231222E+00
(PID.TID 0000.0001)  ploadbar=  1.01150990123292E+05
 cg2d: Sum(rhs),rhsMax =  -4.45240736928256E+01  1.91427881777566E+00
(PID.TID 0000.0001)  ploadbar=  1.01150881517154E+05
 cg2d: Sum(rhs),rhsMax =  -4.44850584498235E+01  1.91654038082581E+00
(PID.TID 0000.0001)  ploadbar=  1.01150772911017E+05
 cg2d: Sum(rhs),rhsMax =  -4.44941751943388E+01  1.91679325588804E+00
(PID.TID 0000.0001)  ploadbar=  1.01150664304880E+05
 cg2d: Sum(rhs),rhsMax =  -4.45235387850148E+01  1.91616990833998E+00
(PID.TID 0000.0001)  ploadbar=  1.01150728476681E+05
 cg2d: Sum(rhs),rhsMax =  -4.46065446948307E+01  1.91324120752361E+00
(PID.TID 0000.0001)  ploadbar=  1.01150792648481E+05
 cg2d: Sum(rhs),rhsMax =  -4.47496208354586E+01  1.90776490387007E+00
(PID.TID 0000.0001)  ploadbar=  1.01150856820282E+05
 cg2d: Sum(rhs),rhsMax =  -4.47898228787005E+01  1.90670425893700E+00
(PID.TID 0000.0001)  ploadbar=  1.01150920992082E+05
 cg2d: Sum(rhs),rhsMax =  -4.49208587847796E+01  1.90181148010611E+00
(PID.TID 0000.0001)  ploadbar=  1.01150985163883E+05
 cg2d: Sum(rhs),rhsMax =  -4.51413889154686E+01  1.89320372430382E+00
(PID.TID 0000.0001)  ploadbar=  1.01151049335683E+05
 cg2d: Sum(rhs),rhsMax =  -4.52673358957077E+01  1.88866916645499E+00
(PID.TID 0000.0001)  ploadbar=  1.01151559616822E+05
 cg2d: Sum(rhs),rhsMax =  -4.53322868227466E+01  1.88674297658845E+00
(PID.TID 0000.0001)  ploadbar=  1.01152069897960E+05
 cg2d: Sum(rhs),rhsMax =  -4.55019890887858E+01  1.88053389253259E+00
(PID.TID 0000.0001)  ploadbar=  1.01152580179098E+05
 cg2d: Sum(rhs),rhsMax =  -4.58694162830723E+01  1.86634356011226E+00
(PID.TID 0000.0001)  ploadbar=  1.01153090460236E+05
 cg2d: Sum(rhs),rhsMax =  -4.64047322713617E+01  1.84573066309200E+00
(PID.TID 0000.0001)  ploadbar=  1.01153600741374E+05
 cg2d: Sum(rhs),rhsMax =  -4.71006269552378E+01  1.81941644641270E+00
(PID.TID 0000.0001)  ploadbar=  1.01154111022512E+05
 cg2d: Sum(rhs),rhsMax =  -4.79724894129977E+01  1.78719446458729E+00
(PID.TID 0000.0001)  ploadbar=  1.01153903974593E+05
 cg2d: Sum(rhs),rhsMax =  -4.90153292555191E+01  1.74990492432083E+00
(PID.TID 0000.0001)  ploadbar=  1.01153696926673E+05
 cg2d: Sum(rhs),rhsMax =  -4.98890129478814E+01  1.71989330244405E+00
(PID.TID 0000.0001)  ploadbar=  1.01153489878753E+05
 cg2d: Sum(rhs),rhsMax =  -5.07748552975279E+01  1.69042765240854E+00
(PID.TID 0000.0001)  ploadbar=  1.01153282830834E+05
 cg2d: Sum(rhs),rhsMax =  -5.17229680876295E+01  1.65989004264673E+00
(PID.TID 0000.0001)  ploadbar=  1.01153075782914E+05
 cg2d: Sum(rhs),rhsMax =  -5.23919324324460E+01  1.63905887619529E+00
(PID.TID 0000.0001)  ploadbar=  1.01152868734994E+05
 cg2d: Sum(rhs),rhsMax =  -5.29483580186060E+01  1.62224253071402E+00
(PID.TID 0000.0001)  ploadbar=  1.01152248052039E+05
 cg2d: Sum(rhs),rhsMax =  -5.35677076664520E+01  1.60394024320343E+00
(PID.TID 0000.0001)  ploadbar=  1.01151627369084E+05
 cg2d: Sum(rhs),rhsMax =  -5.42599962725999E+01  1.58397647698293E+00
(PID.TID 0000.0001)  ploadbar=  1.01151006686129E+05
 cg2d: Sum(rhs),rhsMax =  -5.50108850506281E+01  1.56290150079210E+00
(PID.TID 0000.0001)  ploadbar=  1.01150386003174E+05
 cg2d: Sum(rhs),rhsMax =  -5.53145390741213E+01  1.55491750041665E+00
(PID.TID 0000.0001)  ploadbar=  1.01149765320219E+05
 cg2d: Sum(rhs),rhsMax =  -5.48771663309334E+01  1.56796653575193E+00
(PID.TID 0000.0001)  ploadbar=  1.01149144637264E+05
 cg2d: Sum(rhs),rhsMax =  -5.44518217279354E+01  1.58084607231057E+00
(PID.TID 0000.0001)  ploadbar=  1.01149041557133E+05
 cg2d: Sum(rhs),rhsMax =  -5.40568721928928E+01  1.59300211875566E+00
(PID.TID 0000.0001)  ploadbar=  1.01148938477002E+05
 cg2d: Sum(rhs),rhsMax =  -5.36921807701129E+01  1.60440754029290E+00
(PID.TID 0000.0001)  ploadbar=  1.01148835396871E+05
 cg2d: Sum(rhs),rhsMax =  -5.33777088861647E+01  1.61442636049803E+00
(PID.TID 0000.0001)  ploadbar=  1.01148732316740E+05
 cg2d: Sum(rhs),rhsMax =  -5.31457549762404E+01  1.62202073990654E+00
(PID.TID 0000.0001)  ploadbar=  1.01148629236609E+05
 cg2d: Sum(rhs),rhsMax =  -5.30183763498463E+01  1.62645001319969E+00
(PID.TID 0000.0001)  ploadbar=  1.01148526156478E+05
 cg2d: Sum(rhs),rhsMax =  -5.30087573677117E+01  1.62730541367197E+00
(PID.TID 0000.0001)  ploadbar=  1.01148926324936E+05
 cg2d: Sum(rhs),rhsMax =  -5.31068088367960E+01  1.62488782147297E+00
(PID.TID 0000.0001)  ploadbar=  1.01149326493394E+05
 cg2d: Sum(rhs),rhsMax =  -5.32963813172754E+01  1.61972292168484E+00
(PID.TID 0000.0001)  ploadbar=  1.01149726661853E+05
 cg2d: Sum(rhs),rhsMax =  -5.35480595230812E+01  1.61275572910584E+00
(PID.TID 0000.0001)  ploadbar=  1.01150126830311E+05
 cg2d: Sum(rhs),rhsMax =  -5.38497827765067E+01  1.60440101876564E+00
(PID.TID 0000.0001)  ploadbar=  1.01150526998770E+05
 cg2d: Sum(rhs),rhsMax =  -5.41901699106016E+01  1.59503822693211E+00
(PID.TID 0000.0001)  ploadbar=  1.01150927167228E+05
 cg2d: Sum(rhs),rhsMax =  -5.45574975133287E+01  1.58493382844902E+00
(PID.TID 0000.0001)  ploadbar=  1.01150738982613E+05
 cg2d: Sum(rhs),rhsMax =  -5.49758105393910E+01  1.57342887741124E+00
(PID.TID 0000.0001)  ploadbar=  1.01150550797997E+05
 cg2d: Sum(rhs),rhsMax =  -5.54123817238304E+01  1.56150925888863E+00
(PID.TID 0000.0001)  ploadbar=  1.01150362613382E+05
 cg2d: Sum(rhs),rhsMax =  -5.57009078393978E+01  1.55382117614344E+00
(PID.TID 0000.0001)  ploadbar=  1.01150174428767E+05
 cg2d: Sum(rhs),rhsMax =  -5.60874995465020E+01  1.54343782317850E+00
(PID.TID 0000.0001)  ploadbar=  1.01149986244151E+05
 cg2d: Sum(rhs),rhsMax =  -5.64933302126817E+01  1.53260634641583E+00
(PID.TID 0000.0001)  ploadbar=  1.01149798059536E+05
 cg2d: Sum(rhs),rhsMax =  -5.69074014256481E+01  1.52175158460919E+00
(PID.TID 0000.0001)  ploadbar=  1.01149177593360E+05
 cg2d: Sum(rhs),rhsMax =  -5.73439098193129E+01  1.51050380115957E+00
(PID.TID 0000.0001)  ploadbar=  1.01148557127184E+05
 cg2d: Sum(rhs),rhsMax =  -5.78387487839303E+01  1.49795623093174E+00
(PID.TID 0000.0001)  ploadbar=  1.01147936661008E+05
 cg2d: Sum(rhs),rhsMax =  -5.83438349813074E+01  1.48540507242714E+00
(PID.TID 0000.0001)  ploadbar=  1.01147316194832E+05
 cg2d: Sum(rhs),rhsMax =  -5.88609620604532E+01  1.47281461189100E+00
(PID.TID 0000.0001)  ploadbar=  1.01146695728657E+05
 cg2d: Sum(rhs),rhsMax =  -5.93935619008868E+01  1.46010713314151E+00
(PID.TID 0000.0001)  ploadbar=  1.01146075262481E+05
 cg2d: Sum(rhs),rhsMax =  -5.99188467306496E+01  1.44778937217579E+00
(PID.TID 0000.0001)  ploadbar=  1.01146305662406E+05
 cg2d: Sum(rhs),rhsMax =  -6.04509267751183E+01  1.43550899614041E+00
(PID.TID 0000.0001)  ploadbar=  1.01146536062331E+05
 cg2d: Sum(rhs),rhsMax =  -6.09919190660287E+01  1.42322165351847E+00
(PID.TID 0000.0001)  ploadbar=  1.01146766462256E+05
 cg2d: Sum(rhs),rhsMax =  -6.15427207416286E+01  1.41091679870351E+00
(PID.TID 0000.0001)  ploadbar=  1.01146996862181E+05
 cg2d: Sum(rhs),rhsMax =  -6.21028550813387E+01  1.39861651623189E+00
(PID.TID 0000.0001)  ploadbar=  1.01147227262106E+05
 cg2d: Sum(rhs),rhsMax =  -6.26690602521302E+01  1.38640441805040E+00
(PID.TID 0000.0001)  ploadbar=  1.01147457662031E+05
 cg2d: Sum(rhs),rhsMax =  -6.32900377729453E+01  1.37326136367426E+00
(PID.TID 0000.0001)  ploadbar=  1.01148334107387E+05
 cg2d: Sum(rhs),rhsMax =  -6.39435956579224E+01  1.35971887682444E+00
(PID.TID 0000.0001)  ploadbar=  1.01149210552743E+05
 cg2d: Sum(rhs),rhsMax =  -6.44781600528644E+01  1.34897358854630E+00
(PID.TID 0000.0001)  ploadbar=  1.01150086998099E+05
 cg2d: Sum(rhs),rhsMax =  -6.40046050259312E+01  1.35952341666068E+00
(PID.TID 0000.0001)  ploadbar=  1.01150963443455E+05
 cg2d: Sum(rhs),rhsMax =  -6.35213389830121E+01  1.37047747708053E+00
(PID.TID 0000.0001)  ploadbar=  1.01151839888811E+05
 cg2d: Sum(rhs),rhsMax =  -6.30502412864228E+01  1.38136953487151E+00
(PID.TID 0000.0001)  ploadbar=  1.01152716334167E+05
 cg2d: Sum(rhs),rhsMax =  -6.26226126808903E+01  1.39138576990370E+00
(PID.TID 0000.0001)  ploadbar=  1.01153021863281E+05
 cg2d: Sum(rhs),rhsMax =  -6.22321725254434E+01  1.40062916941659E+00
(PID.TID 0000.0001)  ploadbar=  1.01153327392395E+05
 cg2d: Sum(rhs),rhsMax =  -6.18825765332978E+01  1.40898594505716E+00
(PID.TID 0000.0001)  ploadbar=  1.01153632921509E+05
 cg2d: Sum(rhs),rhsMax =  -6.15673390360773E+01  1.41657385308661E+00
(PID.TID 0000.0001)  ploadbar=  1.01153938450624E+05
 cg2d: Sum(rhs),rhsMax =  -6.12688449414835E+01  1.42377754349687E+00
(PID.TID 0000.0001)  ploadbar=  1.01154243979738E+05
 cg2d: Sum(rhs),rhsMax =  -6.09632167561777E+01  1.43114844965443E+00
(PID.TID 0000.0001)  ploadbar=  1.01154549508852E+05
 cg2d: Sum(rhs),rhsMax =  -6.06356178156588E+01  1.43916875076320E+00
(PID.TID 0000.0001)  ploadbar=  1.01155051458018E+05
 cg2d: Sum(rhs),rhsMax =  -6.02932201710962E+01  1.44768659217653E+00
(PID.TID 0000.0001)  ploadbar=  1.01155553407184E+05
 cg2d: Sum(rhs),rhsMax =  -5.99369859236963E+01  1.45669328397593E+00
(PID.TID 0000.0001)  ploadbar=  1.01156055356350E+05
 cg2d: Sum(rhs),rhsMax =  -5.95749215611247E+01  1.46600818413588E+00
(PID.TID 0000.0001)  ploadbar=  1.01156557305515E+05
 cg2d: Sum(rhs),rhsMax =  -5.92205649852318E+01  1.47530110090418E+00
(PID.TID 0000.0001)  ploadbar=  1.01157059254681E+05
 cg2d: Sum(rhs),rhsMax =  -5.88911168301142E+01  1.48413306754718E+00
(PID.TID 0000.0001)  ploadbar=  1.01157561203847E+05
 cg2d: Sum(rhs),rhsMax =  -5.86030289182236E+01  1.49200508059868E+00
(PID.TID 0000.0001)  ploadbar=  1.01156788780250E+05
 cg2d: Sum(rhs),rhsMax =  -5.83767222342268E+01  1.49836096998882E+00
(PID.TID 0000.0001)  ploadbar=  1.01156016356653E+05
 cg2d: Sum(rhs),rhsMax =  -5.82091032894749E+01  1.50324915109128E+00
(PID.TID 0000.0001)  ploadbar=  1.01155243933056E+05
 cg2d: Sum(rhs),rhsMax =  -5.80821265376028E+01  1.50711727478727E+00
(PID.TID 0000.0001)  ploadbar=  1.01154471509459E+05
 cg2d: Sum(rhs),rhsMax =  -5.79708760703535E+01  1.51060679493764E+00
(PID.TID 0000.0001)  ploadbar=  1.01153699085862E+05
 cg2d: Sum(rhs),rhsMax =  -5.78527677604831E+01  1.51430459178742E+00
(PID.TID 0000.0001)  ploadbar=  1.01152926662265E+05
 cg2d: Sum(rhs),rhsMax =  -5.76966551888481E+01  1.51903960327284E+00
(PID.TID 0000.0001)  ploadbar=  1.01153450138075E+05
 cg2d: Sum(rhs),rhsMax =  -5.75109807330029E+01  1.52460747404800E+00
(PID.TID 0000.0001)  ploadbar=  1.01153973613885E+05
 cg2d: Sum(rhs),rhsMax =  -5.73002382178670E+01  1.53090291721045E+00
(PID.TID 0000.0001)  ploadbar=  1.01154497089695E+05
 cg2d: Sum(rhs),rhsMax =  -5.70766941783327E+01  1.53761334776174E+00
(PID.TID 0000.0001)  ploadbar=  1.01155020565505E+05
 cg2d: Sum(rhs),rhsMax =  -5.68568358285250E+01  1.54430517506682E+00
(PID.TID 0000.0001)  ploadbar=  1.01155544041316E+05
 cg2d: Sum(rhs),rhsMax =  -5.66567039722423E+01  1.55053612912419E+00
(PID.TID 0000.0001)  ploadbar=  1.01156067517126E+05
 cg2d: Sum(rhs),rhsMax =  -5.65019015037886E+01  1.55548342449541E+00
(PID.TID 0000.0001)  ploadbar=  1.01156011617603E+05
 cg2d: Sum(rhs),rhsMax =  -5.63902734257744E+01  1.55918538203409E+00
(PID.TID 0000.0001)  ploadbar=  1.01155955718080E+05
 cg2d: Sum(rhs),rhsMax =  -5.63224759359601E+01  1.56161110273948E+00
(PID.TID 0000.0001)  ploadbar=  1.01155899818557E+05
 cg2d: Sum(rhs),rhsMax =  -5.62903758478286E+01  1.56297912629042E+00
(PID.TID 0000.0001)  ploadbar=  1.01155843919034E+05
 cg2d: Sum(rhs),rhsMax =  -5.62788892493922E+01  1.56370997734236E+00
(PID.TID 0000.0001)  ploadbar=  1.01155788019511E+05
 cg2d: Sum(rhs),rhsMax =  -5.62688600512977E+01  1.56433518333164E+00
(PID.TID 0000.0001)  ploadbar=  1.01155732119988E+05
 cg2d: Sum(rhs),rhsMax =  -5.62657638975795E+01  1.56484898125308E+00
(PID.TID 0000.0001)  ploadbar=  1.01154206823760E+05
 cg2d: Sum(rhs),rhsMax =  -5.62727528542342E+01  1.56516273328772E+00
(PID.TID 0000.0001)  ploadbar=  1.01152681527531E+05
 cg2d: Sum(rhs),rhsMax =  -5.62818908767465E+01  1.56549839356576E+00
(PID.TID 0000.0001)  ploadbar=  1.01151156231302E+05
 cg2d: Sum(rhs),rhsMax =  -5.63026524279679E+01  1.56559395129147E+00
(PID.TID 0000.0001)  ploadbar=  1.01149630935073E+05
 cg2d: Sum(rhs),rhsMax =  -5.63868441673658E+01  1.56401059804534E+00
(PID.TID 0000.0001)  ploadbar=  1.01148105638844E+05
 cg2d: Sum(rhs),rhsMax =  -5.64822023441941E+01  1.56220511150298E+00
(PID.TID 0000.0001)  ploadbar=  1.01146580342616E+05
 cg2d: Sum(rhs),rhsMax =  -5.65728785286268E+01  1.56050627533824E+00
(PID.TID 0000.0001)  ploadbar=  1.01146322106598E+05
 cg2d: Sum(rhs),rhsMax =  -5.67075872642802E+01  1.55757418020544E+00
(PID.TID 0000.0001)  ploadbar=  1.01146063870579E+05
 cg2d: Sum(rhs),rhsMax =  -5.68940878281762E+01  1.55322052013336E+00
(PID.TID 0000.0001)  ploadbar=  1.01145805634561E+05
 cg2d: Sum(rhs),rhsMax =  -5.71201333370026E+01  1.54780739237270E+00
(PID.TID 0000.0001)  ploadbar=  1.01145547398543E+05
 cg2d: Sum(rhs),rhsMax =  -5.73691348747487E+01  1.54180174811242E+00
(PID.TID 0000.0001)  ploadbar=  1.01145289162525E+05
 cg2d: Sum(rhs),rhsMax =  -5.76346047850167E+01  1.53538962240341E+00
(PID.TID 0000.0001)  ploadbar=  1.01145030926507E+05
 cg2d: Sum(rhs),rhsMax =  -5.77532637327362E+01  1.53298762725812E+00
(PID.TID 0000.0001)  ploadbar=  1.01145354874309E+05
 cg2d: Sum(rhs),rhsMax =  -5.75553712147152E+01  1.53907923667474E+00
(PID.TID 0000.0001)  ploadbar=  1.01145678822110E+05
 cg2d: Sum(rhs),rhsMax =  -5.73281035795772E+01  1.54606912260074E+00
(PID.TID 0000.0001)  ploadbar=  1.01146002769911E+05
 cg2d: Sum(rhs),rhsMax =  -5.70874914032073E+01  1.55354140240985E+00
(PID.TID 0000.0001)  ploadbar=  1.01146326717713E+05
 cg2d: Sum(rhs),rhsMax =  -5.68529415103478E+01  1.56097649679579E+00
(PID.TID 0000.0001)  ploadbar=  1.01146650665514E+05
 cg2d: Sum(rhs),rhsMax =  -5.66407621599974E+01  1.56791767456466E+00
(PID.TID 0000.0001)  ploadbar=  1.01146974613316E+05
 cg2d: Sum(rhs),rhsMax =  -5.64575747068108E+01  1.57402943413503E+00
(PID.TID 0000.0001)  ploadbar=  1.01147345711542E+05
 cg2d: Sum(rhs),rhsMax =  -5.63126331696618E+01  1.57903414623557E+00
(PID.TID 0000.0001)  ploadbar=  1.01147716809768E+05
 cg2d: Sum(rhs),rhsMax =  -5.61984647349832E+01  1.58312512710054E+00
(PID.TID 0000.0001)  ploadbar=  1.01148087907994E+05
 cg2d: Sum(rhs),rhsMax =  -5.61062818431513E+01  1.58654094967143E+00
(PID.TID 0000.0001)  ploadbar=  1.01148459006220E+05
 cg2d: Sum(rhs),rhsMax =  -5.60264206982339E+01  1.58955199953759E+00
(PID.TID 0000.0001)  ploadbar=  1.01148830104445E+05
 cg2d: Sum(rhs),rhsMax =  -5.59519436998527E+01  1.59235483193629E+00
(PID.TID 0000.0001)  ploadbar=  1.01149201202671E+05
 cg2d: Sum(rhs),rhsMax =  -5.59010340416764E+01  1.59456021774213E+00
(PID.TID 0000.0001)  ploadbar=  1.01150089288684E+05
 cg2d: Sum(rhs),rhsMax =  -5.58719771388712E+01  1.59621481091939E+00
(PID.TID 0000.0001)  ploadbar=  1.01150977374696E+05
 cg2d: Sum(rhs),rhsMax =  -5.58633954964168E+01  1.59735633649184E+00
(PID.TID 0000.0001)  ploadbar=  1.01151865460709E+05
 cg2d: Sum(rhs),rhsMax =  -5.58490392432884E+01  1.59873576293311E+00
(PID.TID 0000.0001)  ploadbar=  1.01152753546721E+05
 cg2d: Sum(rhs),rhsMax =  -5.55321746366531E+01  1.60890355619620E+00
(PID.TID 0000.0001)  ploadbar=  1.01153641632734E+05
 cg2d: Sum(rhs),rhsMax =  -5.52785564830329E+01  1.61740242069749E+00
(PID.TID 0000.0001)  ploadbar=  1.01154529718746E+05
 cg2d: Sum(rhs),rhsMax =  -5.50994269139379E+01  1.62378694577915E+00
(PID.TID 0000.0001)  ploadbar=  1.01155681263170E+05
 cg2d: Sum(rhs),rhsMax =  -5.49859285737956E+01  1.62827824869237E+00
(PID.TID 0000.0001)  ploadbar=  1.01156832807593E+05
 cg2d: Sum(rhs),rhsMax =  -5.49231281241561E+01  1.63129797369626E+00
(PID.TID 0000.0001)  ploadbar=  1.01157984352016E+05
 cg2d: Sum(rhs),rhsMax =  -5.49482430644964E+01  1.63173566040999E+00
(PID.TID 0000.0001)  ploadbar=  1.01159135896440E+05
 cg2d: Sum(rhs),rhsMax =  -5.50250836923587E+01  1.63066373955426E+00
(PID.TID 0000.0001)  ploadbar=  1.01160287440863E+05
 cg2d: Sum(rhs),rhsMax =  -5.50937512067222E+01  1.62985881296824E+00
(PID.TID 0000.0001)  ploadbar=  1.01161438985287E+05
 cg2d: Sum(rhs),rhsMax =  -5.51381180039476E+01  1.62982162996416E+00
(PID.TID 0000.0001)  ploadbar=  1.01161319897862E+05
 cg2d: Sum(rhs),rhsMax =  -5.51572951680944E+01  1.63057672263334E+00
(PID.TID 0000.0001)  ploadbar=  1.01161200810437E+05
 cg2d: Sum(rhs),rhsMax =  -5.51555609679719E+01  1.63200087730809E+00
(PID.TID 0000.0001)  ploadbar=  1.01161081723012E+05
 cg2d: Sum(rhs),rhsMax =  -5.51416997104839E+01  1.63383784805170E+00
(PID.TID 0000.0001)  ploadbar=  1.01160962635587E+05
 cg2d: Sum(rhs),rhsMax =  -5.50247995322822E+01  1.63879235165970E+00
(PID.TID 0000.0001)  ploadbar=  1.01160843548162E+05
 cg2d: Sum(rhs),rhsMax =  -5.48634598464598E+01  1.64515283461347E+00
(PID.TID 0000.0001)  ploadbar=  1.01160724460737E+05
 cg2d: Sum(rhs),rhsMax =  -5.47434149514043E+01  1.65023863395163E+00
(PID.TID 0000.0001)  ploadbar=  1.01161073051044E+05
 cg2d: Sum(rhs),rhsMax =  -5.46747498839803E+01  1.65372332740871E+00
(PID.TID 0000.0001)  ploadbar=  1.01161421641351E+05
 cg2d: Sum(rhs),rhsMax =  -5.46591134105259E+01  1.65554294724067E+00
(PID.TID 0000.0001)  ploadbar=  1.01161770231659E+05
 cg2d: Sum(rhs),rhsMax =  -5.46920803849007E+01  1.65582682267656E+00
(PID.TID 0000.0001)  ploadbar=  1.01162118821966E+05
 cg2d: Sum(rhs),rhsMax =  -5.47695576951386E+01  1.65470610184435E+00
(PID.TID 0000.0001)  ploadbar=  1.01162467412273E+05
 cg2d: Sum(rhs),rhsMax =  -5.48887021471033E+01  1.65227619569864E+00
(PID.TID 0000.0001)  ploadbar=  1.01162816002580E+05
 cg2d: Sum(rhs),rhsMax =  -5.50333629532947E+01  1.64912863257711E+00
(PID.TID 0000.0001)  ploadbar=  1.01163528220219E+05
 cg2d: Sum(rhs),rhsMax =  -5.51817874672068E+01  1.64592341513501E+00
(PID.TID 0000.0001)  ploadbar=  1.01164240437858E+05
 cg2d: Sum(rhs),rhsMax =  -5.53136643078435E+01  1.64326583541153E+00
(PID.TID 0000.0001)  ploadbar=  1.01164952655496E+05
 cg2d: Sum(rhs),rhsMax =  -5.53340633098912E+01  1.64396693826902E+00
(PID.TID 0000.0001)  ploadbar=  1.01165664873135E+05
 cg2d: Sum(rhs),rhsMax =  -5.53327794508555E+01  1.64535414554070E+00
(PID.TID 0000.0001)  ploadbar=  1.01166377090774E+05
 cg2d: Sum(rhs),rhsMax =  -5.53362172767243E+01  1.64664497530251E+00
(PID.TID 0000.0001)  ploadbar=  1.01167089308412E+05
 cg2d: Sum(rhs),rhsMax =  -5.52707310407771E+01  1.64993379688927E+00
(PID.TID 0000.0001)  ploadbar=  1.01166832809566E+05
 cg2d: Sum(rhs),rhsMax =  -5.51474282605398E+01  1.65491370163446E+00
(PID.TID 0000.0001)  ploadbar=  1.01166576310719E+05
 cg2d: Sum(rhs),rhsMax =  -5.49759082333869E+01  1.66132802762879E+00
(PID.TID 0000.0001)  ploadbar=  1.01166319811872E+05
 cg2d: Sum(rhs),rhsMax =  -5.47692107061139E+01  1.66881421751179E+00
(PID.TID 0000.0001)  ploadbar=  1.01166063313026E+05
 cg2d: Sum(rhs),rhsMax =  -5.45393005912191E+01  1.67703569279006E+00
(PID.TID 0000.0001)  ploadbar=  1.01165806814179E+05
 cg2d: Sum(rhs),rhsMax =  -5.42954530550963E+01  1.68572437051973E+00
(PID.TID 0000.0001)  ploadbar=  1.01165550315333E+05
 cg2d: Sum(rhs),rhsMax =  -5.40851816594403E+01  1.69350171215310E+00
(PID.TID 0000.0001)  ploadbar=  1.01165170948990E+05
 cg2d: Sum(rhs),rhsMax =  -5.39240812775166E+01  1.69985238720120E+00
(PID.TID 0000.0001)  ploadbar=  1.01164791582648E+05
 cg2d: Sum(rhs),rhsMax =  -5.38114621230569E+01  1.70477022101964E+00
(PID.TID 0000.0001)  ploadbar=  1.01164412216306E+05
 cg2d: Sum(rhs),rhsMax =  -5.37836349159700E+01  1.70707964996032E+00
(PID.TID 0000.0001)  ploadbar=  1.01164032849964E+05
 cg2d: Sum(rhs),rhsMax =  -5.37998482248162E+01  1.70806148225858E+00
(PID.TID 0000.0001)  ploadbar=  1.01163653483622E+05
 cg2d: Sum(rhs),rhsMax =  -5.38258483669786E+01  1.70880491193072E+00
(PID.TID 0000.0001)  ploadbar=  1.01163274117280E+05
 cg2d: Sum(rhs),rhsMax =  -5.37875879154294E+01  1.71150561633001E+00
(PID.TID 0000.0001)  ploadbar=  1.01162915977276E+05
 cg2d: Sum(rhs),rhsMax =  -5.36914492626535E+01  1.71597168328391E+00
(PID.TID 0000.0001)  ploadbar=  1.01162557837273E+05
 cg2d: Sum(rhs),rhsMax =  -5.35420277865822E+01  1.72207956674596E+00
(PID.TID 0000.0001)  ploadbar=  1.01162199697269E+05
 cg2d: Sum(rhs),rhsMax =  -5.33528167015026E+01  1.72942504042627E+00
(PID.TID 0000.0001)  ploadbar=  1.01161841557265E+05
 cg2d: Sum(rhs),rhsMax =  -5.31236645835601E+01  1.73804455541698E+00
(PID.TID 0000.0001)  ploadbar=  1.01161483417261E+05
 cg2d: Sum(rhs),rhsMax =  -5.24302167668648E+01  1.76212340920839E+00
(PID.TID 0000.0001)  ploadbar=  1.01161125277257E+05
 cg2d: Sum(rhs),rhsMax =  -5.18176603011424E+01  1.78408354141557E+00
(PID.TID 0000.0001)  ploadbar=  1.01160517389184E+05
 cg2d: Sum(rhs),rhsMax =  -5.12813516205087E+01  1.80390829556563E+00
(PID.TID 0000.0001)  ploadbar=  1.01159909501111E+05
 cg2d: Sum(rhs),rhsMax =  -5.08222884899680E+01  1.82140538078996E+00
(PID.TID 0000.0001)  ploadbar=  1.01159301613038E+05
 cg2d: Sum(rhs),rhsMax =  -5.04325670771587E+01  1.83671918715955E+00
(PID.TID 0000.0001)  ploadbar=  1.01158693724965E+05
 cg2d: Sum(rhs),rhsMax =  -5.00976784210866E+01  1.85027036553928E+00
(PID.TID 0000.0001)  ploadbar=  1.01158085836892E+05
 cg2d: Sum(rhs),rhsMax =  -4.98020693753623E+01  1.86255872903197E+00
(PID.TID 0000.0001)  ploadbar=  1.01157477948819E+05
 cg2d: Sum(rhs),rhsMax =  -4.95484356538758E+01  1.87336884159441E+00
(PID.TID 0000.0001)  ploadbar=  1.01157134353646E+05
 cg2d: Sum(rhs),rhsMax =  -4.93172718588177E+01  1.88339551500674E+00
(PID.TID 0000.0001)  ploadbar=  1.01156790758473E+05
 cg2d: Sum(rhs),rhsMax =  -4.90962223184175E+01  1.89308848299603E+00
(PID.TID 0000.0001)  ploadbar=  1.01156447163301E+05
 cg2d: Sum(rhs),rhsMax =  -4.88775179526310E+01  1.90274150425094E+00
(PID.TID 0000.0001)  ploadbar=  1.01156103568128E+05
 cg2d: Sum(rhs),rhsMax =  -4.86589969483806E+01  1.91243660215016E+00
(PID.TID 0000.0001)  ploadbar=  1.01155759972955E+05
 cg2d: Sum(rhs),rhsMax =  -4.84431104610029E+01  1.92207614800840E+00
(PID.TID 0000.0001)  ploadbar=  1.01155416377783E+05
 cg2d: Sum(rhs),rhsMax =  -4.82330537773193E+01  1.93158031483212E+00
(PID.TID 0000.0001)  ploadbar=  1.01155505699089E+05
 cg2d: Sum(rhs),rhsMax =  -4.80347793466873E+01  1.94070164885861E+00
(PID.TID 0000.0001)  ploadbar=  1.01155595020395E+05
 cg2d: Sum(rhs),rhsMax =  -4.78515558611892E+01  1.94929639529734E+00
(PID.TID 0000.0001)  ploadbar=  1.01155684341701E+05
 cg2d: Sum(rhs),rhsMax =  -4.76874301759130E+01  1.95718271916861E+00
(PID.TID 0000.0001)  ploadbar=  1.01155773663007E+05
 cg2d: Sum(rhs),rhsMax =  -4.75431328989157E+01  1.96431257788546E+00
(PID.TID 0000.0001)  ploadbar=  1.01155862984314E+05
 cg2d: Sum(rhs),rhsMax =  -4.74150244511777E+01  1.97081900125064E+00
(PID.TID 0000.0001)  ploadbar=  1.01155952305620E+05
 cg2d: Sum(rhs),rhsMax =  -4.72891018860237E+01  1.97718388004131E+00
(PID.TID 0000.0001)  ploadbar=  1.01155493486280E+05
 cg2d: Sum(rhs),rhsMax =  -4.71646173283012E+01  1.98343545255575E+00
(PID.TID 0000.0001)  ploadbar=  1.01155034666940E+05
 cg2d: Sum(rhs),rhsMax =  -4.70934041206938E+01  1.98738142475560E+00
(PID.TID 0000.0001)  ploadbar=  1.01154575847600E+05
 cg2d: Sum(rhs),rhsMax =  -4.70182820816682E+01  1.99141499986047E+00
(PID.TID 0000.0001)  ploadbar=  1.01154117028260E+05
 cg2d: Sum(rhs),rhsMax =  -4.69318391807866E+01  1.99585562807333E+00
(PID.TID 0000.0001)  ploadbar=  1.01153658208920E+05
 cg2d: Sum(rhs),rhsMax =  -4.68356558328787E+01  2.00064565535714E+00
(PID.TID 0000.0001)  ploadbar=  1.01153199389580E+05
 cg2d: Sum(rhs),rhsMax =  -4.67590688682547E+01  2.00469018362268E+00
(PID.TID 0000.0001)  ploadbar=  1.01153067957223E+05
 cg2d: Sum(rhs),rhsMax =  -4.66975885649920E+01  2.00816959787819E+00
(PID.TID 0000.0001)  ploadbar=  1.01152936524867E+05
 cg2d: Sum(rhs),rhsMax =  -4.66562001838931E+01  2.01086585153875E+00
(PID.TID 0000.0001)  ploadbar=  1.01152805092510E+05
 cg2d: Sum(rhs),rhsMax =  -4.66391089792650E+01  2.01259063791084E+00
(PID.TID 0000.0001)  ploadbar=  1.01152673660154E+05
 cg2d: Sum(rhs),rhsMax =  -4.66475326234986E+01  2.01328433477629E+00
(PID.TID 0000.0001)  ploadbar=  1.01152542227797E+05
 cg2d: Sum(rhs),rhsMax =  -4.66799084874794E+01  2.01301221435109E+00
(PID.TID 0000.0001)  ploadbar=  1.01152410795441E+05
 cg2d: Sum(rhs),rhsMax =  -4.67158605470900E+01  2.01257509115871E+00
(PID.TID 0000.0001)  ploadbar=  1.01152206145133E+05
 cg2d: Sum(rhs),rhsMax =  -4.67547250447432E+01  2.01200414321146E+00
(PID.TID 0000.0001)  ploadbar=  1.01152001494825E+05
 cg2d: Sum(rhs),rhsMax =  -4.67882889476280E+01  2.01165526825443E+00
(PID.TID 0000.0001)  ploadbar=  1.01151796844517E+05
 cg2d: Sum(rhs),rhsMax =  -4.68097790753483E+01  2.01182002019785E+00
(PID.TID 0000.0001)  ploadbar=  1.01151592194209E+05
 cg2d: Sum(rhs),rhsMax =  -4.68169452127459E+01  2.01259361037520E+00
(PID.TID 0000.0001)  ploadbar=  1.01151387543901E+05
 cg2d: Sum(rhs),rhsMax =  -4.68111557432765E+01  2.01391451462663E+00
(PID.TID 0000.0001)  ploadbar=  1.01151182893593E+05
 cg2d: Sum(rhs),rhsMax =  -4.67823947069299E+01  2.01626384863347E+00
(PID.TID 0000.0001)  ploadbar=  1.01151623941555E+05
 cg2d: Sum(rhs),rhsMax =  -4.67491249724450E+01  2.01884390972229E+00
(PID.TID 0000.0001)  ploadbar=  1.01152064989518E+05
 cg2d: Sum(rhs),rhsMax =  -4.67176614971039E+01  2.02138035478450E+00
(PID.TID 0000.0001)  ploadbar=  1.01152506037481E+05
 cg2d: Sum(rhs),rhsMax =  -4.66913370246436E+01  2.02372236470866E+00
(PID.TID 0000.0001)  ploadbar=  1.01152947085444E+05
 cg2d: Sum(rhs),rhsMax =  -4.66742519941160E+01  2.02568671669104E+00
(PID.TID 0000.0001)  ploadbar=  1.01153388133406E+05
 cg2d: Sum(rhs),rhsMax =  -4.66679217656590E+01  2.02719717107844E+00
(PID.TID 0000.0001)  ploadbar=  1.01153829181369E+05
 cg2d: Sum(rhs),rhsMax =  -4.66792434364804E+01  2.02789039686672E+00
(PID.TID 0000.0001)  ploadbar=  1.01154224642776E+05
 cg2d: Sum(rhs),rhsMax =  -4.66997211131717E+01  2.02813150418652E+00
(PID.TID 0000.0001)  ploadbar=  1.01154620104183E+05
 cg2d: Sum(rhs),rhsMax =  -4.67258944878109E+01  2.02807015401821E+00
(PID.TID 0000.0001)  ploadbar=  1.01155015565589E+05
 cg2d: Sum(rhs),rhsMax =  -4.67545339185828E+01  2.02784352602877E+00
(PID.TID 0000.0001)  ploadbar=  1.01155411026996E+05
 cg2d: Sum(rhs),rhsMax =  -4.67829605154963E+01  2.02756655509852E+00
(PID.TID 0000.0001)  ploadbar=  1.01155806488403E+05
 cg2d: Sum(rhs),rhsMax =  -4.68104190512169E+01  2.02726960524407E+00
(PID.TID 0000.0001)  ploadbar=  1.01156201949810E+05
 cg2d: Sum(rhs),rhsMax =  -4.68478069601911E+01  2.02667372837355E+00
(PID.TID 0000.0001)  ploadbar=  1.01156525261894E+05
 cg2d: Sum(rhs),rhsMax =  -4.68893645183518E+01  2.02602751989234E+00
(PID.TID 0000.0001)  ploadbar=  1.01156848573978E+05
 cg2d: Sum(rhs),rhsMax =  -4.69347961790905E+01  2.02534138138432E+00
(PID.TID 0000.0001)  ploadbar=  1.01157171886062E+05
 cg2d: Sum(rhs),rhsMax =  -4.69843003348490E+01  2.02460686315644E+00
(PID.TID 0000.0001)  ploadbar=  1.01157495198146E+05
 cg2d: Sum(rhs),rhsMax =  -4.70369576907723E+01  2.02386256872698E+00
(PID.TID 0000.0001)  ploadbar=  1.01157818510230E+05
 cg2d: Sum(rhs),rhsMax =  -4.70913129077432E+01  2.02316678624819E+00
(PID.TID 0000.0001)  ploadbar=  1.01158141822314E+05
 cg2d: Sum(rhs),rhsMax =  -4.71423563377389E+01  2.02260260231543E+00
(PID.TID 0000.0001)  ploadbar=  1.01157684243126E+05
 cg2d: Sum(rhs),rhsMax =  -4.71851204991668E+01  2.02238361404430E+00
(PID.TID 0000.0001)  ploadbar=  1.01157226663938E+05
 cg2d: Sum(rhs),rhsMax =  -4.72157488871092E+01  2.02267729145976E+00
(PID.TID 0000.0001)  ploadbar=  1.01156769084749E+05
 cg2d: Sum(rhs),rhsMax =  -4.72318684852368E+01  2.02358372709043E+00
(PID.TID 0000.0001)  ploadbar=  1.01156311505561E+05
 cg2d: Sum(rhs),rhsMax =  -4.72324169551878E+01  2.02514954258019E+00
(PID.TID 0000.0001)  ploadbar=  1.01155853926372E+05
 cg2d: Sum(rhs),rhsMax =  -4.72178381670237E+01  2.02735645652323E+00
(PID.TID 0000.0001)  ploadbar=  1.01155396347184E+05
 cg2d: Sum(rhs),rhsMax =  -4.71728739409940E+01  2.03088138157353E+00
(PID.TID 0000.0001)  ploadbar=  1.01155025421505E+05
 cg2d: Sum(rhs),rhsMax =  -4.71011654032308E+01  2.03557483052461E+00
(PID.TID 0000.0001)  ploadbar=  1.01154654495827E+05
 cg2d: Sum(rhs),rhsMax =  -4.70045175113314E+01  2.04137230492811E+00
(PID.TID 0000.0001)  ploadbar=  1.01154283570148E+05
 cg2d: Sum(rhs),rhsMax =  -4.68850818236988E+01  2.04819564258954E+00
(PID.TID 0000.0001)  ploadbar=  1.01153912644470E+05
 cg2d: Sum(rhs),rhsMax =  -4.67449256906898E+01  2.05597049161451E+00
(PID.TID 0000.0001)  ploadbar=  1.01153541718791E+05
 cg2d: Sum(rhs),rhsMax =  -4.65854475291229E+01  2.06465282208668E+00
(PID.TID 0000.0001)  ploadbar=  1.01153170793113E+05
 cg2d: Sum(rhs),rhsMax =  -4.64095146005399E+01  2.07404143177920E+00
(PID.TID 0000.0001)  ploadbar=  1.01152644360425E+05
 cg2d: Sum(rhs),rhsMax =  -4.62149209544108E+01  2.08425056414809E+00
(PID.TID 0000.0001)  ploadbar=  1.01152117927737E+05
 cg2d: Sum(rhs),rhsMax =  -4.60052084556305E+01  2.09514170282836E+00
(PID.TID 0000.0001)  ploadbar=  1.01151591495049E+05
 cg2d: Sum(rhs),rhsMax =  -4.57892894286845E+01  2.10632547963045E+00
(PID.TID 0000.0001)  ploadbar=  1.01151065062361E+05
 cg2d: Sum(rhs),rhsMax =  -4.55742659621977E+01  2.11748180986565E+00
(PID.TID 0000.0001)  ploadbar=  1.01150538629673E+05
 cg2d: Sum(rhs),rhsMax =  -4.53615575250490E+01  2.12854151560402E+00
(PID.TID 0000.0001)  ploadbar=  1.01150012196985E+05
 cg2d: Sum(rhs),rhsMax =  -4.51670308793771E+01  2.13891238514394E+00
(PID.TID 0000.0001)  ploadbar=  1.01149367935828E+05
 cg2d: Sum(rhs),rhsMax =  -4.50125576436438E+01  2.14752856934623E+00
(PID.TID 0000.0001)  ploadbar=  1.01148723674672E+05
 cg2d: Sum(rhs),rhsMax =  -4.49061807735356E+01  2.15396321094608E+00
(PID.TID 0000.0001)  ploadbar=  1.01148079413515E+05
 cg2d: Sum(rhs),rhsMax =  -4.48501764637937E+01  2.15807206718764E+00
(PID.TID 0000.0001)  ploadbar=  1.01147435152358E+05
 cg2d: Sum(rhs),rhsMax =  -4.48518988671535E+01  2.15947422859526E+00
(PID.TID 0000.0001)  ploadbar=  1.01146790891202E+05
 cg2d: Sum(rhs),rhsMax =  -4.49115395608904E+01  2.15815492232025E+00
(PID.TID 0000.0001)  ploadbar=  1.01146146630045E+05
 cg2d: Sum(rhs),rhsMax =  -4.50167159312790E+01  2.15462556837753E+00
(PID.TID 0000.0001)  ploadbar=  1.01145156327789E+05
 cg2d: Sum(rhs),rhsMax =  -4.51542359417465E+01  2.14954197719625E+00
(PID.TID 0000.0001)  ploadbar=  1.01144166025532E+05
 cg2d: Sum(rhs),rhsMax =  -4.53243715585135E+01  2.14291776278058E+00
(PID.TID 0000.0001)  ploadbar=  1.01143175723275E+05
 cg2d: Sum(rhs),rhsMax =  -4.55245851413777E+01  2.13490601850182E+00
(PID.TID 0000.0001)  ploadbar=  1.01142185421018E+05
 cg2d: Sum(rhs),rhsMax =  -4.57506015720264E+01  2.12574007855212E+00
(PID.TID 0000.0001)  ploadbar=  1.01141195118762E+05
 cg2d: Sum(rhs),rhsMax =  -4.59967068753282E+01  2.11571150378212E+00
(PID.TID 0000.0001)  ploadbar=  1.01140204816505E+05
 cg2d: Sum(rhs),rhsMax =  -4.62542269364829E+01  2.10526146393910E+00
(PID.TID 0000.0001)  ploadbar=  1.01138781391385E+05
 cg2d: Sum(rhs),rhsMax =  -4.65111830787897E+01  2.09494417879831E+00
(PID.TID 0000.0001)  ploadbar=  1.01137357966265E+05
 cg2d: Sum(rhs),rhsMax =  -4.67500903175272E+01  2.08554117095829E+00
(PID.TID 0000.0001)  ploadbar=  1.01135934541145E+05
 cg2d: Sum(rhs),rhsMax =  -4.69541706439326E+01  2.07777444341076E+00
(PID.TID 0000.0001)  ploadbar=  1.01134511116024E+05
 cg2d: Sum(rhs),rhsMax =  -4.71145449043735E+01  2.07199137171593E+00
(PID.TID 0000.0001)  ploadbar=  1.01133087690904E+05
 cg2d: Sum(rhs),rhsMax =  -4.72407694245425E+01  2.06773739468241E+00
(PID.TID 0000.0001)  ploadbar=  1.01131664265784E+05
 cg2d: Sum(rhs),rhsMax =  -4.73504154444665E+01  2.06414443155288E+00
(PID.TID 0000.0001)  ploadbar=  1.01131563453135E+05
 cg2d: Sum(rhs),rhsMax =  -4.74444585735363E+01  2.06115651346854E+00
(PID.TID 0000.0001)  ploadbar=  1.01131462640486E+05
 cg2d: Sum(rhs),rhsMax =  -4.75275588428582E+01  2.05856888165438E+00
(PID.TID 0000.0001)  ploadbar=  1.01131361827837E+05
 cg2d: Sum(rhs),rhsMax =  -4.76019859161283E+01  2.05627890198290E+00
(PID.TID 0000.0001)  ploadbar=  1.01131261015188E+05
 cg2d: Sum(rhs),rhsMax =  -4.76653782391107E+01  2.05438969535257E+00
(PID.TID 0000.0001)  ploadbar=  1.01131160202539E+05
 cg2d: Sum(rhs),rhsMax =  -4.77124208499391E+01  2.05312065821676E+00
(PID.TID 0000.0001)  ploadbar=  1.01131059389890E+05
 cg2d: Sum(rhs),rhsMax =  -4.77528855525748E+01  2.05218967640613E+00
(PID.TID 0000.0001)  ploadbar=  1.01132372049832E+05
 cg2d: Sum(rhs),rhsMax =  -4.77838195270023E+01  2.05172078349781E+00
(PID.TID 0000.0001)  ploadbar=  1.01133684709774E+05
 cg2d: Sum(rhs),rhsMax =  -4.77991364257251E+01  2.05197499037423E+00
(PID.TID 0000.0001)  ploadbar=  1.01134997369716E+05
 cg2d: Sum(rhs),rhsMax =  -4.77948315086973E+01  2.05312304958151E+00
(PID.TID 0000.0001)  ploadbar=  1.01136310029657E+05
 cg2d: Sum(rhs),rhsMax =  -4.77682223282518E+01  2.05527644984527E+00
(PID.TID 0000.0001)  ploadbar=  1.01137622689599E+05
 cg2d: Sum(rhs),rhsMax =  -4.77233446912398E+01  2.05825815371403E+00
(PID.TID 0000.0001)  ploadbar=  1.01138935349541E+05
 cg2d: Sum(rhs),rhsMax =  -4.76679903902249E+01  2.06169960033267E+00
(PID.TID 0000.0001)  ploadbar=  1.01140649454817E+05
 cg2d: Sum(rhs),rhsMax =  -4.76141511461288E+01  2.06508783673854E+00
(PID.TID 0000.0001)  ploadbar=  1.01142363560092E+05
 cg2d: Sum(rhs),rhsMax =  -4.75675387096446E+01  2.06817710006115E+00
(PID.TID 0000.0001)  ploadbar=  1.01144077665367E+05
 cg2d: Sum(rhs),rhsMax =  -4.75284902009037E+01  2.07095224801358E+00
(PID.TID 0000.0001)  ploadbar=  1.01145791770643E+05
 cg2d: Sum(rhs),rhsMax =  -4.74890542879831E+01  2.07376160520841E+00
(PID.TID 0000.0001)  ploadbar=  1.01147505875918E+05
 cg2d: Sum(rhs),rhsMax =  -4.74336764236528E+01  2.07727929682237E+00
(PID.TID 0000.0001)  ploadbar=  1.01149219981193E+05
 cg2d: Sum(rhs),rhsMax =  -4.73528229969084E+01  2.08192669049192E+00
(PID.TID 0000.0001)  ploadbar=  1.01150577622345E+05
 cg2d: Sum(rhs),rhsMax =  -4.72401412941003E+01  2.08800183170922E+00
(PID.TID 0000.0001)  ploadbar=  1.01151935263497E+05
 cg2d: Sum(rhs),rhsMax =  -4.71041051590006E+01  2.09514928297552E+00
(PID.TID 0000.0001)  ploadbar=  1.01153292904648E+05
 cg2d: Sum(rhs),rhsMax =  -4.69285699467880E+01  2.10410430340432E+00
(PID.TID 0000.0001)  ploadbar=  1.01154650545800E+05
 cg2d: Sum(rhs),rhsMax =  -4.67186473977950E+01  2.11467199648964E+00
(PID.TID 0000.0001)  ploadbar=  1.01156008186952E+05
 cg2d: Sum(rhs),rhsMax =  -4.64863392205050E+01  2.12634514272181E+00
(PID.TID 0000.0001)  ploadbar=  1.01157365828104E+05
 cg2d: Sum(rhs),rhsMax =  -4.62418662702767E+01  2.13865358429116E+00
(PID.TID 0000.0001)  ploadbar=  1.01158150129743E+05
 cg2d: Sum(rhs),rhsMax =  -4.59935040148387E+01  2.15122764306710E+00
(PID.TID 0000.0001)  ploadbar=  1.01158934431382E+05
 cg2d: Sum(rhs),rhsMax =  -4.57476693511750E+01  2.16377028736738E+00
(PID.TID 0000.0001)  ploadbar=  1.01159718733021E+05
 cg2d: Sum(rhs),rhsMax =  -4.55076479134071E+01  2.17612300708101E+00
(PID.TID 0000.0001)  ploadbar=  1.01160503034660E+05
 cg2d: Sum(rhs),rhsMax =  -4.52726020957313E+01  2.18832099851982E+00
(PID.TID 0000.0001)  ploadbar=  1.01161287336299E+05
 cg2d: Sum(rhs),rhsMax =  -4.50379125430992E+01  2.20058060089127E+00
(PID.TID 0000.0001)  ploadbar=  1.01162071637938E+05
 cg2d: Sum(rhs),rhsMax =  -4.48062209574315E+01  2.21287409622013E+00
(PID.TID 0000.0001)  ploadbar=  1.01162962201324E+05
 cg2d: Sum(rhs),rhsMax =  -4.45745746668656E+01  2.22534089240067E+00
(PID.TID 0000.0001)  ploadbar=  1.01163852764709E+05
 cg2d: Sum(rhs),rhsMax =  -4.43420071174527E+01  2.23803700844190E+00
(PID.TID 0000.0001)  ploadbar=  1.01164743328094E+05
 cg2d: Sum(rhs),rhsMax =  -4.41094456950590E+01  2.25092257230928E+00
(PID.TID 0000.0001)  ploadbar=  1.01165633891479E+05
 cg2d: Sum(rhs),rhsMax =  -4.38798370822205E+01  2.26384727904678E+00
(PID.TID 0000.0001)  ploadbar=  1.01166524454865E+05
 cg2d: Sum(rhs),rhsMax =  -4.36567914265052E+01  2.27661017119340E+00
(PID.TID 0000.0001)  ploadbar=  1.01167415018250E+05
 cg2d: Sum(rhs),rhsMax =  -4.34386503777325E+01  2.28916772459819E+00
(PID.TID 0000.0001)  ploadbar=  1.01168559540231E+05
 cg2d: Sum(rhs),rhsMax =  -4.32260776400928E+01  2.30148461206610E+00
(PID.TID 0000.0001)  ploadbar=  1.01169704062213E+05
 cg2d: Sum(rhs),rhsMax =  -4.30207293349668E+01  2.31346009414009E+00
(PID.TID 0000.0001)  ploadbar=  1.01170848584195E+05
 cg2d: Sum(rhs),rhsMax =  -4.28236349361322E+01  2.32502689939779E+00
(PID.TID 0000.0001)  ploadbar=  1.01171993106176E+05
 cg2d: Sum(rhs),rhsMax =  -4.26350519685897E+01  2.33616460381285E+00
(PID.TID 0000.0001)  ploadbar=  1.01173137628158E+05
 cg2d: Sum(rhs),rhsMax =  -4.24550973586310E+01  2.34686009609274E+00
(PID.TID 0000.0001)  ploadbar=  1.01174282150139E+05
 cg2d: Sum(rhs),rhsMax =  -4.22939410291039E+01  2.35658600081547E+00
(PID.TID 0000.0001)  ploadbar=  1.01175562373623E+05
 cg2d: Sum(rhs),rhsMax =  -4.21590495381900E+01  2.36490156464803E+00
(PID.TID 0000.0001)  ploadbar=  1.01176842597107E+05
 cg2d: Sum(rhs),rhsMax =  -4.20553950787623E+01  2.37150063265394E+00
(PID.TID 0000.0001)  ploadbar=  1.01178122820591E+05
 cg2d: Sum(rhs),rhsMax =  -4.19854875016101E+01  2.37621332960838E+00
(PID.TID 0000.0001)  ploadbar=  1.01179403044075E+05
 cg2d: Sum(rhs),rhsMax =  -4.19495530288726E+01  2.37900584382845E+00
(PID.TID 0000.0001)  ploadbar=  1.01180683267559E+05
 cg2d: Sum(rhs),rhsMax =  -4.19466776268170E+01  2.37992216344140E+00
(PID.TID 0000.0001)  ploadbar=  1.01181963491043E+05
 cg2d: Sum(rhs),rhsMax =  -4.19596147730478E+01  2.37987101405815E+00
(PID.TID 0000.0001)  ploadbar=  1.01183880665940E+05
 cg2d: Sum(rhs),rhsMax =  -4.19785962132547E+01  2.37940139087431E+00
(PID.TID 0000.0001)  ploadbar=  1.01185797840837E+05
 cg2d: Sum(rhs),rhsMax =  -4.19957833234726E+01  2.37895823172143E+00
(PID.TID 0000.0001)  ploadbar=  1.01187715015734E+05
 cg2d: Sum(rhs),rhsMax =  -4.20070532012121E+01  2.37877708756114E+00
(PID.TID 0000.0001)  ploadbar=  1.01189632190632E+05
 cg2d: Sum(rhs),rhsMax =  -4.20119971243940E+01  2.37887959005355E+00
(PID.TID 0000.0001)  ploadbar=  1.01191549365529E+05
 cg2d: Sum(rhs),rhsMax =  -4.20145581930840E+01  2.37904154656377E+00
(PID.TID 0000.0001)  ploadbar=  1.01193466540426E+05
 cg2d: Sum(rhs),rhsMax =  -4.20107278132388E+01  2.37962043671517E+00
(PID.TID 0000.0001)  ploadbar=  1.01195279226862E+05
 cg2d: Sum(rhs),rhsMax =  -4.20056110277830E+01  2.38032345956903E+00
(PID.TID 0000.0001)  ploadbar=  1.01197091913298E+05
 cg2d: Sum(rhs),rhsMax =  -4.20068333805192E+01  2.38072156982088E+00
(PID.TID 0000.0001)  ploadbar=  1.01198904599734E+05
 cg2d: Sum(rhs),rhsMax =  -4.20100664248397E+01  2.38105425391891E+00
(PID.TID 0000.0001)  ploadbar=  1.01200717286170E+05
 cg2d: Sum(rhs),rhsMax =  -4.20135186706320E+01  2.38142859183170E+00
(PID.TID 0000.0001)  ploadbar=  1.01202529972606E+05
 cg2d: Sum(rhs),rhsMax =  -4.20115751265175E+01  2.38216142726814E+00
(PID.TID 0000.0001)  ploadbar=  1.01204342659042E+05
 cg2d: Sum(rhs),rhsMax =  -4.20181592282676E+01  2.38245914742315E+00
(PID.TID 0000.0001)  ploadbar=  1.01203660867392E+05
 cg2d: Sum(rhs),rhsMax =  -4.20301046658520E+01  2.38250375445030E+00
(PID.TID 0000.0001)  ploadbar=  1.01202979075743E+05
 cg2d: Sum(rhs),rhsMax =  -4.20526667211869E+01  2.38200181754163E+00
(PID.TID 0000.0001)  ploadbar=  1.01202297284093E+05
 cg2d: Sum(rhs),rhsMax =  -4.20932091583740E+01  2.38054261239632E+00
(PID.TID 0000.0001)  ploadbar=  1.01201615492444E+05
 cg2d: Sum(rhs),rhsMax =  -4.21600933203900E+01  2.37765838134015E+00
(PID.TID 0000.0001)  ploadbar=  1.01200933700794E+05
 cg2d: Sum(rhs),rhsMax =  -4.22622333346320E+01  2.37285556191540E+00
(PID.TID 0000.0001)  ploadbar=  1.01200251909145E+05
 cg2d: Sum(rhs),rhsMax =  -4.23853370188810E+01  2.36691974754962E+00
(PID.TID 0000.0001)  ploadbar=  1.01199957611292E+05
 cg2d: Sum(rhs),rhsMax =  -4.25280859919286E+01  2.35994225056324E+00
(PID.TID 0000.0001)  ploadbar=  1.01199663313438E+05
 cg2d: Sum(rhs),rhsMax =  -4.24504794776569E+01  2.36524573922478E+00
(PID.TID 0000.0001)  ploadbar=  1.01199369015585E+05
 cg2d: Sum(rhs),rhsMax =  -4.22854682855848E+01  2.37548629291499E+00
(PID.TID 0000.0001)  ploadbar=  1.01199074717731E+05
 cg2d: Sum(rhs),rhsMax =  -4.22122132351944E+01  2.38064097504587E+00
(PID.TID 0000.0001)  ploadbar=  1.01198780419878E+05
 cg2d: Sum(rhs),rhsMax =  -4.21864350568306E+01  2.38314601925645E+00
(PID.TID 0000.0001)  ploadbar=  1.01198486122025E+05
 cg2d: Sum(rhs),rhsMax =  -4.21876330730570E+01  2.38405328401043E+00
(PID.TID 0000.0001)  ploadbar=  1.01197763806159E+05
 cg2d: Sum(rhs),rhsMax =  -4.21979050055474E+01  2.38436808571662E+00
(PID.TID 0000.0001)  ploadbar=  1.01197041490294E+05
 cg2d: Sum(rhs),rhsMax =  -4.22007523049097E+01  2.38501989693865E+00
(PID.TID 0000.0001)  ploadbar=  1.01196319174428E+05
 cg2d: Sum(rhs),rhsMax =  -4.21867691042622E+01  2.38654047381400E+00
(PID.TID 0000.0001)  ploadbar=  1.01195596858562E+05
 cg2d: Sum(rhs),rhsMax =  -4.21547524741371E+01  2.38899476342481E+00
(PID.TID 0000.0001)  ploadbar=  1.01194874542697E+05
 cg2d: Sum(rhs),rhsMax =  -4.21108206342974E+01  2.39203688148212E+00
(PID.TID 0000.0001)  ploadbar=  1.01194152226831E+05
 cg2d: Sum(rhs),rhsMax =  -4.20721000341597E+01  2.39487292632529E+00
(PID.TID 0000.0001)  ploadbar=  1.01193669507568E+05
 cg2d: Sum(rhs),rhsMax =  -4.20501006724707E+01  2.39684263040649E+00
(PID.TID 0000.0001)  ploadbar=  1.01193186788304E+05
 cg2d: Sum(rhs),rhsMax =  -4.20563319848296E+01  2.39728226252909E+00
(PID.TID 0000.0001)  ploadbar=  1.01192704069041E+05
 cg2d: Sum(rhs),rhsMax =  -4.20981893359700E+01  2.39576376397070E+00
(PID.TID 0000.0001)  ploadbar=  1.01192221349778E+05
 cg2d: Sum(rhs),rhsMax =  -4.21831971318302E+01  2.39186494493641E+00
(PID.TID 0000.0001)  ploadbar=  1.01191738630514E+05
 cg2d: Sum(rhs),rhsMax =  -4.23127703247023E+01  2.38552501515443E+00
(PID.TID 0000.0001)  ploadbar=  1.01191255911251E+05
 cg2d: Sum(rhs),rhsMax =  -4.24747530106660E+01  2.37742743744961E+00
(PID.TID 0000.0001)  ploadbar=  1.01190480163476E+05
 cg2d: Sum(rhs),rhsMax =  -4.26549590991290E+01  2.36839631553429E+00
(PID.TID 0000.0001)  ploadbar=  1.01189704415700E+05
 cg2d: Sum(rhs),rhsMax =  -4.28395412477992E+01  2.35921643557729E+00
(PID.TID 0000.0001)  ploadbar=  1.01188928667925E+05
 cg2d: Sum(rhs),rhsMax =  -4.30200094050276E+01  2.35035595279814E+00
(PID.TID 0000.0001)  ploadbar=  1.01188152920150E+05
 cg2d: Sum(rhs),rhsMax =  -4.31941396472454E+01  2.34192552217885E+00
(PID.TID 0000.0001)  ploadbar=  1.01187377172374E+05
 cg2d: Sum(rhs),rhsMax =  -4.33659102975458E+01  2.33369585756781E+00
(PID.TID 0000.0001)  ploadbar=  1.01186601424599E+05
 cg2d: Sum(rhs),rhsMax =  -4.35540371895330E+01  2.32470242985543E+00
(PID.TID 0000.0001)  ploadbar=  1.01185233255254E+05
 cg2d: Sum(rhs),rhsMax =  -4.37737483821264E+01  2.31415711463167E+00
(PID.TID 0000.0001)  ploadbar=  1.01183865085909E+05
 cg2d: Sum(rhs),rhsMax =  -4.40399168644339E+01  2.30132622191319E+00
(PID.TID 0000.0001)  ploadbar=  1.01182496916564E+05
 cg2d: Sum(rhs),rhsMax =  -4.42750033290592E+01  2.29028862432635E+00
(PID.TID 0000.0001)  ploadbar=  1.01181128747219E+05
 cg2d: Sum(rhs),rhsMax =  -4.42472373157806E+01  2.29293513411406E+00
(PID.TID 0000.0001)  ploadbar=  1.01179760577875E+05
 cg2d: Sum(rhs),rhsMax =  -4.42116722966905E+01  2.29601683812925E+00
(PID.TID 0000.0001)  ploadbar=  1.01178392408530E+05
 cg2d: Sum(rhs),rhsMax =  -4.41818558272326E+01  2.29874160356873E+00
(PID.TID 0000.0001)  ploadbar=  1.01177662541266E+05
 cg2d: Sum(rhs),rhsMax =  -4.41574422044475E+01  2.30111421605827E+00
(PID.TID 0000.0001)  ploadbar=  1.01176932674002E+05
 cg2d: Sum(rhs),rhsMax =  -4.41390421652187E+01  2.30309942962007E+00
(PID.TID 0000.0001)  ploadbar=  1.01176202806738E+05
 cg2d: Sum(rhs),rhsMax =  -4.41273436659087E+01  2.30465955573327E+00
(PID.TID 0000.0001)  ploadbar=  1.01175472939474E+05
 cg2d: Sum(rhs),rhsMax =  -4.41223499922078E+01  2.30578682831519E+00
(PID.TID 0000.0001)  ploadbar=  1.01174743072210E+05
 cg2d: Sum(rhs),rhsMax =  -4.41241485677046E+01  2.30647003887118E+00
(PID.TID 0000.0001)  ploadbar=  1.01174013204946E+05
 cg2d: Sum(rhs),rhsMax =  -4.41185054349871E+01  2.30757368003322E+00
(PID.TID 0000.0001)  ploadbar=  1.01173094553670E+05
 cg2d: Sum(rhs),rhsMax =  -4.41005089288740E+01  2.30935353084795E+00
(PID.TID 0000.0001)  ploadbar=  1.01172175902395E+05
 cg2d: Sum(rhs),rhsMax =  -4.40647859090740E+01  2.31209072945894E+00
(PID.TID 0000.0001)  ploadbar=  1.01171257251119E+05
 cg2d: Sum(rhs),rhsMax =  -4.40068923842523E+01  2.31602196753342E+00
(PID.TID 0000.0001)  ploadbar=  1.01170338599844E+05
 cg2d: Sum(rhs),rhsMax =  -4.39201114257173E+01  2.32150700157393E+00
(PID.TID 0000.0001)  ploadbar=  1.01169419948568E+05
 cg2d: Sum(rhs),rhsMax =  -4.37991159217789E+01  2.32884380716797E+00
(PID.TID 0000.0001)  ploadbar=  1.01168501297293E+05
 cg2d: Sum(rhs),rhsMax =  -4.36585167878348E+01  2.33726818034203E+00
(PID.TID 0000.0001)  ploadbar=  1.01167879865933E+05
 cg2d: Sum(rhs),rhsMax =  -4.35077967818601E+01  2.34628895079976E+00
(PID.TID 0000.0001)  ploadbar=  1.01167258434573E+05
 cg2d: Sum(rhs),rhsMax =  -4.33559327895671E+01  2.35543713653251E+00
(PID.TID 0000.0001)  ploadbar=  1.01166637003213E+05
 cg2d: Sum(rhs),rhsMax =  -4.32103908048978E+01  2.36430841885434E+00
(PID.TID 0000.0001)  ploadbar=  1.01166015571853E+05
 cg2d: Sum(rhs),rhsMax =  -4.30773701479329E+01  2.37254792074192E+00
(PID.TID 0000.0001)  ploadbar=  1.01165394140493E+05
 cg2d: Sum(rhs),rhsMax =  -4.29612857477110E+01  2.37989186706694E+00
(PID.TID 0000.0001)  ploadbar=  1.01164772709133E+05
 cg2d: Sum(rhs),rhsMax =  -4.28711864420829E+01  2.38591689511140E+00
(PID.TID 0000.0001)  ploadbar=  1.01163701663135E+05
 cg2d: Sum(rhs),rhsMax =  -4.28121290281164E+01  2.39032382807721E+00
(PID.TID 0000.0001)  ploadbar=  1.01162630617138E+05
 cg2d: Sum(rhs),rhsMax =  -4.27800803861977E+01  2.39332103594067E+00
(PID.TID 0000.0001)  ploadbar=  1.01161559571141E+05
 cg2d: Sum(rhs),rhsMax =  -4.27686180635832E+01  2.39525767585750E+00
(PID.TID 0000.0001)  ploadbar=  1.01160488525144E+05
 cg2d: Sum(rhs),rhsMax =  -4.27847122597549E+01  2.39574009381783E+00
(PID.TID 0000.0001)  ploadbar=  1.01159417479147E+05
 cg2d: Sum(rhs),rhsMax =  -4.28371305215869E+01  2.39427498132624E+00
(PID.TID 0000.0001)  ploadbar=  1.01158346433150E+05
 cg2d: Sum(rhs),rhsMax =  -4.29070535602338E+01  2.39174619225395E+00
(PID.TID 0000.0001)  ploadbar=  1.01157941499399E+05
 cg2d: Sum(rhs),rhsMax =  -4.29860925260589E+01  2.38863035237269E+00
(PID.TID 0000.0001)  ploadbar=  1.01157536565649E+05
 cg2d: Sum(rhs),rhsMax =  -4.30712697974697E+01  2.38509668135887E+00
(PID.TID 0000.0001)  ploadbar=  1.01157131631898E+05
 cg2d: Sum(rhs),rhsMax =  -4.31590546187615E+01  2.38133780269603E+00
(PID.TID 0000.0001)  ploadbar=  1.01156726698148E+05
 cg2d: Sum(rhs),rhsMax =  -4.32476827789201E+01  2.37744640067298E+00
(PID.TID 0000.0001)  ploadbar=  1.01156321764398E+05
 cg2d: Sum(rhs),rhsMax =  -4.33351036003017E+01  2.37353045486858E+00
(PID.TID 0000.0001)  ploadbar=  1.01155916830647E+05
 cg2d: Sum(rhs),rhsMax =  -4.34267323312888E+01  2.36945931552980E+00
(PID.TID 0000.0001)  ploadbar=  1.01155231917955E+05
 cg2d: Sum(rhs),rhsMax =  -4.35280119610942E+01  2.36494078544999E+00
(PID.TID 0000.0001)  ploadbar=  1.01154547005262E+05
 cg2d: Sum(rhs),rhsMax =  -4.36426168353314E+01  2.35978039428003E+00
(PID.TID 0000.0001)  ploadbar=  1.01153862092569E+05
 cg2d: Sum(rhs),rhsMax =  -4.37724675844939E+01  2.35388706238664E+00
(PID.TID 0000.0001)  ploadbar=  1.01153177179877E+05
 cg2d: Sum(rhs),rhsMax =  -4.39170906540543E+01  2.34729881028740E+00
(PID.TID 0000.0001)  ploadbar=  1.01152492267184E+05
 cg2d: Sum(rhs),rhsMax =  -4.41481583003073E+01  2.33622942469932E+00
(PID.TID 0000.0001)  ploadbar=  1.01151807354491E+05
 cg2d: Sum(rhs),rhsMax =  -4.48862026666855E+01  2.29899353107425E+00
(PID.TID 0000.0001)  ploadbar=  1.01151430280071E+05
 cg2d: Sum(rhs),rhsMax =  -4.56574889113802E+01  2.26129973347525E+00
(PID.TID 0000.0001)  ploadbar=  1.01151053205651E+05
 cg2d: Sum(rhs),rhsMax =  -4.58231511207919E+01  2.25424309893192E+00
(PID.TID 0000.0001)  ploadbar=  1.01150676131231E+05
 cg2d: Sum(rhs),rhsMax =  -4.57363636024005E+01  2.25961931688146E+00
(PID.TID 0000.0001)  ploadbar=  1.01150299056811E+05
 cg2d: Sum(rhs),rhsMax =  -4.56581682622286E+01  2.26456174652129E+00
(PID.TID 0000.0001)  ploadbar=  1.01149921982391E+05
 cg2d: Sum(rhs),rhsMax =  -4.55961442252386E+01  2.26867948647702E+00
(PID.TID 0000.0001)  ploadbar=  1.01149544907971E+05
 cg2d: Sum(rhs),rhsMax =  -4.55527585664811E+01  2.27191462611425E+00
(PID.TID 0000.0001)  ploadbar=  1.01150737770119E+05
 cg2d: Sum(rhs),rhsMax =  -4.55358038700076E+01  2.27387331115515E+00
(PID.TID 0000.0001)  ploadbar=  1.01151930632268E+05
 cg2d: Sum(rhs),rhsMax =  -4.55460090237969E+01  2.27451313195666E+00
(PID.TID 0000.0001)  ploadbar=  1.01153123494416E+05
(PID.TID 0000.0001) %CHECKPOINT     13111 ckptA
(PID.TID 0000.0001) 
(PID.TID 0000.0001) == cost_profiles: begin ==
(PID.TID 0000.0001)  cost_profiles( 4, 1)=  0.34226E+05 0.99820E+06
(PID.TID 0000.0001)  cost_profiles( 4, 2)=  0.28291E+05 0.97847E+06
(PID.TID 0000.0001)  cost_profiles( 8, 1)=  0.38632E+03 0.89570E+05
(PID.TID 0000.0001)  cost_profiles( 8, 2)=  0.22560E+03 0.41104E+05
(PID.TID 0000.0001)  cost_profiles(10, 1)=  0.54036E+06 0.30162E+07
(PID.TID 0000.0001)  cost_profiles(19, 1)=  0.54605E+04 0.26451E+06
(PID.TID 0000.0001)  cost_profiles(19, 2)=  0.39698E+04 0.26219E+06
(PID.TID 0000.0001)  cost_profiles(29, 1)=  0.54605E+04 0.26451E+06
(PID.TID 0000.0001)  cost_profiles(29, 2)=  0.39698E+04 0.26219E+06
(PID.TID 0000.0001)  cost_profiles_mean( 1)=  0.17332E+06 0.27874E+06
(PID.TID 0000.0001)  cost_profiles_mean( 2)=  0.53587E+05 0.14083E+06
(PID.TID 0000.0001) == cost_profiles: end   ==
(PID.TID 0000.0001) 
(PID.TID 0000.0001) gmsl          13     0.81250E-03    -0.15315E-03
(PID.TID 0000.0001) gmsl          14    -0.22350E-02    -0.10591E-02
(PID.TID 0000.0001) gmsl          15    -0.89188E-03     0.34667E-03
(PID.TID 0000.0001) gmsl          16     0.53742E-03     0.41801E-03
(PID.TID 0000.0001) gmsl          17     0.64319E-03     0.19030E-03
(PID.TID 0000.0001) gmsl          18     0.11338E-02     0.25727E-03
(PID.TID 0000.0001)  sshv4: use global mean of eta useEtaMean= F
(PID.TID 0000.0001)  sshv4:re-reference MDT= T
(PID.TID 0000.0001) mdt[start,end]date(1): 19930101,20171231
(PID.TID 0000.0001)   TP MDT yrrange:          1993,2017
(PID.TID 0000.0001)  --> f_profiles = 0.342258975768024E+05 4 1
(PID.TID 0000.0001)  --> f_profiles = 0.282912449278674E+05 4 2
(PID.TID 0000.0001)  --> f_profiles = 0.386319612151500E+03 8 1
(PID.TID 0000.0001)  --> f_profiles = 0.225603190868556E+03 8 2
(PID.TID 0000.0001)  --> f_profiles = 0.540363077552463E+0610 1
(PID.TID 0000.0001)  --> f_profiles = 0.546048736293534E+0419 1
(PID.TID 0000.0001)  --> f_profiles = 0.396976479366770E+0419 2
(PID.TID 0000.0001)  --> f_profiles = 0.546048736293534E+0429 1
(PID.TID 0000.0001)  --> f_profiles = 0.396976479366770E+0429 2
(PID.TID 0000.0001)  --> f_profiles_mean = 0.173318728483827E+06 1
(PID.TID 0000.0001)  --> f_profiles_mean = 0.535871841735300E+05 2
(PID.TID 0000.0001)  --> f_gencost = 0.144959552508231E+08 1
(PID.TID 0000.0001)  --> f_gencost = 0.306966402804915E+06 2
(PID.TID 0000.0001)  --> f_gencost = 0.165858446482084E+07 3
(PID.TID 0000.0001)  --> f_gencost = 0.149961931137784E+05 4
(PID.TID 0000.0001)  --> f_gencost = 0.980776234908100E+05 5
(PID.TID 0000.0001)  --> f_gencost = 0.590484638814786E+06 7
(PID.TID 0000.0001)  --> f_gencost = 0.560619021998353E+06 8
(PID.TID 0000.0001)  --> f_gencost = 0.758406151746158E+0011
(PID.TID 0000.0001)  --> f_gencost = 0.450423472129821E+0612
(PID.TID 0000.0001)  --> f_gencost = 0.803461458329878E+0613
(PID.TID 0000.0001)  --> f_gencost = 0.115931466560746E+0715
(PID.TID 0000.0001)  --> f_gencost = 0.207551652570473E+0717
(PID.TID 0000.0001)  --> f_gencost = 0.248030028940199E+0718
(PID.TID 0000.0001)  --> f_gencost = 0.331464954885580E+0022
(PID.TID 0000.0001)  --> f_gencost = 0.125506279298829E+1127
(PID.TID 0000.0001)  --> f_genarr2d = 0.112316272108573E+00 1
(PID.TID 0000.0001)  --> f_genarr3d = 0.603915502546048E+04 1
(PID.TID 0000.0001)  --> f_genarr3d = 0.271902630686726E+04 2
(PID.TID 0000.0001)  --> f_genarr3d = 0.168301931515205E+05 3
(PID.TID 0000.0001)  --> f_genarr3d = 0.519422256503470E+04 4
(PID.TID 0000.0001)  --> f_genarr3d = 0.101631908524042E+05 5
(PID.TID 0000.0001)  --> f_genarr3d = 0.247466853841392E+01 6
(PID.TID 0000.0001)  --> f_genarr3d = 0.279378863819907E+02 7
(PID.TID 0000.0001)  --> fc               = 0.673318418426351E+07
(PID.TID 0000.0001)   early fc =  0.000000000000000E+00
(PID.TID 0000.0001)   local fc =  0.666071418945616E+05
(PID.TID 0000.0001)  global fc =  0.673318418426351E+07
(PID.TID 0000.0001)   Seconds in section "ALL                    [THE_MODEL_MAIN]":
(PID.TID 0000.0001)           User time: 8603.8799999999992
(PID.TID 0000.0001)         System time: 316.71000000000004
(PID.TID 0000.0001)     Wall clock time: 10590.17329120636
(PID.TID 0000.0001)          No. starts: 1
(PID.TID 0000.0001)           No. stops: 1
(PID.TID 0000.0001)   Seconds in section "INITIALISE_FIXED       [THE_MODEL_MAIN]":
(PID.TID 0000.0001)           User time: 31.18
(PID.TID 0000.0001)         System time: 182.66
(PID.TID 0000.0001)     Wall clock time: 474.82754302024841
(PID.TID 0000.0001)          No. starts: 1
(PID.TID 0000.0001)           No. stops: 1
(PID.TID 0000.0001)   Seconds in section "THE_MAIN_LOOP          [THE_MODEL_MAIN]":
(PID.TID 0000.0001)           User time: 8572.7000000000007
(PID.TID 0000.0001)         System time: 134.05000000000001
(PID.TID 0000.0001)     Wall clock time: 10115.345540046692
(PID.TID 0000.0001)          No. starts: 1
(PID.TID 0000.0001)           No. stops: 1
(PID.TID 0000.0001)   Seconds in section "INITIALISE_VARIA    [THE_MAIN_LOOP]":
(PID.TID 0000.0001)           User time: 115.57999999999998
(PID.TID 0000.0001)         System time: 1.4000000000000057
(PID.TID 0000.0001)     Wall clock time: 117.99716281890869
(PID.TID 0000.0001)          No. starts: 1
(PID.TID 0000.0001)           No. stops: 1
(PID.TID 0000.0001)   Seconds in section "MAIN LOOP           [THE_MAIN_LOOP]":
(PID.TID 0000.0001)           User time: 8457.119999999999
(PID.TID 0000.0001)         System time: 132.65000000000001
(PID.TID 0000.0001)     Wall clock time: 9997.3483440876007
(PID.TID 0000.0001)          No. starts: 1
(PID.TID 0000.0001)           No. stops: 1
(PID.TID 0000.0001)   Seconds in section "COST_AVERAGESFIELDS [MAIN_DO_LOOP]":
(PID.TID 0000.0001)           User time: 233.77000000000953
(PID.TID 0000.0001)         System time: 4.9899999999970248
(PID.TID 0000.0001)     Wall clock time: 288.90108680725098
(PID.TID 0000.0001)          No. starts: 13110
(PID.TID 0000.0001)           No. stops: 13110
(PID.TID 0000.0001)   Seconds in section "PROFILES_INLOOP    [MAIN_DO_LOOP]":
(PID.TID 0000.0001)           User time: 227.17000000003372
(PID.TID 0000.0001)         System time: 0.52000000000006708
(PID.TID 0000.0001)     Wall clock time: 226.15836453437805
(PID.TID 0000.0001)          No. starts: 13110
(PID.TID 0000.0001)           No. stops: 13110
(PID.TID 0000.0001)   Seconds in section "MAIN_DO_LOOP        [THE_MAIN_LOOP]":
(PID.TID 0000.0001)           User time: 5781.8000000000129
(PID.TID 0000.0001)         System time: 65.22999999995622
(PID.TID 0000.0001)     Wall clock time: 6975.7646102905273
(PID.TID 0000.0001)          No. starts: 13110
(PID.TID 0000.0001)           No. stops: 13110
(PID.TID 0000.0001)   Seconds in section "FORWARD_STEP        [MAIN_DO_LOOP]":
(PID.TID 0000.0001)           User time: 5781.6200000000163
(PID.TID 0000.0001)         System time: 65.199999999956248
(PID.TID 0000.0001)     Wall clock time: 6975.5305507183075
(PID.TID 0000.0001)          No. starts: 13110
(PID.TID 0000.0001)           No. stops: 13110
(PID.TID 0000.0001)   Seconds in section "UPDATE_R_STAR       [FORWARD_STEP]":
(PID.TID 0000.0001)           User time: 38.62000000000171
(PID.TID 0000.0001)         System time: 0.5499999999999261
(PID.TID 0000.0001)     Wall clock time: 39.62277889251709
(PID.TID 0000.0001)          No. starts: 26220
(PID.TID 0000.0001)           No. stops: 26220
(PID.TID 0000.0001)   Seconds in section "DO_STATEVARS_DIAGS  [FORWARD_STEP]":
(PID.TID 0000.0001)           User time: 33.139999999958491
(PID.TID 0000.0001)         System time: 0.16000000000011028
(PID.TID 0000.0001)     Wall clock time: 32.4533531665802
(PID.TID 0000.0001)          No. starts: 39330
(PID.TID 0000.0001)           No. stops: 39330
(PID.TID 0000.0001)   Seconds in section "LOAD_FIELDS_DRIVER  [FORWARD_STEP]":
(PID.TID 0000.0001)           User time: 330.12999999997555
(PID.TID 0000.0001)         System time: 13.299999999991059
(PID.TID 0000.0001)     Wall clock time: 448.64632868766785
(PID.TID 0000.0001)          No. starts: 13110
(PID.TID 0000.0001)           No. stops: 13110
(PID.TID 0000.0001)   Seconds in section "EXF_GETFORCING     [LOAD_FLDS_DRIVER]":
(PID.TID 0000.0001)           User time: 327.77999999997246
(PID.TID 0000.0001)         System time: 13.27999999999119
(PID.TID 0000.0001)     Wall clock time: 446.24812984466553
(PID.TID 0000.0001)          No. starts: 13110
(PID.TID 0000.0001)           No. stops: 13110
(PID.TID 0000.0001)   Seconds in section "EXTERNAL_FLDS_LOAD [LOAD_FLDS_DRIVER]":
(PID.TID 0000.0001)           User time: 7.00000000006184564E-2
(PID.TID 0000.0001)         System time: 9.99999999999090505E-3
(PID.TID 0000.0001)     Wall clock time: 0.11368513107299805
(PID.TID 0000.0001)          No. starts: 13110
(PID.TID 0000.0001)           No. stops: 13110
(PID.TID 0000.0001)   Seconds in section "CTRL_MAP_FORCING  [FORWARD_STEP]":
(PID.TID 0000.0001)           User time: 20.799999999986539
(PID.TID 0000.0001)         System time: 0.27999999999997272
(PID.TID 0000.0001)     Wall clock time: 20.75049901008606
(PID.TID 0000.0001)          No. starts: 13110
(PID.TID 0000.0001)           No. stops: 13110
(PID.TID 0000.0001)   Seconds in section "DO_ATMOSPHERIC_PHYS [FORWARD_STEP]":
(PID.TID 0000.0001)           User time: 3.3100000000031287
(PID.TID 0000.0001)         System time: 3.00000000000295586E-2
(PID.TID 0000.0001)     Wall clock time: 3.6364805698394775
(PID.TID 0000.0001)          No. starts: 13110
(PID.TID 0000.0001)           No. stops: 13110
(PID.TID 0000.0001)   Seconds in section "DO_OCEANIC_PHYS     [FORWARD_STEP]":
(PID.TID 0000.0001)           User time: 1161.9899999999907
(PID.TID 0000.0001)         System time: 1.2400000000002365
(PID.TID 0000.0001)     Wall clock time: 1164.0533683300018
(PID.TID 0000.0001)          No. starts: 13110
(PID.TID 0000.0001)           No. stops: 13110
(PID.TID 0000.0001)   Seconds in section "SEAICE_MODEL    [DO_OCEANIC_PHYS]":
(PID.TID 0000.0001)           User time: 300.6600000000426
(PID.TID 0000.0001)         System time: 0.77000000000020918
(PID.TID 0000.0001)     Wall clock time: 301.55852603912354
(PID.TID 0000.0001)          No. starts: 13110
(PID.TID 0000.0001)           No. stops: 13110
(PID.TID 0000.0001)   Seconds in section "SEAICE_DYNSOLVER   [SEAICE_MODEL]":
(PID.TID 0000.0001)           User time: 265.31000000002859
(PID.TID 0000.0001)         System time: 0.65000000000020464
(PID.TID 0000.0001)     Wall clock time: 266.08551335334778
(PID.TID 0000.0001)          No. starts: 13110
(PID.TID 0000.0001)           No. stops: 13110
(PID.TID 0000.0001)   Seconds in section "GGL90_CALC [DO_OCEANIC_PHYS]":
(PID.TID 0000.0001)           User time: 200.98000000001866
(PID.TID 0000.0001)         System time: 9.00000000000034106E-2
(PID.TID 0000.0001)     Wall clock time: 201.72104120254517
(PID.TID 0000.0001)          No. starts: 13110
(PID.TID 0000.0001)           No. stops: 13110
(PID.TID 0000.0001)   Seconds in section "DYNAMICS            [FORWARD_STEP]":
(PID.TID 0000.0001)           User time: 747.99999999992451
(PID.TID 0000.0001)         System time: 6.00000000000022737E-2
(PID.TID 0000.0001)     Wall clock time: 748.0629563331604
(PID.TID 0000.0001)          No. starts: 13110
(PID.TID 0000.0001)           No. stops: 13110
(PID.TID 0000.0001)   Seconds in section "UPDATE_CG2D         [FORWARD_STEP]":
(PID.TID 0000.0001)           User time: 26.459999999990941
(PID.TID 0000.0001)         System time: 9.99999999999658939E-2
(PID.TID 0000.0001)     Wall clock time: 26.788492441177368
(PID.TID 0000.0001)          No. starts: 13110
(PID.TID 0000.0001)           No. stops: 13110
(PID.TID 0000.0001)   Seconds in section "SOLVE_FOR_PRESSURE  [FORWARD_STEP]":
(PID.TID 0000.0001)           User time: 337.20000000005348
(PID.TID 0000.0001)         System time: 1.3499999999998806
(PID.TID 0000.0001)     Wall clock time: 338.53464484214783
(PID.TID 0000.0001)          No. starts: 13110
(PID.TID 0000.0001)           No. stops: 13110
(PID.TID 0000.0001)   Seconds in section "MOM_CORRECTION_STEP [FORWARD_STEP]":
(PID.TID 0000.0001)           User time: 11.040000000019973
(PID.TID 0000.0001)         System time: 1.99999999999818101E-2
(PID.TID 0000.0001)     Wall clock time: 11.341035604476929
(PID.TID 0000.0001)          No. starts: 13110
(PID.TID 0000.0001)           No. stops: 13110
(PID.TID 0000.0001)   Seconds in section "INTEGR_CONTINUITY   [FORWARD_STEP]":
(PID.TID 0000.0001)           User time: 26.200000000007094
(PID.TID 0000.0001)         System time: 3.99999999999636202E-2
(PID.TID 0000.0001)     Wall clock time: 25.888042688369751
(PID.TID 0000.0001)          No. starts: 13110
(PID.TID 0000.0001)           No. stops: 13110
(PID.TID 0000.0001)   Seconds in section "CALC_R_STAR         [FORWARD_STEP]":
(PID.TID 0000.0001)           User time: 4.5200000000040745
(PID.TID 0000.0001)         System time: 9.99999999999090505E-3
(PID.TID 0000.0001)     Wall clock time: 4.526442289352417
(PID.TID 0000.0001)          No. starts: 13110
(PID.TID 0000.0001)           No. stops: 13110
(PID.TID 0000.0001)   Seconds in section "BLOCKING_EXCHANGES  [FORWARD_STEP]":
(PID.TID 0000.0001)           User time: 128.26000000000295
(PID.TID 0000.0001)         System time: 0.34000000000003183
(PID.TID 0000.0001)     Wall clock time: 127.88932704925537
(PID.TID 0000.0001)          No. starts: 26220
(PID.TID 0000.0001)           No. stops: 26220
(PID.TID 0000.0001)   Seconds in section "THERMODYNAMICS      [FORWARD_STEP]":
(PID.TID 0000.0001)           User time: 932.62999999989188
(PID.TID 0000.0001)         System time: 6.00000000000022737E-2
(PID.TID 0000.0001)     Wall clock time: 934.5311017036438
(PID.TID 0000.0001)          No. starts: 13110
(PID.TID 0000.0001)           No. stops: 13110
(PID.TID 0000.0001)   Seconds in section "TRC_CORRECTION_STEP [FORWARD_STEP]":
(PID.TID 0000.0001)           User time: 0.14000000000032742
(PID.TID 0000.0001)         System time: 0.
(PID.TID 0000.0001)     Wall clock time: 0.12385058403015137
(PID.TID 0000.0001)          No. starts: 13110
(PID.TID 0000.0001)           No. stops: 13110
(PID.TID 0000.0001)   Seconds in section "DO_STATEVARS_TAVE   [FORWARD_STEP]":
(PID.TID 0000.0001)           User time: 0.16999999999825377
(PID.TID 0000.0001)         System time: 0.
(PID.TID 0000.0001)     Wall clock time: 0.11954784393310547
(PID.TID 0000.0001)          No. starts: 13110
(PID.TID 0000.0001)           No. stops: 13110
(PID.TID 0000.0001)   Seconds in section "MONITOR             [FORWARD_STEP]":
(PID.TID 0000.0001)           User time: 0.25
(PID.TID 0000.0001)         System time: 0.
(PID.TID 0000.0001)     Wall clock time: 0.26751255989074707
(PID.TID 0000.0001)          No. starts: 13110
(PID.TID 0000.0001)           No. stops: 13110
(PID.TID 0000.0001)   Seconds in section "COST_TILE           [FORWARD_STEP]":
(PID.TID 0000.0001)           User time: 0.12999999999919964
(PID.TID 0000.0001)         System time: 0.
(PID.TID 0000.0001)     Wall clock time: 0.1210331916809082
(PID.TID 0000.0001)          No. starts: 13110
(PID.TID 0000.0001)           No. stops: 13110
(PID.TID 0000.0001)   Seconds in section "DO_THE_MODEL_IO     [FORWARD_STEP]":
(PID.TID 0000.0001)           User time: 524.51000000004115
(PID.TID 0000.0001)         System time: 46.689999999969672
(PID.TID 0000.0001)     Wall clock time: 1591.5995588302612
(PID.TID 0000.0001)          No. starts: 13110
(PID.TID 0000.0001)           No. stops: 13110
(PID.TID 0000.0001)   Seconds in section "DO_WRITE_PICKUP     [FORWARD_STEP]":
(PID.TID 0000.0001)           User time: 24.769999999999527
(PID.TID 0000.0001)         System time: 0.77999999999994429
(PID.TID 0000.0001)     Wall clock time: 25.594237089157104
(PID.TID 0000.0001)          No. starts: 13110
(PID.TID 0000.0001)           No. stops: 13110
(PID.TID 0000.0001)   Seconds in section "COST_AVERAGESFIELDS [THE_MAIN_LOOP]":
(PID.TID 0000.0001)           User time: 1.6700000000000728
(PID.TID 0000.0001)         System time: 4.00000000000204636E-2
(PID.TID 0000.0001)     Wall clock time: 1.7423741817474365
(PID.TID 0000.0001)          No. starts: 1
(PID.TID 0000.0001)           No. stops: 1
(PID.TID 0000.0001)   Seconds in section "PROFILES_INLOOP    [THE_MAIN_LOOP]":
(PID.TID 0000.0001)           User time: 1.00000000002182787E-2
(PID.TID 0000.0001)         System time: 0.
(PID.TID 0000.0001)     Wall clock time: 1.72779560089111328E-2
(PID.TID 0000.0001)          No. starts: 1
(PID.TID 0000.0001)           No. stops: 1
(PID.TID 0000.0001)   Seconds in section "ECCO_COST_DRIVER   [THE_MAIN_LOOP]":
(PID.TID 0000.0001)           User time: 2067.3599999999997
(PID.TID 0000.0001)         System time: 60.370000000000005
(PID.TID 0000.0001)     Wall clock time: 2354.4910180568695
(PID.TID 0000.0001)          No. starts: 1
(PID.TID 0000.0001)           No. stops: 1
(PID.TID 0000.0001)   Seconds in section "COST_GENCOST_ALL    [ECCO SPIN-DOWN]":
(PID.TID 0000.0001)           User time: 2062.4100000000008
(PID.TID 0000.0001)         System time: 60.25
(PID.TID 0000.0001)     Wall clock time: 2349.1827280521393
(PID.TID 0000.0001)          No. starts: 1
(PID.TID 0000.0001)           No. stops: 1
(PID.TID 0000.0001)   Seconds in section "CTRL_COST_DRIVER [ECCO SPIN-DOWN]":
(PID.TID 0000.0001)           User time: 4.9499999999989086
(PID.TID 0000.0001)         System time: 0.12000000000000455
(PID.TID 0000.0001)     Wall clock time: 5.3082590103149414
(PID.TID 0000.0001)          No. starts: 1
(PID.TID 0000.0001)           No. stops: 1
(PID.TID 0000.0001)   Seconds in section "COST_FINAL         [ADJOINT SPIN-DOWN]":
(PID.TID 0000.0001)           User time: 0.
(PID.TID 0000.0001)         System time: 9.99999999999090505E-3
(PID.TID 0000.0001)     Wall clock time: 9.57393646240234375E-3
(PID.TID 0000.0001)          No. starts: 1
(PID.TID 0000.0001)           No. stops: 1
(PID.TID 0000.0001) // ======================================================
(PID.TID 0000.0001) // Tile <-> Tile communication statistics
(PID.TID 0000.0001) // ======================================================
(PID.TID 0000.0001) // o Tile number: 000001
(PID.TID 0000.0001) //         No. X exchanges =              0
(PID.TID 0000.0001) //            Max. X spins =              0
(PID.TID 0000.0001) //            Min. X spins =     1000000000
(PID.TID 0000.0001) //          Total. X spins =              0
(PID.TID 0000.0001) //            Avg. X spins =       0.00E+00
(PID.TID 0000.0001) //         No. Y exchanges =              0
(PID.TID 0000.0001) //            Max. Y spins =              0
(PID.TID 0000.0001) //            Min. Y spins =     1000000000
(PID.TID 0000.0001) //          Total. Y spins =              0
(PID.TID 0000.0001) //            Avg. Y spins =       0.00E+00
(PID.TID 0000.0001) // o Thread number: 000001
(PID.TID 0000.0001) //            No. barriers =       67740628
(PID.TID 0000.0001) //      Max. barrier spins =              0
(PID.TID 0000.0001) //      Min. barrier spins =     1000000000
(PID.TID 0000.0001) //     Total barrier spins =              0
(PID.TID 0000.0001) //      Avg. barrier spins =       0.00E+00
PROGRAM MAIN: Execution ended Normally
